MODEL 1
REMARK VINA RESULT:     -11.0      0.000      0.000
REMARK  Name = C:\Users\Docking\Desktop\test protocol\1iep_ligandH.pdb
REMARK  8 active torsions:
REMARK  status: ('A' for Active; 'I' for Inactive)
REMARK    1  A    between atoms: _5  and  _11
REMARK    2  A    between atoms: _19  and  _21
REMARK    3  A    between atoms: _22  and  _66
REMARK    4  A    between atoms: _27  and  _30
REMARK    5  A    between atoms: _32  and  _33
REMARK    6  A    between atoms: _38  and  _43
REMARK    7  A    between atoms: _43  and  _46
REMARK    8  A    between atoms: _53  and  _55
REMARK                            x       y       z     vdW  Elec       q    Type
REMARK                         _______ _______ _______ _____ _____    ______ ____
ROOT
ATOM     10  C   UNL     1      -6.801  18.873  29.595  0.00  0.00    +0.038 A 
ATOM     11  C   UNL     1      -6.700  17.613  28.952  0.00  0.00    +0.047 A 
ATOM     12  C   UNL     1      -6.097  16.471  29.623  0.00  0.00    +0.035 A 
ATOM     32  C   UNL     1      -5.609  16.648  30.950  0.00  0.00    +0.024 A 
ATOM     33  C   UNL     1      -5.702  17.922  31.619  0.00  0.00    +0.007 A 
ATOM     34  C   UNL     1      -6.294  19.052  30.961  0.00  0.00    -0.029 A 
ATOM     35  C   UNL     1      -6.361  20.396  31.724  0.00  0.00    +0.045 C 
ENDROOT
BRANCH  10   9
ATOM      4  C   UNL     1     -10.612  21.491  28.307  0.00  0.00    +0.077 A 
ATOM      5  C   UNL     1     -11.511  20.656  29.051  0.00  0.00    +0.048 A 
ATOM      6  C   UNL     1     -10.953  19.560  29.746  0.00  0.00    +0.116 A 
ATOM      7  N   UNL     1      -9.596  19.325  29.693  0.00  0.00    -0.223 NA
ATOM      8  C   UNL     1      -8.757  20.148  28.965  0.00  0.00    +0.220 A 
ATOM      9  N   UNL     1      -7.389  19.935  28.905  0.00  0.00    -0.283 N 
ATOM     36  H   UNL     1      -6.805  20.560  28.350  0.00  0.00    +0.155 HD
ATOM     37  N   UNL     1      -9.265  21.201  28.291  0.00  0.00    -0.214 NA
BRANCH   4   3
ATOM      1  C   UNL     1     -12.534  24.693  27.144  0.00  0.00    +0.020 A 
ATOM      2  C   UNL     1     -12.152  23.547  27.937  0.00  0.00    +0.013 A 
ATOM      3  C   UNL     1     -11.049  22.689  27.523  0.00  0.00    +0.019 A 
ATOM     38  C   UNL     1     -10.346  23.022  26.293  0.00  0.00    +0.120 A 
ATOM     39  N   UNL     1     -10.737  24.131  25.550  0.00  0.00    -0.263 NA
ATOM     40  C   UNL     1     -11.798  24.963  25.937  0.00  0.00    +0.111 A 
ENDBRANCH   4   3
ENDBRANCH  10   9
BRANCH  12  13
ATOM     13  N   UNL     1      -5.960  15.170  29.017  0.00  0.00    -0.281 N 
ATOM     14  C   UNL     1      -5.139  14.128  29.414  0.00  0.00    +0.248 C 
ATOM     30  O   UNL     1      -4.235  14.233  30.230  0.00  0.00    -0.270 OA
ATOM     31  H   UNL     1      -6.539  14.996  28.195  0.00  0.00    +0.155 HD
BRANCH  14  15
ATOM     15  C   UNL     1      -5.342  12.777  28.808  0.00  0.00    +0.037 A 
ATOM     16  C   UNL     1      -6.118  12.605  27.578  0.00  0.00    +0.013 A 
ATOM     17  C   UNL     1      -6.313  11.289  27.023  0.00  0.00    +0.005 A 
ATOM     18  C   UNL     1      -5.728  10.133  27.699  0.00  0.00    -0.033 A 
ATOM     28  C   UNL     1      -4.958  10.333  28.915  0.00  0.00    +0.005 A 
ATOM     29  C   UNL     1      -4.766  11.622  29.462  0.00  0.00    +0.013 A 
BRANCH  18  19
ATOM     19  C   UNL     1      -5.903   8.690  27.190  0.00  0.00    +0.119 C 
BRANCH  19  20
ATOM     20  N   UNL     1      -5.993   7.610  28.217  0.00  0.00    -0.302 NA
ATOM     21  C   UNL     1      -4.732   6.740  28.247  0.00  0.00    +0.066 C 
ATOM     22  C   UNL     1      -4.834   5.629  29.342  0.00  0.00    -0.064 C 
ATOM     23  N   UNL     1      -6.076   4.774  29.083  0.00  0.00    +0.379 N 
ATOM     24  C   UNL     1      -6.143   3.692  30.077  0.00  0.00    -0.096 C 
ATOM     25  H   UNL     1      -5.959   4.304  28.079  0.00  0.00    -0.082 HD
ATOM     26  C   UNL     1      -7.333   5.631  29.049  0.00  0.00    -0.064 C 
ATOM     27  C   UNL     1      -7.210   6.750  27.977  0.00  0.00    +0.066 C 
ENDBRANCH  19  20
ENDBRANCH  18  19
ENDBRANCH  14  15
ENDBRANCH  12  13
TORSDOF 6
ENDMDL
MODEL 2
REMARK VINA RESULT:     -10.8      2.097      2.664
REMARK  Name = C:\Users\Docking\Desktop\test protocol\1iep_ligandH.pdb
REMARK  8 active torsions:
REMARK  status: ('A' for Active; 'I' for Inactive)
REMARK    1  A    between atoms: _5  and  _11
REMARK    2  A    between atoms: _19  and  _21
REMARK    3  A    between atoms: _22  and  _66
REMARK    4  A    between atoms: _27  and  _30
REMARK    5  A    between atoms: _32  and  _33
REMARK    6  A    between atoms: _38  and  _43
REMARK    7  A    between atoms: _43  and  _46
REMARK    8  A    between atoms: _53  and  _55
REMARK                            x       y       z     vdW  Elec       q    Type
REMARK                         _______ _______ _______ _____ _____    ______ ____
ROOT
ATOM     10  C   UNL     1      -7.021  19.023  29.475  0.00  0.00    +0.038 A 
ATOM     11  C   UNL     1      -6.859  17.719  28.942  0.00  0.00    +0.047 A 
ATOM     12  C   UNL     1      -6.199  16.671  29.705  0.00  0.00    +0.035 A 
ATOM     32  C   UNL     1      -5.718  16.986  31.010  0.00  0.00    +0.024 A 
ATOM     33  C   UNL     1      -5.873  18.307  31.566  0.00  0.00    +0.007 A 
ATOM     34  C   UNL     1      -6.521  19.345  30.817  0.00  0.00    -0.029 A 
ATOM     35  C   UNL     1      -6.654  20.745  31.461  0.00  0.00    +0.045 C 
ENDROOT
BRANCH  10   9
ATOM      4  C   UNL     1      -6.993  23.027  26.827  0.00  0.00    +0.077 A 
ATOM      5  C   UNL     1      -5.586  23.222  27.030  0.00  0.00    +0.048 A 
ATOM      6  C   UNL     1      -4.908  22.273  27.828  0.00  0.00    +0.116 A 
ATOM      7  N   UNL     1      -5.596  21.212  28.377  0.00  0.00    -0.223 NA
ATOM      8  C   UNL     1      -6.953  21.055  28.163  0.00  0.00    +0.220 A 
ATOM      9  N   UNL     1      -7.662  19.991  28.698  0.00  0.00    -0.283 N 
ATOM     36  H   UNL     1      -8.664  19.914  28.523  0.00  0.00    +0.155 HD
ATOM     37  N   UNL     1      -7.623  21.948  27.406  0.00  0.00    -0.214 NA
BRANCH   4   3
ATOM      1  C   UNL     1      -9.268  26.005  25.705  0.00  0.00    +0.020 A 
ATOM      2  C   UNL     1      -8.451  25.155  26.541  0.00  0.00    +0.013 A 
ATOM      3  C   UNL     1      -7.848  23.941  26.006  0.00  0.00    +0.019 A 
ATOM     38  C   UNL     1      -8.092  23.614  24.609  0.00  0.00    +0.120 A 
ATOM     39  N   UNL     1      -8.884  24.450  23.829  0.00  0.00    -0.263 NA
ATOM     40  C   UNL     1      -9.471  25.620  24.334  0.00  0.00    +0.111 A 
ENDBRANCH   4   3
ENDBRANCH  10   9
BRANCH  12  13
ATOM     13  N   UNL     1      -5.999  15.331  29.214  0.00  0.00    -0.281 N 
ATOM     14  C   UNL     1      -5.058  14.403  29.629  0.00  0.00    +0.248 C 
ATOM     30  O   UNL     1      -4.102  14.661  30.345  0.00  0.00    -0.270 OA
ATOM     31  H   UNL     1      -6.626  15.029  28.468  0.00  0.00    +0.155 HD
BRANCH  14  15
ATOM     15  C   UNL     1      -5.190  12.986  29.173  0.00  0.00    +0.037 A 
ATOM     16  C   UNL     1      -5.861  12.653  27.913  0.00  0.00    +0.013 A 
ATOM     17  C   UNL     1      -5.990  11.276  27.505  0.00  0.00    +0.005 A 
ATOM     18  C   UNL     1      -5.446  10.222  28.357  0.00  0.00    -0.033 A 
ATOM     28  C   UNL     1      -4.781  10.581  29.598  0.00  0.00    +0.005 A 
ATOM     29  C   UNL     1      -4.653  11.929  30.003  0.00  0.00    +0.013 A 
BRANCH  18  19
ATOM     19  C   UNL     1      -5.557   8.726  28.010  0.00  0.00    +0.119 C 
BRANCH  19  20
ATOM     20  N   UNL     1      -4.804   7.766  28.872  0.00  0.00    -0.302 NA
ATOM     21  C   UNL     1      -3.310   7.744  28.538  0.00  0.00    +0.066 C 
ATOM     22  C   UNL     1      -2.534   6.752  29.464  0.00  0.00    -0.064 C 
ATOM     23  N   UNL     1      -3.140   5.354  29.330  0.00  0.00    +0.379 N 
ATOM     24  C   UNL     1      -2.376   4.407  30.156  0.00  0.00    -0.096 C 
ATOM     25  H   UNL     1      -3.031   5.039  28.266  0.00  0.00    -0.082 HD
ATOM     26  C   UNL     1      -4.626   5.367  29.658  0.00  0.00    -0.064 C 
ATOM     27  C   UNL     1      -5.383   6.378  28.752  0.00  0.00    +0.066 C 
ENDBRANCH  19  20
ENDBRANCH  18  19
ENDBRANCH  14  15
ENDBRANCH  12  13
TORSDOF 6
ENDMDL
MODEL 3
REMARK VINA RESULT:     -10.1      8.655     15.553
REMARK  Name = C:\Users\Docking\Desktop\test protocol\1iep_ligandH.pdb
REMARK  8 active torsions:
REMARK  status: ('A' for Active; 'I' for Inactive)
REMARK    1  A    between atoms: _5  and  _11
REMARK    2  A    between atoms: _19  and  _21
REMARK    3  A    between atoms: _22  and  _66
REMARK    4  A    between atoms: _27  and  _30
REMARK    5  A    between atoms: _32  and  _33
REMARK    6  A    between atoms: _38  and  _43
REMARK    7  A    between atoms: _43  and  _46
REMARK    8  A    between atoms: _53  and  _55
REMARK                            x       y       z     vdW  Elec       q    Type
REMARK                         _______ _______ _______ _____ _____    ______ ____
ROOT
ATOM     10  C   UNL     1      -6.847  23.120  27.174  0.00  0.00    +0.038 A 
ATOM     11  C   UNL     1      -5.756  24.002  26.965  0.00  0.00    +0.047 A 
ATOM     12  C   UNL     1      -5.972  25.416  26.700  0.00  0.00    +0.035 A 
ATOM     32  C   UNL     1      -7.313  25.899  26.658  0.00  0.00    +0.024 A 
ATOM     33  C   UNL     1      -8.433  25.016  26.868  0.00  0.00    +0.007 A 
ATOM     34  C   UNL     1      -8.226  23.619  27.126  0.00  0.00    -0.029 A 
ATOM     35  C   UNL     1      -9.465  22.718  27.337  0.00  0.00    +0.045 C 
ENDROOT
BRANCH  10   9
ATOM      4  C   UNL     1      -6.253  19.406  30.155  0.00  0.00    +0.077 A 
ATOM      5  C   UNL     1      -6.462  20.226  31.313  0.00  0.00    +0.048 A 
ATOM      6  C   UNL     1      -6.713  21.599  31.099  0.00  0.00    +0.116 A 
ATOM      7  N   UNL     1      -6.749  22.105  29.818  0.00  0.00    -0.223 NA
ATOM      8  C   UNL     1      -6.542  21.287  28.722  0.00  0.00    +0.220 A 
ATOM      9  N   UNL     1      -6.582  21.772  27.424  0.00  0.00    -0.283 N 
ATOM     36  H   UNL     1      -6.416  21.137  26.643  0.00  0.00    +0.155 HD
ATOM     37  N   UNL     1      -6.299  19.971  28.901  0.00  0.00    -0.214 NA
BRANCH   4   3
ATOM      1  C   UNL     1      -5.114  15.869  31.378  0.00  0.00    +0.020 A 
ATOM      2  C   UNL     1      -5.354  17.293  31.367  0.00  0.00    +0.013 A 
ATOM      3  C   UNL     1      -5.981  17.935  30.218  0.00  0.00    +0.019 A 
ATOM     38  C   UNL     1      -6.355  17.099  29.087  0.00  0.00    +0.120 A 
ATOM     39  N   UNL     1      -6.110  15.730  29.125  0.00  0.00    -0.263 NA
ATOM     40  C   UNL     1      -5.506  15.102  30.225  0.00  0.00    +0.111 A 
ENDBRANCH   4   3
ENDBRANCH  10   9
BRANCH  12  13
ATOM     13  N   UNL     1      -4.905  26.358  26.472  0.00  0.00    -0.281 N 
ATOM     14  C   UNL     1      -3.545  26.165  26.653  0.00  0.00    +0.248 C 
ATOM     30  O   UNL     1      -3.055  25.215  27.246  0.00  0.00    -0.270 OA
ATOM     31  H   UNL     1      -5.185  27.280  26.137  0.00  0.00    +0.155 HD
BRANCH  14  15
ATOM     15  C   UNL     1      -2.592  27.180  26.110  0.00  0.00    +0.037 A 
ATOM     16  C   UNL     1      -1.731  26.878  24.965  0.00  0.00    +0.013 A 
ATOM     17  C   UNL     1      -0.808  27.870  24.471  0.00  0.00    +0.005 A 
ATOM     18  C   UNL     1      -0.744  29.175  25.124  0.00  0.00    -0.033 A 
ATOM     28  C   UNL     1      -1.614  29.450  26.256  0.00  0.00    +0.005 A 
ATOM     29  C   UNL     1      -2.519  28.480  26.742  0.00  0.00    +0.013 A 
BRANCH  18  19
ATOM     19  C   UNL     1       0.225  30.286  24.678  0.00  0.00    +0.119 C 
BRANCH  19  20
ATOM     20  N   UNL     1       1.261  29.924  23.666  0.00  0.00    -0.302 NA
ATOM     21  C   UNL     1       2.577  30.672  23.899  0.00  0.00    +0.066 C 
ATOM     22  C   UNL     1       3.658  30.264  22.845  0.00  0.00    -0.064 C 
ATOM     23  N   UNL     1       3.122  30.536  21.438  0.00  0.00    +0.379 N 
ATOM     24  C   UNL     1       4.157  30.208  20.447  0.00  0.00    -0.096 C 
ATOM     25  H   UNL     1       2.913  31.628  21.361  0.00  0.00    -0.082 HD
ATOM     26  C   UNL     1       1.812  29.798  21.199  0.00  0.00    -0.064 C 
ATOM     27  C   UNL     1       0.755  30.188  22.270  0.00  0.00    +0.066 C 
ENDBRANCH  19  20
ENDBRANCH  18  19
ENDBRANCH  14  15
ENDBRANCH  12  13
TORSDOF 6
ENDMDL
MODEL 4
REMARK VINA RESULT:      -9.9      7.540     15.680
REMARK  Name = C:\Users\Docking\Desktop\test protocol\1iep_ligandH.pdb
REMARK  8 active torsions:
REMARK  status: ('A' for Active; 'I' for Inactive)
REMARK    1  A    between atoms: _5  and  _11
REMARK    2  A    between atoms: _19  and  _21
REMARK    3  A    between atoms: _22  and  _66
REMARK    4  A    between atoms: _27  and  _30
REMARK    5  A    between atoms: _32  and  _33
REMARK    6  A    between atoms: _38  and  _43
REMARK    7  A    between atoms: _43  and  _46
REMARK    8  A    between atoms: _53  and  _55
REMARK                            x       y       z     vdW  Elec       q    Type
REMARK                         _______ _______ _______ _____ _____    ______ ____
ROOT
ATOM     10  C   UNL     1      -8.204  22.580  27.063  0.00  0.00    +0.038 A 
ATOM     11  C   UNL     1      -7.271  23.634  26.890  0.00  0.00    +0.047 A 
ATOM     12  C   UNL     1      -7.711  24.990  26.605  0.00  0.00    +0.035 A 
ATOM     32  C   UNL     1      -9.111  25.239  26.506  0.00  0.00    +0.024 A 
ATOM     33  C   UNL     1     -10.074  24.180  26.678  0.00  0.00    +0.007 A 
ATOM     34  C   UNL     1      -9.645  22.839  26.957  0.00  0.00    -0.029 A 
ATOM     35  C   UNL     1     -10.722  21.742  27.126  0.00  0.00    +0.045 C 
ENDROOT
BRANCH  10   9
ATOM      4  C   UNL     1      -6.518  19.241  30.070  0.00  0.00    +0.077 A 
ATOM      5  C   UNL     1      -6.569  20.138  31.189  0.00  0.00    +0.048 A 
ATOM      6  C   UNL     1      -7.028  21.452  30.946  0.00  0.00    +0.116 A 
ATOM      7  N   UNL     1      -7.406  21.830  29.676  0.00  0.00    -0.223 NA
ATOM      8  C   UNL     1      -7.343  20.940  28.619  0.00  0.00    +0.220 A 
ATOM      9  N   UNL     1      -7.726  21.296  27.335  0.00  0.00    -0.283 N 
ATOM     36  H   UNL     1      -7.658  20.614  26.581  0.00  0.00    +0.155 HD
ATOM     37  N   UNL     1      -6.907  19.680  28.824  0.00  0.00    -0.214 NA
BRANCH   4   3
ATOM      1  C   UNL     1      -4.944  15.907  31.378  0.00  0.00    +0.020 A 
ATOM      2  C   UNL     1      -5.367  17.288  31.335  0.00  0.00    +0.013 A 
ATOM      3  C   UNL     1      -6.058  17.819  30.167  0.00  0.00    +0.019 A 
ATOM     38  C   UNL     1      -6.309  16.920  29.051  0.00  0.00    +0.120 A 
ATOM     39  N   UNL     1      -5.889  15.595  29.120  0.00  0.00    -0.263 NA
ATOM     40  C   UNL     1      -5.221  15.073  30.238  0.00  0.00    +0.111 A 
ENDBRANCH   4   3
ENDBRANCH  10   9
BRANCH  12  13
ATOM     13  N   UNL     1      -6.809  26.099  26.411  0.00  0.00    -0.281 N 
ATOM     14  C   UNL     1      -6.453  27.076  27.325  0.00  0.00    +0.248 C 
ATOM     30  O   UNL     1      -7.024  27.269  28.389  0.00  0.00    -0.270 OA
ATOM     31  H   UNL     1      -6.381  26.171  25.488  0.00  0.00    +0.155 HD
BRANCH  14  15
ATOM     15  C   UNL     1      -5.306  27.980  27.006  0.00  0.00    +0.037 A 
ATOM     16  C   UNL     1      -4.047  27.451  26.474  0.00  0.00    +0.013 A 
ATOM     17  C   UNL     1      -2.950  28.342  26.191  0.00  0.00    +0.005 A 
ATOM     18  C   UNL     1      -3.108  29.773  26.438  0.00  0.00    -0.033 A 
ATOM     28  C   UNL     1      -4.369  30.272  26.961  0.00  0.00    +0.005 A 
ATOM     29  C   UNL     1      -5.446  29.401  27.241  0.00  0.00    +0.013 A 
BRANCH  18  19
ATOM     19  C   UNL     1      -1.984  30.795  26.185  0.00  0.00    +0.119 C 
BRANCH  19  20
ATOM     20  N   UNL     1      -1.481  30.926  24.784  0.00  0.00    -0.302 NA
ATOM     21  C   UNL     1      -0.176  30.156  24.568  0.00  0.00    +0.066 C 
ATOM     22  C   UNL     1       0.324  30.285  23.092  0.00  0.00    -0.064 C 
ATOM     23  N   UNL     1       0.503  31.764  22.745  0.00  0.00    +0.379 N 
ATOM     24  C   UNL     1       1.028  31.886  21.377  0.00  0.00    -0.096 C 
ATOM     25  H   UNL     1       1.267  32.184  23.440  0.00  0.00    -0.082 HD
ATOM     26  C   UNL     1      -0.790  32.537  22.960  0.00  0.00    -0.064 C 
ATOM     27  C   UNL     1      -1.293  32.378  24.422  0.00  0.00    +0.066 C 
ENDBRANCH  19  20
ENDBRANCH  18  19
ENDBRANCH  14  15
ENDBRANCH  12  13
TORSDOF 6
ENDMDL
MODEL 5
REMARK VINA RESULT:      -9.3      3.954      4.938
REMARK  Name = C:\Users\Docking\Desktop\test protocol\1iep_ligandH.pdb
REMARK  8 active torsions:
REMARK  status: ('A' for Active; 'I' for Inactive)
REMARK    1  A    between atoms: _5  and  _11
REMARK    2  A    between atoms: _19  and  _21
REMARK    3  A    between atoms: _22  and  _66
REMARK    4  A    between atoms: _27  and  _30
REMARK    5  A    between atoms: _32  and  _33
REMARK    6  A    between atoms: _38  and  _43
REMARK    7  A    between atoms: _43  and  _46
REMARK    8  A    between atoms: _53  and  _55
REMARK                            x       y       z     vdW  Elec       q    Type
REMARK                         _______ _______ _______ _____ _____    ______ ____
ROOT
ATOM     10  C   UNL     1      -6.278  20.693  29.135  0.00  0.00    +0.038 A 
ATOM     11  C   UNL     1      -5.992  19.334  28.849  0.00  0.00    +0.047 A 
ATOM     12  C   UNL     1      -6.865  18.267  29.312  0.00  0.00    +0.035 A 
ATOM     32  C   UNL     1      -8.024  18.621  30.062  0.00  0.00    +0.024 A 
ATOM     33  C   UNL     1      -8.330  19.998  30.363  0.00  0.00    +0.007 A 
ATOM     34  C   UNL     1      -7.471  21.054  29.911  0.00  0.00    -0.029 A 
ATOM     35  C   UNL     1      -7.844  22.512  30.268  0.00  0.00    +0.045 C 
ENDROOT
BRANCH  10   9
ATOM      4  C   UNL     1      -5.166  24.301  26.171  0.00  0.00    +0.077 A 
ATOM      5  C   UNL     1      -6.421  24.200  25.482  0.00  0.00    +0.048 A 
ATOM      6  C   UNL     1      -7.321  23.202  25.917  0.00  0.00    +0.116 A 
ATOM      7  N   UNL     1      -6.982  22.372  26.964  0.00  0.00    -0.223 NA
ATOM      8  C   UNL     1      -5.763  22.495  27.605  0.00  0.00    +0.220 A 
ATOM      9  N   UNL     1      -5.405  21.677  28.665  0.00  0.00    -0.283 N 
ATOM     36  H   UNL     1      -4.493  21.794  29.107  0.00  0.00    +0.155 HD
ATOM     37  N   UNL     1      -4.885  23.440  27.208  0.00  0.00    -0.214 NA
BRANCH   4   3
ATOM      1  C   UNL     1      -2.378  26.294  24.286  0.00  0.00    +0.020 A 
ATOM      2  C   UNL     1      -3.387  25.299  24.566  0.00  0.00    +0.013 A 
ATOM      3  C   UNL     1      -4.111  25.307  25.830  0.00  0.00    +0.019 A 
ATOM     38  C   UNL     1      -3.788  26.345  26.798  0.00  0.00    +0.120 A 
ATOM     39  N   UNL     1      -2.810  27.289  26.502  0.00  0.00    -0.263 NA
ATOM     40  C   UNL     1      -2.106  27.290  25.289  0.00  0.00    +0.111 A 
ENDBRANCH   4   3
ENDBRANCH  10   9
BRANCH  12  13
ATOM     13  N   UNL     1      -6.621  16.869  29.059  0.00  0.00    -0.281 N 
ATOM     14  C   UNL     1      -5.899  15.977  29.835  0.00  0.00    +0.248 C 
ATOM     30  O   UNL     1      -5.169  16.299  30.760  0.00  0.00    -0.270 OA
ATOM     31  H   UNL     1      -7.031  16.490  28.205  0.00  0.00    +0.155 HD
BRANCH  14  15
ATOM     15  C   UNL     1      -5.988  14.516  29.528  0.00  0.00    +0.037 A 
ATOM     16  C   UNL     1      -5.538  13.981  28.241  0.00  0.00    +0.013 A 
ATOM     17  C   UNL     1      -5.652  12.571  27.964  0.00  0.00    +0.005 A 
ATOM     18  C   UNL     1      -6.217  11.685  28.979  0.00  0.00    -0.033 A 
ATOM     28  C   UNL     1      -6.650  12.242  30.250  0.00  0.00    +0.005 A 
ATOM     29  C   UNL     1      -6.542  13.624  30.524  0.00  0.00    +0.013 A 
BRANCH  18  19
ATOM     19  C   UNL     1      -6.395  10.171  28.763  0.00  0.00    +0.119 C 
BRANCH  19  20
ATOM     20  N   UNL     1      -5.186   9.390  28.366  0.00  0.00    -0.302 NA
ATOM     21  C   UNL     1      -5.474   7.889  28.278  0.00  0.00    +0.066 C 
ATOM     22  C   UNL     1      -4.204   7.089  27.840  0.00  0.00    -0.064 C 
ATOM     23  N   UNL     1      -3.066   7.366  28.824  0.00  0.00    +0.379 N 
ATOM     24  C   UNL     1      -1.888   6.571  28.448  0.00  0.00    -0.096 C 
ATOM     25  H   UNL     1      -3.399   7.022  29.831  0.00  0.00    -0.082 HD
ATOM     26  C   UNL     1      -2.774   8.857  28.919  0.00  0.00    -0.064 C 
ATOM     27  C   UNL     1      -4.050   9.645  29.326  0.00  0.00    +0.066 C 
ENDBRANCH  19  20
ENDBRANCH  18  19
ENDBRANCH  14  15
ENDBRANCH  12  13
TORSDOF 6
ENDMDL
