MODEL 1
REMARK VINA RESULT:     -11.5      0.000      0.000
REMARK  Name = C:\Users\Docking\Desktop\test protocol\1iep_ligandH.pdb
REMARK  8 active torsions:
REMARK  status: ('A' for Active; 'I' for Inactive)
REMARK    1  A    between atoms: _5  and  _11
REMARK    2  A    between atoms: _19  and  _21
REMARK    3  A    between atoms: _22  and  _66
REMARK    4  A    between atoms: _27  and  _30
REMARK    5  A    between atoms: _32  and  _33
REMARK    6  A    between atoms: _38  and  _43
REMARK    7  A    between atoms: _43  and  _46
REMARK    8  A    between atoms: _53  and  _55
REMARK                            x       y       z     vdW  Elec       q    Type
REMARK                         _______ _______ _______ _____ _____    ______ ____
ROOT
ATOM     10  C   UNL     1      17.427  32.980  47.400  0.00  0.00    +0.038 A 
ATOM     11  C   UNL     1      17.046  32.236  48.545  0.00  0.00    +0.047 A 
ATOM     12  C   UNL     1      16.360  30.959  48.419  0.00  0.00    +0.035 A 
ATOM     32  C   UNL     1      16.080  30.469  47.110  0.00  0.00    +0.024 A 
ATOM     33  C   UNL     1      16.460  31.214  45.935  0.00  0.00    +0.007 A 
ATOM     34  C   UNL     1      17.135  32.475  46.053  0.00  0.00    -0.029 A 
ATOM     35  C   UNL     1      17.512  33.232  44.759  0.00  0.00    +0.045 C 
ENDROOT
BRANCH  10   9
ATOM      4  C   UNL     1      21.401  35.669  47.533  0.00  0.00    +0.077 A 
ATOM      5  C   UNL     1      22.243  34.544  47.248  0.00  0.00    +0.048 A 
ATOM      6  C   UNL     1      21.615  33.289  47.080  0.00  0.00    +0.116 A 
ATOM      7  N   UNL     1      20.246  33.180  47.192  0.00  0.00    -0.223 NA
ATOM      8  C   UNL     1      19.463  34.285  47.470  0.00  0.00    +0.220 A 
ATOM      9  N   UNL     1      18.084  34.200  47.579  0.00  0.00    -0.283 N 
ATOM     36  H   UNL     1      17.542  35.037  47.793  0.00  0.00    +0.155 HD
ATOM     37  N   UNL     1      20.039  35.494  47.636  0.00  0.00    -0.214 NA
BRANCH   4   3
ATOM      1  C   UNL     1      23.755  38.787  47.725  0.00  0.00    +0.020 A 
ATOM      2  C   UNL     1      23.309  37.429  47.519  0.00  0.00    +0.013 A 
ATOM      3  C   UNL     1      21.916  37.061  47.733  0.00  0.00    +0.019 A 
ATOM     38  C   UNL     1      20.990  38.100  48.160  0.00  0.00    +0.120 A 
ATOM     39  N   UNL     1      21.448  39.400  48.352  0.00  0.00    -0.263 NA
ATOM     40  C   UNL     1      22.788  39.765  48.150  0.00  0.00    +0.111 A 
ENDBRANCH   4   3
ENDBRANCH  10   9
BRANCH  12  13
ATOM     13  N   UNL     1      15.941  30.163  49.546  0.00  0.00    -0.281 N 
ATOM     14  C   UNL     1      16.736  29.583  50.521  0.00  0.00    +0.248 C 
ATOM     30  O   UNL     1      17.952  29.484  50.452  0.00  0.00    -0.270 OA
ATOM     31  H   UNL     1      14.937  30.007  49.635  0.00  0.00    +0.155 HD
BRANCH  14  15
ATOM     15  C   UNL     1      16.085  29.021  51.743  0.00  0.00    +0.037 A 
ATOM     16  C   UNL     1      16.866  28.697  52.940  0.00  0.00    +0.013 A 
ATOM     17  C   UNL     1      16.215  28.139  54.099  0.00  0.00    +0.005 A 
ATOM     18  C   UNL     1      14.773  27.903  54.067  0.00  0.00    -0.033 A 
ATOM     28  C   UNL     1      14.022  28.239  52.868  0.00  0.00    +0.005 A 
ATOM     29  C   UNL     1      14.657  28.785  51.730  0.00  0.00    +0.013 A 
BRANCH  18  19
ATOM     19  C   UNL     1      13.999  27.292  55.250  0.00  0.00    +0.119 C 
BRANCH  19  20
ATOM     20  N   UNL     1      14.294  25.870  55.598  0.00  0.00    -0.302 NA
ATOM     21  C   UNL     1      14.223  24.952  54.374  0.00  0.00    +0.066 C 
ATOM     22  C   UNL     1      14.556  23.473  54.753  0.00  0.00    -0.064 C 
ATOM     23  N   UNL     1      13.592  22.998  55.842  0.00  0.00    +0.379 N 
ATOM     24  C   UNL     1      13.865  21.589  56.159  0.00  0.00    -0.096 C 
ATOM     25  H   UNL     1      12.559  23.058  55.428  0.00  0.00    -0.082 HD
ATOM     26  C   UNL     1      13.654  23.907  57.061  0.00  0.00    -0.064 C 
ATOM     27  C   UNL     1      13.351  25.380  56.669  0.00  0.00    +0.066 C 
ENDBRANCH  19  20
ENDBRANCH  18  19
ENDBRANCH  14  15
ENDBRANCH  12  13
TORSDOF 6
ENDMDL
MODEL 2
REMARK VINA RESULT:     -10.8      7.499     14.466
REMARK  Name = C:\Users\Docking\Desktop\test protocol\1iep_ligandH.pdb
REMARK  8 active torsions:
REMARK  status: ('A' for Active; 'I' for Inactive)
REMARK    1  A    between atoms: _5  and  _11
REMARK    2  A    between atoms: _19  and  _21
REMARK    3  A    between atoms: _22  and  _66
REMARK    4  A    between atoms: _27  and  _30
REMARK    5  A    between atoms: _32  and  _33
REMARK    6  A    between atoms: _38  and  _43
REMARK    7  A    between atoms: _43  and  _46
REMARK    8  A    between atoms: _53  and  _55
REMARK                            x       y       z     vdW  Elec       q    Type
REMARK                         _______ _______ _______ _____ _____    ______ ____
ROOT
ATOM     10  C   UNL     1      19.303  34.025  47.132  0.00  0.00    +0.038 A 
ATOM     11  C   UNL     1      19.738  35.297  47.585  0.00  0.00    +0.047 A 
ATOM     12  C   UNL     1      21.151  35.588  47.767  0.00  0.00    +0.035 A 
ATOM     32  C   UNL     1      22.096  34.561  47.476  0.00  0.00    +0.024 A 
ATOM     33  C   UNL     1      21.671  33.262  47.016  0.00  0.00    +0.007 A 
ATOM     34  C   UNL     1      20.278  32.968  46.837  0.00  0.00    -0.029 A 
ATOM     35  C   UNL     1      19.880  31.557  46.347  0.00  0.00    +0.045 C 
ENDROOT
BRANCH  10   9
ATOM      4  C   UNL     1      15.392  33.463  44.407  0.00  0.00    +0.077 A 
ATOM      5  C   UNL     1      16.135  33.660  43.196  0.00  0.00    +0.048 A 
ATOM      6  C   UNL     1      17.520  33.910  43.318  0.00  0.00    +0.116 A 
ATOM      7  N   UNL     1      18.108  33.958  44.564  0.00  0.00    -0.223 NA
ATOM      8  C   UNL     1      17.362  33.765  45.712  0.00  0.00    +0.220 A 
ATOM      9  N   UNL     1      17.934  33.801  46.975  0.00  0.00    -0.283 N 
ATOM     36  H   UNL     1      17.348  33.661  47.797  0.00  0.00    +0.155 HD
ATOM     37  N   UNL     1      16.037  33.526  45.622  0.00  0.00    -0.214 NA
BRANCH   4   3
ATOM      1  C   UNL     1      11.755  32.757  45.662  0.00  0.00    +0.020 A 
ATOM      2  C   UNL     1      13.175  33.023  45.684  0.00  0.00    +0.013 A 
ATOM      3  C   UNL     1      13.921  33.185  44.442  0.00  0.00    +0.019 A 
ATOM     38  C   UNL     1      13.195  33.071  43.186  0.00  0.00    +0.120 A 
ATOM     39  N   UNL     1      11.828  32.813  43.197  0.00  0.00    -0.263 NA
ATOM     40  C   UNL     1      11.100  32.654  44.385  0.00  0.00    +0.111 A 
ENDBRANCH   4   3
ENDBRANCH  10   9
BRANCH  12  13
ATOM     13  N   UNL     1      21.652  36.858  48.232  0.00  0.00    -0.281 N 
ATOM     14  C   UNL     1      22.634  37.648  47.658  0.00  0.00    +0.248 C 
ATOM     30  O   UNL     1      23.386  37.278  46.768  0.00  0.00    -0.270 OA
ATOM     31  H   UNL     1      21.231  37.218  49.088  0.00  0.00    +0.155 HD
BRANCH  14  15
ATOM     15  C   UNL     1      22.818  39.046  48.153  0.00  0.00    +0.037 A 
ATOM     16  C   UNL     1      24.141  39.674  48.184  0.00  0.00    +0.013 A 
ATOM     17  C   UNL     1      24.293  41.018  48.683  0.00  0.00    +0.005 A 
ATOM     18  C   UNL     1      23.115  41.744  49.153  0.00  0.00    -0.033 A 
ATOM     28  C   UNL     1      21.814  41.099  49.106  0.00  0.00    +0.005 A 
ATOM     29  C   UNL     1      21.662  39.782  48.619  0.00  0.00    +0.013 A 
BRANCH  18  19
ATOM     19  C   UNL     1      23.187  43.174  49.721  0.00  0.00    +0.119 C 
BRANCH  19  20
ATOM     20  N   UNL     1      24.292  44.050  49.231  0.00  0.00    -0.302 NA
ATOM     21  C   UNL     1      25.417  44.186  50.261  0.00  0.00    +0.066 C 
ATOM     22  C   UNL     1      26.575  45.088  49.723  0.00  0.00    -0.064 C 
ATOM     23  N   UNL     1      26.017  46.461  49.347  0.00  0.00    +0.379 N 
ATOM     24  C   UNL     1      27.113  47.330  48.895  0.00  0.00    -0.096 C 
ATOM     25  H   UNL     1      25.584  46.914  50.269  0.00  0.00    -0.082 HD
ATOM     26  C   UNL     1      24.896  46.335  48.325  0.00  0.00    -0.064 C 
ATOM     27  C   UNL     1      23.763  45.413  48.857  0.00  0.00    +0.066 C 
ENDBRANCH  19  20
ENDBRANCH  18  19
ENDBRANCH  14  15
ENDBRANCH  12  13
TORSDOF 6
ENDMDL
MODEL 3
REMARK VINA RESULT:     -10.5      1.873     12.653
REMARK  Name = C:\Users\Docking\Desktop\test protocol\1iep_ligandH.pdb
REMARK  8 active torsions:
REMARK  status: ('A' for Active; 'I' for Inactive)
REMARK    1  A    between atoms: _5  and  _11
REMARK    2  A    between atoms: _19  and  _21
REMARK    3  A    between atoms: _22  and  _66
REMARK    4  A    between atoms: _27  and  _30
REMARK    5  A    between atoms: _32  and  _33
REMARK    6  A    between atoms: _38  and  _43
REMARK    7  A    between atoms: _43  and  _46
REMARK    8  A    between atoms: _53  and  _55
REMARK                            x       y       z     vdW  Elec       q    Type
REMARK                         _______ _______ _______ _____ _____    ______ ____
ROOT
ATOM     10  C   UNL     1      15.256  31.318  48.093  0.00  0.00    +0.038 A 
ATOM     11  C   UNL     1      16.345  32.202  48.302  0.00  0.00    +0.047 A 
ATOM     12  C   UNL     1      16.929  32.951  47.200  0.00  0.00    +0.035 A 
ATOM     32  C   UNL     1      16.378  32.776  45.898  0.00  0.00    +0.024 A 
ATOM     33  C   UNL     1      15.271  31.881  45.667  0.00  0.00    +0.007 A 
ATOM     34  C   UNL     1      14.692  31.138  46.750  0.00  0.00    -0.029 A 
ATOM     35  C   UNL     1      13.512  30.188  46.443  0.00  0.00    +0.045 C 
ENDROOT
BRANCH  10   9
ATOM      4  C   UNL     1      15.755  28.522  51.962  0.00  0.00    +0.077 A 
ATOM      5  C   UNL     1      17.172  28.411  51.772  0.00  0.00    +0.048 A 
ATOM      6  C   UNL     1      17.733  29.082  50.662  0.00  0.00    +0.116 A 
ATOM      7  N   UNL     1      16.927  29.809  49.813  0.00  0.00    -0.223 NA
ATOM      8  C   UNL     1      15.563  29.894  50.024  0.00  0.00    +0.220 A 
ATOM      9  N   UNL     1      14.734  30.625  49.187  0.00  0.00    -0.283 N 
ATOM     36  H   UNL     1      13.731  30.657  49.373  0.00  0.00    +0.155 HD
ATOM     37  N   UNL     1      15.003  29.260  51.076  0.00  0.00    -0.214 NA
BRANCH   4   3
ATOM      1  C   UNL     1      12.968  27.543  54.526  0.00  0.00    +0.020 A 
ATOM      2  C   UNL     1      13.636  28.201  53.427  0.00  0.00    +0.013 A 
ATOM      3  C   UNL     1      15.016  27.872  53.090  0.00  0.00    +0.019 A 
ATOM     38  C   UNL     1      15.695  26.865  53.891  0.00  0.00    +0.120 A 
ATOM     39  N   UNL     1      15.026  26.249  54.944  0.00  0.00    -0.263 NA
ATOM     40  C   UNL     1      13.700  26.559  55.279  0.00  0.00    +0.111 A 
ENDBRANCH   4   3
ENDBRANCH  10   9
BRANCH  12  13
ATOM     13  N   UNL     1      18.041  33.856  47.351  0.00  0.00    -0.281 N 
ATOM     14  C   UNL     1      19.367  33.543  47.603  0.00  0.00    +0.248 C 
ATOM     30  O   UNL     1      19.762  32.440  47.951  0.00  0.00    -0.270 OA
ATOM     31  H   UNL     1      17.825  34.849  47.261  0.00  0.00    +0.155 HD
BRANCH  14  15
ATOM     15  C   UNL     1      20.401  34.613  47.462  0.00  0.00    +0.037 A 
ATOM     16  C   UNL     1      21.778  34.293  47.076  0.00  0.00    +0.013 A 
ATOM     17  C   UNL     1      22.760  35.342  46.964  0.00  0.00    +0.005 A 
ATOM     18  C   UNL     1      22.367  36.722  47.237  0.00  0.00    -0.033 A 
ATOM     28  C   UNL     1      20.994  37.012  47.613  0.00  0.00    +0.005 A 
ATOM     29  C   UNL     1      20.029  35.987  47.725  0.00  0.00    +0.013 A 
BRANCH  18  19
ATOM     19  C   UNL     1      23.354  37.903  47.162  0.00  0.00    +0.119 C 
BRANCH  19  20
ATOM     20  N   UNL     1      23.144  39.031  48.118  0.00  0.00    -0.302 NA
ATOM     21  C   UNL     1      21.876  39.828  47.795  0.00  0.00    +0.066 C 
ATOM     22  C   UNL     1      21.659  40.991  48.818  0.00  0.00    -0.064 C 
ATOM     23  N   UNL     1      22.887  41.903  48.816  0.00  0.00    +0.379 N 
ATOM     24  C   UNL     1      22.663  43.029  49.734  0.00  0.00    -0.096 C 
ATOM     25  H   UNL     1      22.997  42.320  47.789  0.00  0.00    -0.082 HD
ATOM     26  C   UNL     1      24.152  41.118  49.133  0.00  0.00    -0.064 C 
ATOM     27  C   UNL     1      24.343  39.947  48.129  0.00  0.00    +0.066 C 
ENDBRANCH  19  20
ENDBRANCH  18  19
ENDBRANCH  14  15
ENDBRANCH  12  13
TORSDOF 6
ENDMDL
MODEL 4
REMARK VINA RESULT:      -9.9      2.204      3.077
REMARK  Name = C:\Users\Docking\Desktop\test protocol\1iep_ligandH.pdb
REMARK  8 active torsions:
REMARK  status: ('A' for Active; 'I' for Inactive)
REMARK    1  A    between atoms: _5  and  _11
REMARK    2  A    between atoms: _19  and  _21
REMARK    3  A    between atoms: _22  and  _66
REMARK    4  A    between atoms: _27  and  _30
REMARK    5  A    between atoms: _32  and  _33
REMARK    6  A    between atoms: _38  and  _43
REMARK    7  A    between atoms: _43  and  _46
REMARK    8  A    between atoms: _53  and  _55
REMARK                            x       y       z     vdW  Elec       q    Type
REMARK                         _______ _______ _______ _____ _____    ______ ____
ROOT
ATOM     10  C   UNL     1      16.772  33.232  46.095  0.00  0.00    +0.038 A 
ATOM     11  C   UNL     1      16.344  32.364  47.132  0.00  0.00    +0.047 A 
ATOM     12  C   UNL     1      15.473  31.232  46.854  0.00  0.00    +0.035 A 
ATOM     32  C   UNL     1      15.058  31.013  45.508  0.00  0.00    +0.024 A 
ATOM     33  C   UNL     1      15.482  31.886  44.442  0.00  0.00    +0.007 A 
ATOM     34  C   UNL     1      16.340  33.005  44.710  0.00  0.00    -0.029 A 
ATOM     35  C   UNL     1      16.758  33.911  43.529  0.00  0.00    +0.045 C 
ENDROOT
BRANCH  10   9
ATOM      4  C   UNL     1      21.065  35.060  47.219  0.00  0.00    +0.077 A 
ATOM      5  C   UNL     1      21.689  33.769  47.187  0.00  0.00    +0.048 A 
ATOM      6  C   UNL     1      20.869  32.659  46.884  0.00  0.00    +0.116 A 
ATOM      7  N   UNL     1      19.526  32.839  46.634  0.00  0.00    -0.223 NA
ATOM      8  C   UNL     1      18.955  34.098  46.674  0.00  0.00    +0.220 A 
ATOM      9  N   UNL     1      17.608  34.303  46.417  0.00  0.00    -0.283 N 
ATOM     36  H   UNL     1      17.224  35.246  46.465  0.00  0.00    +0.155 HD
ATOM     37  N   UNL     1      19.717  35.173  46.962  0.00  0.00    -0.214 NA
BRANCH   4   3
ATOM      1  C   UNL     1      23.896  37.727  47.629  0.00  0.00    +0.020 A 
ATOM      2  C   UNL     1      23.235  36.480  47.323  0.00  0.00    +0.013 A 
ATOM      3  C   UNL     1      21.799  36.329  47.521  0.00  0.00    +0.019 A 
ATOM     38  C   UNL     1      21.055  37.470  48.034  0.00  0.00    +0.120 A 
ATOM     39  N   UNL     1      21.719  38.658  48.321  0.00  0.00    -0.263 NA
ATOM     40  C   UNL     1      23.101  38.814  48.136  0.00  0.00    +0.111 A 
ENDBRANCH   4   3
ENDBRANCH  10   9
BRANCH  12  13
ATOM     13  N   UNL     1      15.000  30.322  47.867  0.00  0.00    -0.281 N 
ATOM     14  C   UNL     1      15.734  29.396  48.591  0.00  0.00    +0.248 C 
ATOM     30  O   UNL     1      16.878  29.061  48.323  0.00  0.00    -0.270 OA
ATOM     31  H   UNL     1      14.002  30.365  48.077  0.00  0.00    +0.155 HD
BRANCH  14  15
ATOM     15  C   UNL     1      15.101  28.738  49.774  0.00  0.00    +0.037 A 
ATOM     16  C   UNL     1      14.580  27.371  49.694  0.00  0.00    +0.013 A 
ATOM     17  C   UNL     1      13.959  26.765  50.845  0.00  0.00    +0.005 A 
ATOM     18  C   UNL     1      13.857  27.527  52.088  0.00  0.00    -0.033 A 
ATOM     28  C   UNL     1      14.386  28.880  52.140  0.00  0.00    +0.005 A 
ATOM     29  C   UNL     1      14.995  29.477  51.014  0.00  0.00    +0.013 A 
BRANCH  18  19
ATOM     19  C   UNL     1      13.191  26.968  53.359  0.00  0.00    +0.119 C 
BRANCH  19  20
ATOM     20  N   UNL     1      12.394  27.921  54.189  0.00  0.00    -0.302 NA
ATOM     21  C   UNL     1      12.431  27.558  55.676  0.00  0.00    +0.066 C 
ATOM     22  C   UNL     1      11.611  28.577  56.531  0.00  0.00    -0.064 C 
ATOM     23  N   UNL     1      10.170  28.624  56.021  0.00  0.00    +0.379 N 
ATOM     24  C   UNL     1       9.382  29.539  56.860  0.00  0.00    -0.096 C 
ATOM     25  H   UNL     1       9.737  27.603  56.135  0.00  0.00    -0.082 HD
ATOM     26  C   UNL     1      10.124  28.982  54.542  0.00  0.00    -0.064 C 
ATOM     27  C   UNL     1      10.966  27.980  53.704  0.00  0.00    +0.066 C 
ENDBRANCH  19  20
ENDBRANCH  18  19
ENDBRANCH  14  15
ENDBRANCH  12  13
TORSDOF 6
ENDMDL
MODEL 5
REMARK VINA RESULT:      -9.7      3.789     12.923
REMARK  Name = C:\Users\Docking\Desktop\test protocol\1iep_ligandH.pdb
REMARK  8 active torsions:
REMARK  status: ('A' for Active; 'I' for Inactive)
REMARK    1  A    between atoms: _5  and  _11
REMARK    2  A    between atoms: _19  and  _21
REMARK    3  A    between atoms: _22  and  _66
REMARK    4  A    between atoms: _27  and  _30
REMARK    5  A    between atoms: _32  and  _33
REMARK    6  A    between atoms: _38  and  _43
REMARK    7  A    between atoms: _43  and  _46
REMARK    8  A    between atoms: _53  and  _55
REMARK                            x       y       z     vdW  Elec       q    Type
REMARK                         _______ _______ _______ _____ _____    ______ ____
ROOT
ATOM     10  C   UNL     1      15.230  32.249  46.918  0.00  0.00    +0.038 A 
ATOM     11  C   UNL     1      16.235  33.159  47.335  0.00  0.00    +0.047 A 
ATOM     12  C   UNL     1      17.413  33.403  46.518  0.00  0.00    +0.035 A 
ATOM     32  C   UNL     1      17.534  32.706  45.280  0.00  0.00    +0.024 A 
ATOM     33  C   UNL     1      16.522  31.777  44.842  0.00  0.00    +0.007 A 
ATOM     34  C   UNL     1      15.359  31.530  45.645  0.00  0.00    -0.029 A 
ATOM     35  C   UNL     1      14.309  30.519  45.129  0.00  0.00    +0.045 C 
ENDROOT
BRANCH  10   9
ATOM      4  C   UNL     1      13.063  30.216  50.688  0.00  0.00    +0.077 A 
ATOM      5  C   UNL     1      14.234  29.461  51.029  0.00  0.00    +0.048 A 
ATOM      6  C   UNL     1      15.371  29.620  50.205  0.00  0.00    +0.116 A 
ATOM      7  N   UNL     1      15.328  30.472  49.123  0.00  0.00    -0.223 NA
ATOM      8  C   UNL     1      14.182  31.184  48.821  0.00  0.00    +0.220 A 
ATOM      9  N   UNL     1      14.119  32.052  47.742  0.00  0.00    -0.283 N 
ATOM     36  H   UNL     1      13.252  32.554  47.548  0.00  0.00    +0.155 HD
ATOM     37  N   UNL     1      13.082  31.049  49.591  0.00  0.00    -0.214 NA
BRANCH   4   3
ATOM      1  C   UNL     1      10.130  28.987  52.966  0.00  0.00    +0.020 A 
ATOM      2  C   UNL     1      11.375  28.991  52.234  0.00  0.00    +0.013 A 
ATOM      3  C   UNL     1      11.784  30.159  51.464  0.00  0.00    +0.019 A 
ATOM     38  C   UNL     1      10.902  31.317  51.456  0.00  0.00    +0.120 A 
ATOM     39  N   UNL     1       9.708  31.284  52.170  0.00  0.00    -0.263 NA
ATOM     40  C   UNL     1       9.304  30.165  52.913  0.00  0.00    +0.111 A 
ENDBRANCH   4   3
ENDBRANCH  10   9
BRANCH  12  13
ATOM     13  N   UNL     1      18.471  34.309  46.892  0.00  0.00    -0.281 N 
ATOM     14  C   UNL     1      19.759  33.996  47.292  0.00  0.00    +0.248 C 
ATOM     30  O   UNL     1      20.135  32.873  47.595  0.00  0.00    -0.270 OA
ATOM     31  H   UNL     1      18.241  35.303  46.859  0.00  0.00    +0.155 HD
BRANCH  14  15
ATOM     15  C   UNL     1      20.774  35.089  47.383  0.00  0.00    +0.037 A 
ATOM     16  C   UNL     1      20.395  36.446  47.786  0.00  0.00    +0.013 A 
ATOM     17  C   UNL     1      21.391  37.487  47.848  0.00  0.00    +0.005 A 
ATOM     18  C   UNL     1      22.776  37.173  47.508  0.00  0.00    -0.033 A 
ATOM     28  C   UNL     1      23.126  35.818  47.116  0.00  0.00    +0.005 A 
ATOM     29  C   UNL     1      22.152  34.795  47.053  0.00  0.00    +0.013 A 
BRANCH  18  19
ATOM     19  C   UNL     1      23.901  38.226  47.526  0.00  0.00    +0.119 C 
BRANCH  19  20
ATOM     20  N   UNL     1      23.710  39.414  48.411  0.00  0.00    -0.302 NA
ATOM     21  C   UNL     1      22.380  40.123  48.143  0.00  0.00    +0.066 C 
ATOM     22  C   UNL     1      22.187  41.350  49.092  0.00  0.00    -0.064 C 
ATOM     23  N   UNL     1      23.360  42.316  48.917  0.00  0.00    +0.379 N 
ATOM     24  C   UNL     1      23.153  43.498  49.766  0.00  0.00    -0.096 C 
ATOM     25  H   UNL     1      23.362  42.657  47.856  0.00  0.00    -0.082 HD
ATOM     26  C   UNL     1      24.688  41.618  49.180  0.00  0.00    -0.064 C 
ATOM     27  C   UNL     1      24.856  40.383  48.251  0.00  0.00    +0.066 C 
ENDBRANCH  19  20
ENDBRANCH  18  19
ENDBRANCH  14  15
ENDBRANCH  12  13
TORSDOF 6
ENDMDL
