MODEL 1
REMARK VINA RESULT:      -8.6      0.000      0.000
REMARK  Name = C:\Users\Docking\Desktop\test protocol\1iep_ligandH.pdb
REMARK  8 active torsions:
REMARK  status: ('A' for Active; 'I' for Inactive)
REMARK    1  A    between atoms: _5  and  _11
REMARK    2  A    between atoms: _19  and  _21
REMARK    3  A    between atoms: _22  and  _66
REMARK    4  A    between atoms: _27  and  _30
REMARK    5  A    between atoms: _32  and  _33
REMARK    6  A    between atoms: _38  and  _43
REMARK    7  A    between atoms: _43  and  _46
REMARK    8  A    between atoms: _53  and  _55
REMARK                            x       y       z     vdW  Elec       q    Type
REMARK                         _______ _______ _______ _____ _____    ______ ____
ROOT
ATOM     10  C   UNL     1      15.270  -7.814  91.225  0.00  0.00    +0.038 A 
ATOM     11  C   UNL     1      15.484  -6.501  90.733  0.00  0.00    +0.047 A 
ATOM     12  C   UNL     1      14.598  -5.916  89.738  0.00  0.00    +0.035 A 
ATOM     32  C   UNL     1      13.501  -6.696  89.268  0.00  0.00    +0.024 A 
ATOM     33  C   UNL     1      13.269  -8.033  89.757  0.00  0.00    +0.007 A 
ATOM     34  C   UNL     1      14.142  -8.616  90.736  0.00  0.00    -0.029 A 
ATOM     35  C   UNL     1      13.849 -10.055  91.219  0.00  0.00    +0.045 C 
ENDROOT
BRANCH  10   9
ATOM      4  C   UNL     1      19.331 -10.050  92.466  0.00  0.00    +0.077 A 
ATOM      5  C   UNL     1      19.716 -10.239  91.097  0.00  0.00    +0.048 A 
ATOM      6  C   UNL     1      18.837  -9.752  90.104  0.00  0.00    +0.116 A 
ATOM      7  N   UNL     1      17.664  -9.124  90.464  0.00  0.00    -0.223 NA
ATOM      8  C   UNL     1      17.322  -8.960  91.794  0.00  0.00    +0.220 A 
ATOM      9  N   UNL     1      16.152  -8.326  92.179  0.00  0.00    -0.283 N 
ATOM     36  H   UNL     1      15.932  -8.231  93.170  0.00  0.00    +0.155 HD
ATOM     37  N   UNL     1      18.144  -9.418  92.761  0.00  0.00    -0.214 NA
BRANCH   4   3
ATOM      1  C   UNL     1      22.112 -10.286  95.207  0.00  0.00    +0.020 A 
ATOM      2  C   UNL     1      21.352  -9.804  94.077  0.00  0.00    +0.013 A 
ATOM      3  C   UNL     1      20.155 -10.506  93.630  0.00  0.00    +0.019 A 
ATOM     38  C   UNL     1      19.752 -11.702  94.354  0.00  0.00    +0.120 A 
ATOM     39  N   UNL     1      20.504 -12.143  95.438  0.00  0.00    -0.263 NA
ATOM     40  C   UNL     1      21.659 -11.477  95.876  0.00  0.00    +0.111 A 
ENDBRANCH   4   3
ENDBRANCH  10   9
BRANCH  12  13
ATOM     13  N   UNL     1      14.770  -4.591  89.196  0.00  0.00    -0.281 N 
ATOM     14  C   UNL     1      14.062  -3.443  89.512  0.00  0.00    +0.248 C 
ATOM     30  O   UNL     1      13.025  -3.426  90.158  0.00  0.00    -0.270 OA
ATOM     31  H   UNL     1      15.502  -4.487  88.494  0.00  0.00    +0.155 HD
BRANCH  14  15
ATOM     15  C   UNL     1      14.573  -2.124  89.029  0.00  0.00    +0.037 A 
ATOM     16  C   UNL     1      14.236  -1.622  87.694  0.00  0.00    +0.013 A 
ATOM     17  C   UNL     1      14.756  -0.354  87.246  0.00  0.00    +0.005 A 
ATOM     18  C   UNL     1      15.617   0.421  88.135  0.00  0.00    -0.033 A 
ATOM     28  C   UNL     1      15.931  -0.098  89.456  0.00  0.00    +0.005 A 
ATOM     29  C   UNL     1      15.424  -1.341  89.898  0.00  0.00    +0.013 A 
BRANCH  18  19
ATOM     19  C   UNL     1      16.233   1.774  87.732  0.00  0.00    +0.119 C 
BRANCH  19  20
ATOM     20  N   UNL     1      15.609   2.495  86.583  0.00  0.00    -0.302 NA
ATOM     21  C   UNL     1      16.313   2.184  85.259  0.00  0.00    +0.066 C 
ATOM     22  C   UNL     1      15.633   2.929  84.064  0.00  0.00    -0.064 C 
ATOM     23  N   UNL     1      15.634   4.434  84.338  0.00  0.00    +0.379 N 
ATOM     24  C   UNL     1      15.047   5.141  83.190  0.00  0.00    -0.096 C 
ATOM     25  H   UNL     1      16.696   4.760  84.430  0.00  0.00    -0.082 HD
ATOM     26  C   UNL     1      14.938   4.751  85.654  0.00  0.00    -0.064 C 
ATOM     27  C   UNL     1      15.603   3.983  86.830  0.00  0.00    +0.066 C 
ENDBRANCH  19  20
ENDBRANCH  18  19
ENDBRANCH  14  15
ENDBRANCH  12  13
TORSDOF 6
ENDMDL
MODEL 2
REMARK VINA RESULT:      -8.6      4.616     12.505
REMARK  Name = C:\Users\Docking\Desktop\test protocol\1iep_ligandH.pdb
REMARK  8 active torsions:
REMARK  status: ('A' for Active; 'I' for Inactive)
REMARK    1  A    between atoms: _5  and  _11
REMARK    2  A    between atoms: _19  and  _21
REMARK    3  A    between atoms: _22  and  _66
REMARK    4  A    between atoms: _27  and  _30
REMARK    5  A    between atoms: _32  and  _33
REMARK    6  A    between atoms: _38  and  _43
REMARK    7  A    between atoms: _43  and  _46
REMARK    8  A    between atoms: _53  and  _55
REMARK                            x       y       z     vdW  Elec       q    Type
REMARK                         _______ _______ _______ _____ _____    ______ ____
ROOT
ATOM     10  C   UNL     1      15.730   1.350  88.838  0.00  0.00    +0.038 A 
ATOM     11  C   UNL     1      15.790  -0.051  89.053  0.00  0.00    +0.047 A 
ATOM     12  C   UNL     1      15.095  -0.978  88.173  0.00  0.00    +0.035 A 
ATOM     32  C   UNL     1      14.349  -0.443  87.082  0.00  0.00    +0.024 A 
ATOM     33  C   UNL     1      14.276   0.978  86.850  0.00  0.00    +0.007 A 
ATOM     34  C   UNL     1      14.958   1.897  87.716  0.00  0.00    -0.029 A 
ATOM     35  C   UNL     1      14.839   3.411  87.423  0.00  0.00    +0.045 C 
ENDROOT
BRANCH  10   9
ATOM      4  C   UNL     1      19.415   4.225  89.927  0.00  0.00    +0.077 A 
ATOM      5  C   UNL     1      20.039   4.006  88.653  0.00  0.00    +0.048 A 
ATOM      6  C   UNL     1      19.382   3.141  87.749  0.00  0.00    +0.116 A 
ATOM      7  N   UNL     1      18.191   2.545  88.103  0.00  0.00    -0.223 NA
ATOM      8  C   UNL     1      17.618   2.776  89.340  0.00  0.00    +0.220 A 
ATOM      9  N   UNL     1      16.417   2.193  89.714  0.00  0.00    -0.283 N 
ATOM     36  H   UNL     1      16.030   2.383  90.638  0.00  0.00    +0.155 HD
ATOM     37  N   UNL     1      18.226   3.597  90.222  0.00  0.00    -0.214 NA
BRANCH   4   3
ATOM      1  C   UNL     1      20.604   5.630  93.378  0.00  0.00    +0.020 A 
ATOM      2  C   UNL     1      20.043   4.734  92.393  0.00  0.00    +0.013 A 
ATOM      3  C   UNL     1      19.985   5.115  90.988  0.00  0.00    +0.019 A 
ATOM     38  C   UNL     1      20.508   6.419  90.608  0.00  0.00    +0.120 A 
ATOM     39  N   UNL     1      21.041   7.261  91.579  0.00  0.00    -0.263 NA
ATOM     40  C   UNL     1      21.100   6.907  92.935  0.00  0.00    +0.111 A 
ENDBRANCH   4   3
ENDBRANCH  10   9
BRANCH  12  13
ATOM     13  N   UNL     1      15.113  -2.409  88.346  0.00  0.00    -0.281 N 
ATOM     14  C   UNL     1      14.198  -3.197  89.025  0.00  0.00    +0.248 C 
ATOM     30  O   UNL     1      13.334  -2.763  89.773  0.00  0.00    -0.270 OA
ATOM     31  H   UNL     1      15.896  -2.902  87.915  0.00  0.00    +0.155 HD
BRANCH  14  15
ATOM     15  C   UNL     1      14.261  -4.681  88.862  0.00  0.00    +0.037 A 
ATOM     16  C   UNL     1      15.040  -5.294  87.783  0.00  0.00    +0.013 A 
ATOM     17  C   UNL     1      15.070  -6.728  87.638  0.00  0.00    +0.005 A 
ATOM     18  C   UNL     1      14.319  -7.559  88.576  0.00  0.00    -0.033 A 
ATOM     28  C   UNL     1      13.559  -6.925  89.640  0.00  0.00    +0.005 A 
ATOM     29  C   UNL     1      13.527  -5.520  89.785  0.00  0.00    +0.013 A 
BRANCH  18  19
ATOM     19  C   UNL     1      14.277  -9.096  88.484  0.00  0.00    +0.119 C 
BRANCH  19  20
ATOM     20  N   UNL     1      13.131  -9.789  89.144  0.00  0.00    -0.302 NA
ATOM     21  C   UNL     1      13.543 -10.454  90.460  0.00  0.00    +0.066 C 
ATOM     22  C   UNL     1      12.328 -11.156  91.149  0.00  0.00    -0.064 C 
ATOM     23  N   UNL     1      11.724 -12.183  90.189  0.00  0.00    +0.379 N 
ATOM     24  C   UNL     1      10.617 -12.885  90.854  0.00  0.00    -0.096 C 
ATOM     25  H   UNL     1      12.514 -12.936  89.960  0.00  0.00    -0.082 HD
ATOM     26  C   UNL     1      11.314 -11.531  88.876  0.00  0.00    -0.064 C 
ATOM     27  C   UNL     1      12.523 -10.811  88.215  0.00  0.00    +0.066 C 
ENDBRANCH  19  20
ENDBRANCH  18  19
ENDBRANCH  14  15
ENDBRANCH  12  13
TORSDOF 6
ENDMDL
MODEL 3
REMARK VINA RESULT:      -8.5      3.797     12.350
REMARK  Name = C:\Users\Docking\Desktop\test protocol\1iep_ligandH.pdb
REMARK  8 active torsions:
REMARK  status: ('A' for Active; 'I' for Inactive)
REMARK    1  A    between atoms: _5  and  _11
REMARK    2  A    between atoms: _19  and  _21
REMARK    3  A    between atoms: _22  and  _66
REMARK    4  A    between atoms: _27  and  _30
REMARK    5  A    between atoms: _32  and  _33
REMARK    6  A    between atoms: _38  and  _43
REMARK    7  A    between atoms: _43  and  _46
REMARK    8  A    between atoms: _53  and  _55
REMARK                            x       y       z     vdW  Elec       q    Type
REMARK                         _______ _______ _______ _____ _____    ______ ____
ROOT
ATOM     10  C   UNL     1      15.848   1.768  88.771  0.00  0.00    +0.038 A 
ATOM     11  C   UNL     1      15.846   0.384  89.081  0.00  0.00    +0.047 A 
ATOM     12  C   UNL     1      15.202  -0.582  88.204  0.00  0.00    +0.035 A 
ATOM     32  C   UNL     1      14.573  -0.104  87.018  0.00  0.00    +0.024 A 
ATOM     33  C   UNL     1      14.565   1.300  86.689  0.00  0.00    +0.007 A 
ATOM     34  C   UNL     1      15.196   2.257  87.551  0.00  0.00    -0.029 A 
ATOM     35  C   UNL     1      15.151   3.751  87.151  0.00  0.00    +0.045 C 
ENDROOT
BRANCH  10   9
ATOM      4  C   UNL     1      19.546   4.554  90.035  0.00  0.00    +0.077 A 
ATOM      5  C   UNL     1      20.291   4.199  88.862  0.00  0.00    +0.048 A 
ATOM      6  C   UNL     1      19.690   3.291  87.962  0.00  0.00    +0.116 A 
ATOM      7  N   UNL     1      18.437   2.782  88.225  0.00  0.00    -0.223 NA
ATOM      8  C   UNL     1      17.746   3.144  89.367  0.00  0.00    +0.220 A 
ATOM      9  N   UNL     1      16.481   2.651  89.648  0.00  0.00    -0.283 N 
ATOM     36  H   UNL     1      16.008   2.937  90.505  0.00  0.00    +0.155 HD
ATOM     37  N   UNL     1      18.299   4.009  90.243  0.00  0.00    -0.214 NA
BRANCH   4   3
ATOM      1  C   UNL     1      20.778   6.063  93.428  0.00  0.00    +0.020 A 
ATOM      2  C   UNL     1      20.295   5.106  92.459  0.00  0.00    +0.013 A 
ATOM      3  C   UNL     1      20.045   5.505  91.079  0.00  0.00    +0.019 A 
ATOM     38  C   UNL     1      20.295   6.890  90.710  0.00  0.00    +0.120 A 
ATOM     39  N   UNL     1      20.758   7.789  91.665  0.00  0.00    -0.263 NA
ATOM     40  C   UNL     1      21.001   7.418  92.996  0.00  0.00    +0.111 A 
ENDBRANCH   4   3
ENDBRANCH  10   9
BRANCH  12  13
ATOM     13  N   UNL     1      15.161  -1.999  88.471  0.00  0.00    -0.281 N 
ATOM     14  C   UNL     1      14.079  -2.755  88.893  0.00  0.00    +0.248 C 
ATOM     30  O   UNL     1      13.031  -2.287  89.313  0.00  0.00    -0.270 OA
ATOM     31  H   UNL     1      16.035  -2.506  88.331  0.00  0.00    +0.155 HD
BRANCH  14  15
ATOM     15  C   UNL     1      14.182  -4.245  88.857  0.00  0.00    +0.037 A 
ATOM     16  C   UNL     1      14.970  -4.928  87.828  0.00  0.00    +0.013 A 
ATOM     17  C   UNL     1      15.039  -6.368  87.806  0.00  0.00    +0.005 A 
ATOM     18  C   UNL     1      14.317  -7.135  88.818  0.00  0.00    -0.033 A 
ATOM     28  C   UNL     1      13.546  -6.432  89.830  0.00  0.00    +0.005 A 
ATOM     29  C   UNL     1      13.476  -5.021  89.855  0.00  0.00    +0.013 A 
BRANCH  18  19
ATOM     19  C   UNL     1      14.316  -8.674  88.858  0.00  0.00    +0.119 C 
BRANCH  19  20
ATOM     20  N   UNL     1      15.201  -9.332  89.865  0.00  0.00    -0.302 NA
ATOM     21  C   UNL     1      14.562  -9.364  91.257  0.00  0.00    +0.066 C 
ATOM     22  C   UNL     1      15.491 -10.076  92.293  0.00  0.00    -0.064 C 
ATOM     23  N   UNL     1      16.844  -9.364  92.335  0.00  0.00    +0.379 N 
ATOM     24  C   UNL     1      17.700  -9.995  93.350  0.00  0.00    -0.096 C 
ATOM     25  H   UNL     1      16.663  -8.311  92.652  0.00  0.00    -0.082 HD
ATOM     26  C   UNL     1      17.485  -9.326  90.954  0.00  0.00    -0.064 C 
ATOM     27  C   UNL     1      16.541  -8.642  89.926  0.00  0.00    +0.066 C 
ENDBRANCH  19  20
ENDBRANCH  18  19
ENDBRANCH  14  15
ENDBRANCH  12  13
TORSDOF 6
ENDMDL
MODEL 4
REMARK VINA RESULT:      -8.4      4.754     12.222
REMARK  Name = C:\Users\Docking\Desktop\test protocol\1iep_ligandH.pdb
REMARK  8 active torsions:
REMARK  status: ('A' for Active; 'I' for Inactive)
REMARK    1  A    between atoms: _5  and  _11
REMARK    2  A    between atoms: _19  and  _21
REMARK    3  A    between atoms: _22  and  _66
REMARK    4  A    between atoms: _27  and  _30
REMARK    5  A    between atoms: _32  and  _33
REMARK    6  A    between atoms: _38  and  _43
REMARK    7  A    between atoms: _43  and  _46
REMARK    8  A    between atoms: _53  and  _55
REMARK                            x       y       z     vdW  Elec       q    Type
REMARK                         _______ _______ _______ _____ _____    ______ ____
ROOT
ATOM     10  C   UNL     1      15.728   0.549  88.236  0.00  0.00    +0.038 A 
ATOM     11  C   UNL     1      15.790  -0.828  88.568  0.00  0.00    +0.047 A 
ATOM     12  C   UNL     1      14.765  -1.758  88.118  0.00  0.00    +0.035 A 
ATOM     32  C   UNL     1      13.692  -1.250  87.329  0.00  0.00    +0.024 A 
ATOM     33  C   UNL     1      13.613   0.148  86.984  0.00  0.00    +0.007 A 
ATOM     34  C   UNL     1      14.619   1.070  87.427  0.00  0.00    -0.029 A 
ATOM     35  C   UNL     1      14.480   2.558  87.032  0.00  0.00    +0.045 C 
ENDROOT
BRANCH  10   9
ATOM      4  C   UNL     1      17.882   3.083  91.697  0.00  0.00    +0.077 A 
ATOM      5  C   UNL     1      16.894   2.708  92.668  0.00  0.00    +0.048 A 
ATOM      6  C   UNL     1      15.844   1.867  92.234  0.00  0.00    +0.116 A 
ATOM      7  N   UNL     1      15.796   1.440  90.925  0.00  0.00    -0.223 NA
ATOM      8  C   UNL     1      16.763   1.821  90.014  0.00  0.00    +0.220 A 
ATOM      9  N   UNL     1      16.739   1.397  88.695  0.00  0.00    -0.283 N 
ATOM     36  H   UNL     1      17.467   1.706  88.052  0.00  0.00    +0.155 HD
ATOM     37  N   UNL     1      17.775   2.624  90.403  0.00  0.00    -0.214 NA
BRANCH   4   3
ATOM      1  C   UNL     1      20.673   5.055  93.600  0.00  0.00    +0.020 A 
ATOM      2  C   UNL     1      19.536   4.196  93.359  0.00  0.00    +0.013 A 
ATOM      3  C   UNL     1      19.053   3.963  92.003  0.00  0.00    +0.019 A 
ATOM     38  C   UNL     1      19.749   4.617  90.906  0.00  0.00    +0.120 A 
ATOM     39  N   UNL     1      20.840   5.440  91.169  0.00  0.00    -0.263 NA
ATOM     40  C   UNL     1      21.312   5.674  92.469  0.00  0.00    +0.111 A 
ENDBRANCH   4   3
ENDBRANCH  10   9
BRANCH  12  13
ATOM     13  N   UNL     1      14.771  -3.165  88.430  0.00  0.00    -0.281 N 
ATOM     14  C   UNL     1      13.890  -3.861  89.242  0.00  0.00    +0.248 C 
ATOM     30  O   UNL     1      13.085  -3.337  89.998  0.00  0.00    -0.270 OA
ATOM     31  H   UNL     1      15.515  -3.715  88.001  0.00  0.00    +0.155 HD
BRANCH  14  15
ATOM     15  C   UNL     1      13.917  -5.355  89.223  0.00  0.00    +0.037 A 
ATOM     16  C   UNL     1      14.904  -6.087  88.424  0.00  0.00    +0.013 A 
ATOM     17  C   UNL     1      14.897  -7.529  88.410  0.00  0.00    +0.005 A 
ATOM     18  C   UNL     1      13.900  -8.248  89.199  0.00  0.00    -0.033 A 
ATOM     28  C   UNL     1      12.937  -7.497  89.987  0.00  0.00    +0.005 A 
ATOM     29  C   UNL     1      12.940  -6.084  90.003  0.00  0.00    +0.013 A 
BRANCH  18  19
ATOM     19  C   UNL     1      13.806  -9.785  89.227  0.00  0.00    +0.119 C 
BRANCH  19  20
ATOM     20  N   UNL     1      12.543 -10.383  89.754  0.00  0.00    -0.302 NA
ATOM     21  C   UNL     1      12.790 -11.246  90.995  0.00  0.00    +0.066 C 
ATOM     22  C   UNL     1      11.455 -11.845  91.547  0.00  0.00    -0.064 C 
ATOM     23  N   UNL     1      10.773 -12.660  90.447  0.00  0.00    +0.379 N 
ATOM     24  C   UNL     1       9.547 -13.273  90.980  0.00  0.00    -0.096 C 
ATOM     25  H   UNL     1      11.466 -13.485  90.158  0.00  0.00    -0.082 HD
ATOM     26  C   UNL     1      10.526 -11.811  89.208  0.00  0.00    -0.064 C 
ATOM     27  C   UNL     1      11.854 -11.196  88.686  0.00  0.00    +0.066 C 
ENDBRANCH  19  20
ENDBRANCH  18  19
ENDBRANCH  14  15
ENDBRANCH  12  13
TORSDOF 6
ENDMDL
MODEL 5
REMARK VINA RESULT:      -8.3      5.787      9.196
REMARK  Name = C:\Users\Docking\Desktop\test protocol\1iep_ligandH.pdb
REMARK  8 active torsions:
REMARK  status: ('A' for Active; 'I' for Inactive)
REMARK    1  A    between atoms: _5  and  _11
REMARK    2  A    between atoms: _19  and  _21
REMARK    3  A    between atoms: _22  and  _66
REMARK    4  A    between atoms: _27  and  _30
REMARK    5  A    between atoms: _32  and  _33
REMARK    6  A    between atoms: _38  and  _43
REMARK    7  A    between atoms: _43  and  _46
REMARK    8  A    between atoms: _53  and  _55
REMARK                            x       y       z     vdW  Elec       q    Type
REMARK                         _______ _______ _______ _____ _____    ______ ____
ROOT
ATOM     10  C   UNL     1      15.150  -0.850  88.330  0.00  0.00    +0.038 A 
ATOM     11  C   UNL     1      16.145  -0.223  89.123  0.00  0.00    +0.047 A 
ATOM     12  C   UNL     1      16.232   1.226  89.214  0.00  0.00    +0.035 A 
ATOM     32  C   UNL     1      15.287   2.007  88.487  0.00  0.00    +0.024 A 
ATOM     33  C   UNL     1      14.270   1.386  87.675  0.00  0.00    +0.007 A 
ATOM     34  C   UNL     1      14.181  -0.043  87.579  0.00  0.00    -0.029 A 
ATOM     35  C   UNL     1      13.074  -0.653  86.688  0.00  0.00    +0.045 C 
ENDROOT
BRANCH  10   9
ATOM      4  C   UNL     1      13.298  -5.085  89.623  0.00  0.00    +0.077 A 
ATOM      5  C   UNL     1      12.341  -4.467  90.495  0.00  0.00    +0.048 A 
ATOM      6  C   UNL     1      12.364  -3.057  90.588  0.00  0.00    +0.116 A 
ATOM      7  N   UNL     1      13.279  -2.330  89.858  0.00  0.00    -0.223 NA
ATOM      8  C   UNL     1      14.189  -2.957  89.028  0.00  0.00    +0.220 A 
ATOM      9  N   UNL     1      15.113  -2.245  88.279  0.00  0.00    -0.283 N 
ATOM     36  H   UNL     1      15.772  -2.745  87.683  0.00  0.00    +0.155 HD
ATOM     37  N   UNL     1      14.189  -4.302  88.922  0.00  0.00    -0.214 NA
BRANCH   4   3
ATOM      1  C   UNL     1      14.478  -8.615  88.420  0.00  0.00    +0.020 A 
ATOM      2  C   UNL     1      14.426  -7.181  88.588  0.00  0.00    +0.013 A 
ATOM      3  C   UNL     1      13.397  -6.564  89.415  0.00  0.00    +0.019 A 
ATOM     38  C   UNL     1      12.427  -7.434  90.064  0.00  0.00    +0.120 A 
ATOM     39  N   UNL     1      12.501  -8.811  89.883  0.00  0.00    -0.263 NA
ATOM     40  C   UNL     1      13.487  -9.416  89.088  0.00  0.00    +0.111 A 
ENDBRANCH   4   3
ENDBRANCH  10   9
BRANCH  12  13
ATOM     13  N   UNL     1      17.226   1.919  89.997  0.00  0.00    -0.281 N 
ATOM     14  C   UNL     1      18.353   2.585  89.545  0.00  0.00    +0.248 C 
ATOM     30  O   UNL     1      18.795   2.503  88.409  0.00  0.00    -0.270 OA
ATOM     31  H   UNL     1      17.080   1.918  91.007  0.00  0.00    +0.155 HD
BRANCH  14  15
ATOM     15  C   UNL     1      19.107   3.456  90.497  0.00  0.00    +0.037 A 
ATOM     16  C   UNL     1      18.835   3.423  91.936  0.00  0.00    +0.013 A 
ATOM     17  C   UNL     1      19.565   4.286  92.831  0.00  0.00    +0.005 A 
ATOM     18  C   UNL     1      20.577   5.189  92.288  0.00  0.00    -0.033 A 
ATOM     28  C   UNL     1      20.831   5.197  90.857  0.00  0.00    +0.005 A 
ATOM     29  C   UNL     1      20.116   4.354  89.977  0.00  0.00    +0.013 A 
BRANCH  18  19
ATOM     19  C   UNL     1      21.389   6.160  93.166  0.00  0.00    +0.119 C 
BRANCH  19  20
ATOM     20  N   UNL     1      21.914   7.396  92.512  0.00  0.00    -0.302 NA
ATOM     21  C   UNL     1      23.187   7.908  93.192  0.00  0.00    +0.066 C 
ATOM     22  C   UNL     1      23.735   9.188  92.482  0.00  0.00    -0.064 C 
ATOM     23  N   UNL     1      22.652  10.269  92.477  0.00  0.00    +0.379 N 
ATOM     24  C   UNL     1      23.183  11.493  91.862  0.00  0.00    -0.096 C 
ATOM     25  H   UNL     1      22.403  10.503  93.538  0.00  0.00    -0.082 HD
ATOM     26  C   UNL     1      21.381   9.767  91.805  0.00  0.00    -0.064 C 
ATOM     27  C   UNL     1      20.861   8.477  92.500  0.00  0.00    +0.066 C 
ENDBRANCH  19  20
ENDBRANCH  18  19
ENDBRANCH  14  15
ENDBRANCH  12  13
TORSDOF 6
ENDMDL
