MODEL 1
REMARK VINA RESULT:      -9.1      0.000      0.000
REMARK  Name = C:\Users\Docking\Desktop\test protocol\1iep_ligandH.pdb
REMARK  8 active torsions:
REMARK  status: ('A' for Active; 'I' for Inactive)
REMARK    1  A    between atoms: _5  and  _11
REMARK    2  A    between atoms: _19  and  _21
REMARK    3  A    between atoms: _22  and  _66
REMARK    4  A    between atoms: _27  and  _30
REMARK    5  A    between atoms: _32  and  _33
REMARK    6  A    between atoms: _38  and  _43
REMARK    7  A    between atoms: _43  and  _46
REMARK    8  A    between atoms: _53  and  _55
REMARK                            x       y       z     vdW  Elec       q    Type
REMARK                         _______ _______ _______ _____ _____    ______ ____
ROOT
ATOM     10  C   UNL     1      -5.465   5.647  16.290  0.00  0.00    +0.038 A 
ATOM     11  C   UNL     1      -6.125   6.759  16.872  0.00  0.00    +0.047 A 
ATOM     12  C   UNL     1      -6.848   6.633  18.128  0.00  0.00    +0.035 A 
ATOM     32  C   UNL     1      -6.876   5.359  18.766  0.00  0.00    +0.024 A 
ATOM     33  C   UNL     1      -6.211   4.217  18.188  0.00  0.00    +0.007 A 
ATOM     34  C   UNL     1      -5.499   4.335  16.948  0.00  0.00    -0.029 A 
ATOM     35  C   UNL     1      -4.810   3.076  16.371  0.00  0.00    +0.045 C 
ENDROOT
BRANCH  10   9
ATOM      4  C   UNL     1      -2.279   7.934  13.523  0.00  0.00    +0.077 A 
ATOM      5  C   UNL     1      -1.960   8.870  14.563  0.00  0.00    +0.048 A 
ATOM      6  C   UNL     1      -2.643   8.733  15.792  0.00  0.00    +0.116 A 
ATOM      7  N   UNL     1      -3.574   7.731  15.958  0.00  0.00    -0.223 NA
ATOM      8  C   UNL     1      -3.859   6.846  14.935  0.00  0.00    +0.220 A 
ATOM      9  N   UNL     1      -4.786   5.825  15.083  0.00  0.00    -0.283 N 
ATOM     36  H   UNL     1      -4.973   5.197  14.301  0.00  0.00    +0.155 HD
ATOM     37  N   UNL     1      -3.221   6.956  13.751  0.00  0.00    -0.214 NA
BRANCH   4   3
ATOM      1  C   UNL     1      -0.115   8.949  10.427  0.00  0.00    +0.020 A 
ATOM      2  C   UNL     1      -0.706   8.983  11.745  0.00  0.00    +0.013 A 
ATOM      3  C   UNL     1      -1.639   7.947  12.170  0.00  0.00    +0.019 A 
ATOM     38  C   UNL     1      -1.956   6.883  11.230  0.00  0.00    +0.120 A 
ATOM     39  N   UNL     1      -1.373   6.877   9.967  0.00  0.00    -0.263 NA
ATOM     40  C   UNL     1      -0.475   7.869   9.546  0.00  0.00    +0.111 A 
ENDBRANCH   4   3
ENDBRANCH  10   9
BRANCH  12  13
ATOM     13  N   UNL     1      -7.544   7.725  18.762  0.00  0.00    -0.281 N 
ATOM     14  C   UNL     1      -7.040   8.967  19.113  0.00  0.00    +0.248 C 
ATOM     30  O   UNL     1      -5.851   9.251  19.129  0.00  0.00    -0.270 OA
ATOM     31  H   UNL     1      -8.527   7.563  18.978  0.00  0.00    +0.155 HD
BRANCH  14  15
ATOM     15  C   UNL     1      -7.992  10.044  19.520  0.00  0.00    +0.037 A 
ATOM     16  C   UNL     1      -9.046  10.508  18.615  0.00  0.00    +0.013 A 
ATOM     17  C   UNL     1      -9.941  11.561  19.026  0.00  0.00    +0.005 A 
ATOM     18  C   UNL     1      -9.786  12.156  20.351  0.00  0.00    -0.033 A 
ATOM     28  C   UNL     1      -8.735  11.673  21.231  0.00  0.00    +0.005 A 
ATOM     29  C   UNL     1      -7.855  10.642  20.831  0.00  0.00    +0.013 A 
BRANCH  18  19
ATOM     19  C   UNL     1     -10.683  13.298  20.865  0.00  0.00    +0.119 C 
BRANCH  19  20
ATOM     20  N   UNL     1     -10.856  14.484  19.974  0.00  0.00    -0.302 NA
ATOM     21  C   UNL     1      -9.520  15.156  19.645  0.00  0.00    +0.066 C 
ATOM     22  C   UNL     1      -9.719  16.382  18.695  0.00  0.00    -0.064 C 
ATOM     23  N   UNL     1     -10.680  17.378  19.345  0.00  0.00    +0.379 N 
ATOM     24  C   UNL     1     -10.823  18.558  18.480  0.00  0.00    -0.096 C 
ATOM     25  H   UNL     1     -10.221  17.714  20.303  0.00  0.00    -0.082 HD
ATOM     26  C   UNL     1     -12.010  16.717  19.678  0.00  0.00    -0.064 C 
ATOM     27  C   UNL     1     -11.799  15.483  20.599  0.00  0.00    +0.066 C 
ENDBRANCH  19  20
ENDBRANCH  18  19
ENDBRANCH  14  15
ENDBRANCH  12  13
TORSDOF 6
ENDMDL
MODEL 2
REMARK VINA RESULT:      -9.0      1.570      2.021
REMARK  Name = C:\Users\Docking\Desktop\test protocol\1iep_ligandH.pdb
REMARK  8 active torsions:
REMARK  status: ('A' for Active; 'I' for Inactive)
REMARK    1  A    between atoms: _5  and  _11
REMARK    2  A    between atoms: _19  and  _21
REMARK    3  A    between atoms: _22  and  _66
REMARK    4  A    between atoms: _27  and  _30
REMARK    5  A    between atoms: _32  and  _33
REMARK    6  A    between atoms: _38  and  _43
REMARK    7  A    between atoms: _43  and  _46
REMARK    8  A    between atoms: _53  and  _55
REMARK                            x       y       z     vdW  Elec       q    Type
REMARK                         _______ _______ _______ _____ _____    ______ ____
ROOT
ATOM     10  C   UNL     1      -5.112   5.168  16.133  0.00  0.00    +0.038 A 
ATOM     11  C   UNL     1      -6.110   6.078  16.566  0.00  0.00    +0.047 A 
ATOM     12  C   UNL     1      -6.841   5.860  17.805  0.00  0.00    +0.035 A 
ATOM     32  C   UNL     1      -6.527   4.705  18.580  0.00  0.00    +0.024 A 
ATOM     33  C   UNL     1      -5.516   3.769  18.154  0.00  0.00    +0.007 A 
ATOM     34  C   UNL     1      -4.794   3.978  16.931  0.00  0.00    -0.029 A 
ATOM     35  C   UNL     1      -3.725   2.939  16.520  0.00  0.00    +0.045 C 
ENDROOT
BRANCH  10   9
ATOM      4  C   UNL     1      -2.194   7.830  13.406  0.00  0.00    +0.077 A 
ATOM      5  C   UNL     1      -2.010   8.801  14.446  0.00  0.00    +0.048 A 
ATOM      6  C   UNL     1      -2.691   8.582  15.665  0.00  0.00    +0.116 A 
ATOM      7  N   UNL     1      -3.491   7.472  15.821  0.00  0.00    -0.223 NA
ATOM      8  C   UNL     1      -3.647   6.555  14.797  0.00  0.00    +0.220 A 
ATOM      9  N   UNL     1      -4.441   5.427  14.935  0.00  0.00    -0.283 N 
ATOM     36  H   UNL     1      -4.537   4.779  14.154  0.00  0.00    +0.155 HD
ATOM     37  N   UNL     1      -3.010   6.742  13.623  0.00  0.00    -0.214 NA
BRANCH   4   3
ATOM      1  C   UNL     1       0.001   9.020  10.394  0.00  0.00    +0.020 A 
ATOM      2  C   UNL     1      -0.604   8.979  11.706  0.00  0.00    +0.013 A 
ATOM      3  C   UNL     1      -1.539   7.920  12.062  0.00  0.00    +0.019 A 
ATOM     38  C   UNL     1      -1.844   6.909  11.061  0.00  0.00    +0.120 A 
ATOM     39  N   UNL     1      -1.247   6.975   9.805  0.00  0.00    -0.263 NA
ATOM     40  C   UNL     1      -0.347   7.990   9.451  0.00  0.00    +0.111 A 
ENDBRANCH   4   3
ENDBRANCH  10   9
BRANCH  12  13
ATOM     13  N   UNL     1      -7.870   6.744  18.292  0.00  0.00    -0.281 N 
ATOM     14  C   UNL     1      -7.751   8.080  18.638  0.00  0.00    +0.248 C 
ATOM     30  O   UNL     1      -6.687   8.664  18.784  0.00  0.00    -0.270 OA
ATOM     31  H   UNL     1      -8.799   6.336  18.393  0.00  0.00    +0.155 HD
BRANCH  14  15
ATOM     15  C   UNL     1      -8.993   8.880  18.868  0.00  0.00    +0.037 A 
ATOM     16  C   UNL     1     -10.256   8.234  19.233  0.00  0.00    +0.013 A 
ATOM     17  C   UNL     1     -11.443   9.027  19.433  0.00  0.00    +0.005 A 
ATOM     18  C   UNL     1     -11.371  10.477  19.269  0.00  0.00    -0.033 A 
ATOM     28  C   UNL     1     -10.104  11.092  18.912  0.00  0.00    +0.005 A 
ATOM     29  C   UNL     1      -8.939  10.318  18.714  0.00  0.00    +0.013 A 
BRANCH  18  19
ATOM     19  C   UNL     1     -12.592  11.399  19.442  0.00  0.00    +0.119 C 
BRANCH  19  20
ATOM     20  N   UNL     1     -12.362  12.723  20.093  0.00  0.00    -0.302 NA
ATOM     21  C   UNL     1     -13.156  12.869  21.395  0.00  0.00    +0.066 C 
ATOM     22  C   UNL     1     -12.886  14.251  22.074  0.00  0.00    -0.064 C 
ATOM     23  N   UNL     1     -13.237  15.374  21.097  0.00  0.00    +0.379 N 
ATOM     24  C   UNL     1     -13.040  16.675  21.753  0.00  0.00    -0.096 C 
ATOM     25  H   UNL     1     -14.320  15.281  20.850  0.00  0.00    -0.082 HD
ATOM     26  C   UNL     1     -12.454  15.235  19.799  0.00  0.00    -0.064 C 
ATOM     27  C   UNL     1     -12.706  13.847  19.147  0.00  0.00    +0.066 C 
ENDBRANCH  19  20
ENDBRANCH  18  19
ENDBRANCH  14  15
ENDBRANCH  12  13
TORSDOF 6
ENDMDL
MODEL 3
REMARK VINA RESULT:      -8.8      5.178      6.067
REMARK  Name = C:\Users\Docking\Desktop\test protocol\1iep_ligandH.pdb
REMARK  8 active torsions:
REMARK  status: ('A' for Active; 'I' for Inactive)
REMARK    1  A    between atoms: _5  and  _11
REMARK    2  A    between atoms: _19  and  _21
REMARK    3  A    between atoms: _22  and  _66
REMARK    4  A    between atoms: _27  and  _30
REMARK    5  A    between atoms: _32  and  _33
REMARK    6  A    between atoms: _38  and  _43
REMARK    7  A    between atoms: _43  and  _46
REMARK    8  A    between atoms: _53  and  _55
REMARK                            x       y       z     vdW  Elec       q    Type
REMARK                         _______ _______ _______ _____ _____    ______ ____
ROOT
ATOM     10  C   UNL     1      -4.366   3.937  16.296  0.00  0.00    +0.038 A 
ATOM     11  C   UNL     1      -5.717   4.267  16.572  0.00  0.00    +0.047 A 
ATOM     12  C   UNL     1      -6.383   3.774  17.768  0.00  0.00    +0.035 A 
ATOM     32  C   UNL     1      -5.641   2.949  18.663  0.00  0.00    +0.024 A 
ATOM     33  C   UNL     1      -4.267   2.602  18.397  0.00  0.00    +0.007 A 
ATOM     34  C   UNL     1      -3.606   3.083  17.218  0.00  0.00    -0.029 A 
ATOM     35  C   UNL     1      -2.134   2.675  16.980  0.00  0.00    +0.045 C 
ENDROOT
BRANCH  10   9
ATOM      4  C   UNL     1      -2.224   7.437  13.806  0.00  0.00    +0.077 A 
ATOM      5  C   UNL     1      -2.311   8.353  14.906  0.00  0.00    +0.048 A 
ATOM      6  C   UNL     1      -2.921   7.887  16.092  0.00  0.00    +0.116 A 
ATOM      7  N   UNL     1      -3.403   6.598  16.162  0.00  0.00    -0.223 NA
ATOM      8  C   UNL     1      -3.305   5.740  15.082  0.00  0.00    +0.220 A 
ATOM      9  N   UNL     1      -3.776   4.438  15.133  0.00  0.00    -0.283 N 
ATOM     36  H   UNL     1      -3.691   3.838  14.313  0.00  0.00    +0.155 HD
ATOM     37  N   UNL     1      -2.728   6.162  13.938  0.00  0.00    -0.214 NA
BRANCH   4   3
ATOM      1  C   UNL     1      -1.115   7.312  10.057  0.00  0.00    +0.020 A 
ATOM      2  C   UNL     1      -1.733   6.934  11.307  0.00  0.00    +0.013 A 
ATOM      3  C   UNL     1      -1.604   7.780  12.487  0.00  0.00    +0.019 A 
ATOM     38  C   UNL     1      -0.839   9.011  12.367  0.00  0.00    +0.120 A 
ATOM     39  N   UNL     1      -0.254   9.349  11.150  0.00  0.00    -0.263 NA
ATOM     40  C   UNL     1      -0.369   8.541  10.009  0.00  0.00    +0.111 A 
ENDBRANCH   4   3
ENDBRANCH  10   9
BRANCH  12  13
ATOM     13  N   UNL     1      -7.755   4.070  18.097  0.00  0.00    -0.281 N 
ATOM     14  C   UNL     1      -8.323   5.308  18.348  0.00  0.00    +0.248 C 
ATOM     30  O   UNL     1      -7.687   6.334  18.538  0.00  0.00    -0.270 OA
ATOM     31  H   UNL     1      -8.385   3.269  18.152  0.00  0.00    +0.155 HD
BRANCH  14  15
ATOM     15  C   UNL     1      -9.812   5.421  18.412  0.00  0.00    +0.037 A 
ATOM     16  C   UNL     1     -10.676   4.308  18.008  0.00  0.00    +0.013 A 
ATOM     17  C   UNL     1     -12.110   4.449  18.063  0.00  0.00    +0.005 A 
ATOM     18  C   UNL     1     -12.688   5.708  18.525  0.00  0.00    -0.033 A 
ATOM     28  C   UNL     1     -11.808   6.793  18.924  0.00  0.00    +0.005 A 
ATOM     29  C   UNL     1     -10.403   6.660  18.871  0.00  0.00    +0.013 A 
BRANCH  18  19
ATOM     19  C   UNL     1     -14.207   5.954  18.596  0.00  0.00    +0.119 C 
BRANCH  19  20
ATOM     20  N   UNL     1     -14.911   6.261  17.314  0.00  0.00    -0.302 NA
ATOM     21  C   UNL     1     -15.124   7.765  17.122  0.00  0.00    +0.066 C 
ATOM     22  C   UNL     1     -15.840   8.070  15.766  0.00  0.00    -0.064 C 
ATOM     23  N   UNL     1     -17.175   7.323  15.720  0.00  0.00    +0.379 N 
ATOM     24  C   UNL     1     -17.878   7.653  14.471  0.00  0.00    -0.096 C 
ATOM     25  H   UNL     1     -17.798   7.692  16.567  0.00  0.00    -0.082 HD
ATOM     26  C   UNL     1     -16.973   5.827  15.913  0.00  0.00    -0.064 C 
ATOM     27  C   UNL     1     -16.233   5.537  17.249  0.00  0.00    +0.066 C 
ENDBRANCH  19  20
ENDBRANCH  18  19
ENDBRANCH  14  15
ENDBRANCH  12  13
TORSDOF 6
ENDMDL
MODEL 4
REMARK VINA RESULT:      -8.8      2.635      3.475
REMARK  Name = C:\Users\Docking\Desktop\test protocol\1iep_ligandH.pdb
REMARK  8 active torsions:
REMARK  status: ('A' for Active; 'I' for Inactive)
REMARK    1  A    between atoms: _5  and  _11
REMARK    2  A    between atoms: _19  and  _21
REMARK    3  A    between atoms: _22  and  _66
REMARK    4  A    between atoms: _27  and  _30
REMARK    5  A    between atoms: _32  and  _33
REMARK    6  A    between atoms: _38  and  _43
REMARK    7  A    between atoms: _43  and  _46
REMARK    8  A    between atoms: _53  and  _55
REMARK                            x       y       z     vdW  Elec       q    Type
REMARK                         _______ _______ _______ _____ _____    ______ ____
ROOT
ATOM     10  C   UNL     1      -5.281   5.276  16.210  0.00  0.00    +0.038 A 
ATOM     11  C   UNL     1      -6.273   6.205  16.617  0.00  0.00    +0.047 A 
ATOM     12  C   UNL     1      -7.019   6.017  17.851  0.00  0.00    +0.035 A 
ATOM     32  C   UNL     1      -6.728   4.873  18.649  0.00  0.00    +0.024 A 
ATOM     33  C   UNL     1      -5.724   3.918  18.251  0.00  0.00    +0.007 A 
ATOM     34  C   UNL     1      -4.987   4.096  17.033  0.00  0.00    -0.029 A 
ATOM     35  C   UNL     1      -3.926   3.037  16.652  0.00  0.00    +0.045 C 
ENDROOT
BRANCH  10   9
ATOM      4  C   UNL     1      -2.296   7.849  13.472  0.00  0.00    +0.077 A 
ATOM      5  C   UNL     1      -2.109   8.834  14.498  0.00  0.00    +0.048 A 
ATOM      6  C   UNL     1      -2.805   8.645  15.713  0.00  0.00    +0.116 A 
ATOM      7  N   UNL     1      -3.623   7.549  15.879  0.00  0.00    -0.223 NA
ATOM      8  C   UNL     1      -3.783   6.619  14.868  0.00  0.00    +0.220 A 
ATOM      9  N   UNL     1      -4.595   5.505  15.016  0.00  0.00    -0.283 N 
ATOM     36  H   UNL     1      -4.692   4.846  14.244  0.00  0.00    +0.155 HD
ATOM     37  N   UNL     1      -3.131   6.777  13.698  0.00  0.00    -0.214 NA
BRANCH   4   3
ATOM      1  C   UNL     1      -0.091   8.985  10.447  0.00  0.00    +0.020 A 
ATOM      2  C   UNL     1      -0.711   8.975  11.751  0.00  0.00    +0.013 A 
ATOM      3  C   UNL     1      -1.627   7.908  12.133  0.00  0.00    +0.019 A 
ATOM     38  C   UNL     1      -1.895   6.855  11.165  0.00  0.00    +0.120 A 
ATOM     39  N   UNL     1      -1.284   6.891   9.915  0.00  0.00    -0.263 NA
ATOM     40  C   UNL     1      -0.403   7.915   9.536  0.00  0.00    +0.111 A 
ENDBRANCH   4   3
ENDBRANCH  10   9
BRANCH  12  13
ATOM     13  N   UNL     1      -8.043   6.923  18.310  0.00  0.00    -0.281 N 
ATOM     14  C   UNL     1      -7.885   8.208  18.802  0.00  0.00    +0.248 C 
ATOM     30  O   UNL     1      -6.813   8.699  19.122  0.00  0.00    -0.270 OA
ATOM     31  H   UNL     1      -9.001   6.573  18.268  0.00  0.00    +0.155 HD
BRANCH  14  15
ATOM     15  C   UNL     1      -9.095   9.068  18.976  0.00  0.00    +0.037 A 
ATOM     16  C   UNL     1     -10.318   8.544  19.589  0.00  0.00    +0.013 A 
ATOM     17  C   UNL     1     -11.477   9.390  19.729  0.00  0.00    +0.005 A 
ATOM     18  C   UNL     1     -11.416  10.772  19.257  0.00  0.00    -0.033 A 
ATOM     28  C   UNL     1     -10.188  11.267  18.658  0.00  0.00    +0.005 A 
ATOM     29  C   UNL     1      -9.051  10.441  18.517  0.00  0.00    +0.013 A 
BRANCH  18  19
ATOM     19  C   UNL     1     -12.611  11.739  19.348  0.00  0.00    +0.119 C 
BRANCH  19  20
ATOM     20  N   UNL     1     -13.868  11.218  19.962  0.00  0.00    -0.302 NA
ATOM     21  C   UNL     1     -15.112  11.654  19.182  0.00  0.00    +0.066 C 
ATOM     22  C   UNL     1     -16.417  11.081  19.826  0.00  0.00    -0.064 C 
ATOM     23  N   UNL     1     -16.505  11.535  21.284  0.00  0.00    +0.379 N 
ATOM     24  C   UNL     1     -17.759  11.046  21.875  0.00  0.00    -0.096 C 
ATOM     25  H   UNL     1     -16.540  12.649  21.289  0.00  0.00    -0.082 HD
ATOM     26  C   UNL     1     -15.271  11.108  22.066  0.00  0.00    -0.064 C 
ATOM     27  C   UNL     1     -13.978  11.658  21.401  0.00  0.00    +0.066 C 
ENDBRANCH  19  20
ENDBRANCH  18  19
ENDBRANCH  14  15
ENDBRANCH  12  13
TORSDOF 6
ENDMDL
MODEL 5
REMARK VINA RESULT:      -8.6      3.902      4.888
REMARK  Name = C:\Users\Docking\Desktop\test protocol\1iep_ligandH.pdb
REMARK  8 active torsions:
REMARK  status: ('A' for Active; 'I' for Inactive)
REMARK    1  A    between atoms: _5  and  _11
REMARK    2  A    between atoms: _19  and  _21
REMARK    3  A    between atoms: _22  and  _66
REMARK    4  A    between atoms: _27  and  _30
REMARK    5  A    between atoms: _32  and  _33
REMARK    6  A    between atoms: _38  and  _43
REMARK    7  A    between atoms: _43  and  _46
REMARK    8  A    between atoms: _53  and  _55
REMARK                            x       y       z     vdW  Elec       q    Type
REMARK                         _______ _______ _______ _____ _____    ______ ____
ROOT
ATOM     10  C   UNL     1      -4.949   4.974  16.476  0.00  0.00    +0.038 A 
ATOM     11  C   UNL     1      -6.162   5.616  16.836  0.00  0.00    +0.047 A 
ATOM     12  C   UNL     1      -6.817   5.330  18.103  0.00  0.00    +0.035 A 
ATOM     32  C   UNL     1      -6.208   4.386  18.980  0.00  0.00    +0.024 A 
ATOM     33  C   UNL     1      -4.977   3.723  18.630  0.00  0.00    +0.007 A 
ATOM     34  C   UNL     1      -4.327   4.000  17.380  0.00  0.00    -0.029 A 
ATOM     35  C   UNL     1      -3.012   3.255  17.054  0.00  0.00    +0.045 C 
ENDROOT
BRANCH  10   9
ATOM      4  C   UNL     1      -2.128   7.691  13.702  0.00  0.00    +0.077 A 
ATOM      5  C   UNL     1      -1.817   8.579  14.785  0.00  0.00    +0.048 A 
ATOM      6  C   UNL     1      -2.409   8.305  16.039  0.00  0.00    +0.116 A 
ATOM      7  N   UNL     1      -3.248   7.222  16.186  0.00  0.00    -0.223 NA
ATOM      8  C   UNL     1      -3.529   6.387  15.120  0.00  0.00    +0.220 A 
ATOM      9  N   UNL     1      -4.363   5.287  15.248  0.00  0.00    -0.283 N 
ATOM     36  H   UNL     1      -4.551   4.700  14.435  0.00  0.00    +0.155 HD
ATOM     37  N   UNL     1      -2.977   6.627  13.913  0.00  0.00    -0.214 NA
BRANCH   4   3
ATOM      1  C   UNL     1      -0.210   9.058  10.579  0.00  0.00    +0.020 A 
ATOM      2  C   UNL     1      -0.716   8.955  11.928  0.00  0.00    +0.013 A 
ATOM      3  C   UNL     1      -1.578   7.846  12.318  0.00  0.00    +0.019 A 
ATOM     38  C   UNL     1      -1.912   6.851  11.311  0.00  0.00    +0.120 A 
ATOM     39  N   UNL     1      -1.411   6.977  10.019  0.00  0.00    -0.263 NA
ATOM     40  C   UNL     1      -0.582   8.040   9.631  0.00  0.00    +0.111 A 
ENDBRANCH   4   3
ENDBRANCH  10   9
BRANCH  12  13
ATOM     13  N   UNL     1      -8.053   5.945  18.519  0.00  0.00    -0.281 N 
ATOM     14  C   UNL     1      -8.347   7.296  18.602  0.00  0.00    +0.248 C 
ATOM     30  O   UNL     1      -7.516   8.189  18.533  0.00  0.00    -0.270 OA
ATOM     31  H   UNL     1      -8.803   5.306  18.786  0.00  0.00    +0.155 HD
BRANCH  14  15
ATOM     15  C   UNL     1      -9.767   7.715  18.804  0.00  0.00    +0.037 A 
ATOM     16  C   UNL     1     -10.116   9.111  19.082  0.00  0.00    +0.013 A 
ATOM     17  C   UNL     1     -11.492   9.485  19.290  0.00  0.00    +0.005 A 
ATOM     18  C   UNL     1     -12.531   8.461  19.219  0.00  0.00    -0.033 A 
ATOM     28  C   UNL     1     -12.158   7.085  18.937  0.00  0.00    +0.005 A 
ATOM     29  C   UNL     1     -10.810   6.714  18.733  0.00  0.00    +0.013 A 
BRANCH  18  19
ATOM     19  C   UNL     1     -14.023   8.766  19.449  0.00  0.00    +0.119 C 
BRANCH  19  20
ATOM     20  N   UNL     1     -14.918   8.741  18.254  0.00  0.00    -0.302 NA
ATOM     21  C   UNL     1     -15.884   9.929  18.233  0.00  0.00    +0.066 C 
ATOM     22  C   UNL     1     -16.797   9.899  16.965  0.00  0.00    -0.064 C 
ATOM     23  N   UNL     1     -17.565   8.577  16.924  0.00  0.00    +0.379 N 
ATOM     24  C   UNL     1     -18.468   8.570  15.764  0.00  0.00    -0.096 C 
ATOM     25  H   UNL     1     -18.194   8.523  17.843  0.00  0.00    -0.082 HD
ATOM     26  C   UNL     1     -16.613   7.390  16.946  0.00  0.00    -0.064 C 
ATOM     27  C   UNL     1     -15.690   7.445  18.196  0.00  0.00    +0.066 C 
ENDBRANCH  19  20
ENDBRANCH  18  19
ENDBRANCH  14  15
ENDBRANCH  12  13
TORSDOF 6
ENDMDL
