MODEL 1
REMARK VINA RESULT:      -9.7      0.000      0.000
REMARK  Name = C:\Users\Docking\Desktop\test protocol\1iep_ligandH.pdb
REMARK  8 active torsions:
REMARK  status: ('A' for Active; 'I' for Inactive)
REMARK    1  A    between atoms: _5  and  _11
REMARK    2  A    between atoms: _19  and  _21
REMARK    3  A    between atoms: _22  and  _66
REMARK    4  A    between atoms: _27  and  _30
REMARK    5  A    between atoms: _32  and  _33
REMARK    6  A    between atoms: _38  and  _43
REMARK    7  A    between atoms: _43  and  _46
REMARK    8  A    between atoms: _53  and  _55
REMARK                            x       y       z     vdW  Elec       q    Type
REMARK                         _______ _______ _______ _____ _____    ______ ____
ROOT
ATOM     10  C   UNL     1      35.670   8.211  85.056  0.00  0.00    +0.038 A 
ATOM     11  C   UNL     1      34.737   8.715  85.998  0.00  0.00    +0.047 A 
ATOM     12  C   UNL     1      33.337   8.898  85.647  0.00  0.00    +0.035 A 
ATOM     32  C   UNL     1      32.922   8.555  84.327  0.00  0.00    +0.024 A 
ATOM     33  C   UNL     1      33.857   8.043  83.357  0.00  0.00    +0.007 A 
ATOM     34  C   UNL     1      35.239   7.863  83.696  0.00  0.00    -0.029 A 
ATOM     35  C   UNL     1      36.198   7.316  82.614  0.00  0.00    +0.045 C 
ENDROOT
BRANCH  10   9
ATOM      4  C   UNL     1      39.194   5.748  87.189  0.00  0.00    +0.077 A 
ATOM      5  C   UNL     1      38.302   4.696  87.581  0.00  0.00    +0.048 A 
ATOM      6  C   UNL     1      36.942   4.830  87.221  0.00  0.00    +0.116 A 
ATOM      7  N   UNL     1      36.518   5.938  86.520  0.00  0.00    -0.223 NA
ATOM      8  C   UNL     1      37.405   6.936  86.158  0.00  0.00    +0.220 A 
ATOM      9  N   UNL     1      37.002   8.055  85.446  0.00  0.00    -0.283 N 
ATOM     36  H   UNL     1      37.685   8.772  85.205  0.00  0.00    +0.155 HD
ATOM     37  N   UNL     1      38.708   6.832  86.492  0.00  0.00    -0.214 NA
BRANCH   4   3
ATOM      1  C   UNL     1      43.087   5.763  86.804  0.00  0.00    +0.020 A 
ATOM      2  C   UNL     1      41.685   5.761  86.457  0.00  0.00    +0.013 A 
ATOM      3  C   UNL     1      40.660   5.750  87.493  0.00  0.00    +0.019 A 
ATOM     38  C   UNL     1      41.092   5.740  88.883  0.00  0.00    +0.120 A 
ATOM     39  N   UNL     1      42.449   5.740  89.188  0.00  0.00    -0.263 NA
ATOM     40  C   UNL     1      43.444   5.749  88.198  0.00  0.00    +0.111 A 
ENDBRANCH   4   3
ENDBRANCH  10   9
BRANCH  12  13
ATOM     13  N   UNL     1      32.346   9.413  86.559  0.00  0.00    -0.281 N 
ATOM     14  C   UNL     1      31.092   8.894  86.835  0.00  0.00    +0.248 C 
ATOM     30  O   UNL     1      30.545   8.021  86.178  0.00  0.00    -0.270 OA
ATOM     31  H   UNL     1      32.600  10.264  87.061  0.00  0.00    +0.155 HD
BRANCH  14  15
ATOM     15  C   UNL     1      30.329   9.432  88.003  0.00  0.00    +0.037 A 
ATOM     16  C   UNL     1      30.311  10.866  88.303  0.00  0.00    +0.013 A 
ATOM     17  C   UNL     1      29.582  11.356  89.445  0.00  0.00    +0.005 A 
ATOM     18  C   UNL     1      28.862  10.411  90.295  0.00  0.00    -0.033 A 
ATOM     28  C   UNL     1      28.892   8.994  89.971  0.00  0.00    +0.005 A 
ATOM     29  C   UNL     1      29.607   8.510  88.853  0.00  0.00    +0.013 A 
BRANCH  18  19
ATOM     19  C   UNL     1      28.074  10.843  91.546  0.00  0.00    +0.119 C 
BRANCH  19  20
ATOM     20  N   UNL     1      26.616  10.525  91.580  0.00  0.00    -0.302 NA
ATOM     21  C   UNL     1      25.771  11.742  91.969  0.00  0.00    +0.066 C 
ATOM     22  C   UNL     1      24.246  11.397  91.976  0.00  0.00    -0.064 C 
ATOM     23  N   UNL     1      23.994  10.233  92.937  0.00  0.00    +0.379 N 
ATOM     24  C   UNL     1      22.553   9.945  92.990  0.00  0.00    -0.096 C 
ATOM     25  H   UNL     1      24.312  10.560  93.954  0.00  0.00    -0.082 HD
ATOM     26  C   UNL     1      24.832   9.020  92.559  0.00  0.00    -0.064 C 
ATOM     27  C   UNL     1      26.343   9.381  92.525  0.00  0.00    +0.066 C 
ENDBRANCH  19  20
ENDBRANCH  18  19
ENDBRANCH  14  15
ENDBRANCH  12  13
TORSDOF 6
ENDMDL
MODEL 2
REMARK VINA RESULT:      -9.2      2.078     12.664
REMARK  Name = C:\Users\Docking\Desktop\test protocol\1iep_ligandH.pdb
REMARK  8 active torsions:
REMARK  status: ('A' for Active; 'I' for Inactive)
REMARK    1  A    between atoms: _5  and  _11
REMARK    2  A    between atoms: _19  and  _21
REMARK    3  A    between atoms: _22  and  _66
REMARK    4  A    between atoms: _27  and  _30
REMARK    5  A    between atoms: _32  and  _33
REMARK    6  A    between atoms: _38  and  _43
REMARK    7  A    between atoms: _43  and  _46
REMARK    8  A    between atoms: _53  and  _55
REMARK                            x       y       z     vdW  Elec       q    Type
REMARK                         _______ _______ _______ _____ _____    ______ ____
ROOT
ATOM     10  C   UNL     1      30.918   9.751  85.594  0.00  0.00    +0.038 A 
ATOM     11  C   UNL     1      32.079   9.011  85.935  0.00  0.00    +0.047 A 
ATOM     12  C   UNL     1      32.917   8.411  84.909  0.00  0.00    +0.035 A 
ATOM     32  C   UNL     1      32.545   8.587  83.544  0.00  0.00    +0.024 A 
ATOM     33  C   UNL     1      31.368   9.336  83.180  0.00  0.00    +0.007 A 
ATOM     34  C   UNL     1      30.535   9.927  84.188  0.00  0.00    -0.029 A 
ATOM     35  C   UNL     1      29.282  10.714  83.740  0.00  0.00    +0.045 C 
ENDROOT
BRANCH  10   9
ATOM      4  C   UNL     1      27.524   9.452  88.975  0.00  0.00    +0.077 A 
ATOM      5  C   UNL     1      27.240   8.084  88.653  0.00  0.00    +0.048 A 
ATOM      6  C   UNL     1      27.984   7.496  87.605  0.00  0.00    +0.116 A 
ATOM      7  N   UNL     1      28.939   8.231  86.938  0.00  0.00    -0.223 NA
ATOM      8  C   UNL     1      29.188   9.550  87.273  0.00  0.00    +0.220 A 
ATOM      9  N   UNL     1      30.149  10.305  86.620  0.00  0.00    -0.283 N 
ATOM     36  H   UNL     1      30.297  11.277  86.893  0.00  0.00    +0.155 HD
ATOM     37  N   UNL     1      28.489  10.134  88.269  0.00  0.00    -0.214 NA
BRANCH   4   3
ATOM      1  C   UNL     1      26.806  11.557  92.194  0.00  0.00    +0.020 A 
ATOM      2  C   UNL     1      27.530  10.834  91.173  0.00  0.00    +0.013 A 
ATOM      3  C   UNL     1      26.824  10.212  90.059  0.00  0.00    +0.019 A 
ATOM     38  C   UNL     1      25.376  10.342  90.007  0.00  0.00    +0.120 A 
ATOM     39  N   UNL     1      24.706  11.043  91.005  0.00  0.00    -0.263 NA
ATOM     40  C   UNL     1      25.374  11.644  92.082  0.00  0.00    +0.111 A 
ENDBRANCH   4   3
ENDBRANCH  10   9
BRANCH  12  13
ATOM     13  N   UNL     1      34.103   7.642  85.195  0.00  0.00    -0.281 N 
ATOM     14  C   UNL     1      35.291   8.085  85.752  0.00  0.00    +0.248 C 
ATOM     30  O   UNL     1      35.592   9.261  85.893  0.00  0.00    -0.270 OA
ATOM     31  H   UNL     1      34.061   6.651  84.958  0.00  0.00    +0.155 HD
BRANCH  14  15
ATOM     15  C   UNL     1      36.297   7.076  86.206  0.00  0.00    +0.037 A 
ATOM     16  C   UNL     1      35.883   5.764  86.708  0.00  0.00    +0.013 A 
ATOM     17  C   UNL     1      36.872   4.815  87.155  0.00  0.00    +0.005 A 
ATOM     18  C   UNL     1      38.287   5.176  87.099  0.00  0.00    -0.033 A 
ATOM     28  C   UNL     1      38.670   6.483  86.591  0.00  0.00    +0.005 A 
ATOM     29  C   UNL     1      37.703   7.416  86.154  0.00  0.00    +0.013 A 
BRANCH  18  19
ATOM     19  C   UNL     1      39.409   4.235  87.575  0.00  0.00    +0.119 C 
BRANCH  19  20
ATOM     20  N   UNL     1      40.770   4.826  87.744  0.00  0.00    -0.302 NA
ATOM     21  C   UNL     1      41.852   3.982  87.064  0.00  0.00    +0.066 C 
ATOM     22  C   UNL     1      43.266   4.626  87.232  0.00  0.00    -0.064 C 
ATOM     23  N   UNL     1      43.571   4.799  88.721  0.00  0.00    +0.379 N 
ATOM     24  C   UNL     1      44.924   5.350  88.884  0.00  0.00    -0.096 C 
ATOM     25  H   UNL     1      43.560   3.786  89.188  0.00  0.00    -0.082 HD
ATOM     26  C   UNL     1      42.500   5.634  89.406  0.00  0.00    -0.064 C 
ATOM     27  C   UNL     1      41.094   5.001  89.208  0.00  0.00    +0.066 C 
ENDBRANCH  19  20
ENDBRANCH  18  19
ENDBRANCH  14  15
ENDBRANCH  12  13
TORSDOF 6
ENDMDL
MODEL 3
REMARK VINA RESULT:      -8.7      2.640     12.038
REMARK  Name = C:\Users\Docking\Desktop\test protocol\1iep_ligandH.pdb
REMARK  8 active torsions:
REMARK  status: ('A' for Active; 'I' for Inactive)
REMARK    1  A    between atoms: _5  and  _11
REMARK    2  A    between atoms: _19  and  _21
REMARK    3  A    between atoms: _22  and  _66
REMARK    4  A    between atoms: _27  and  _30
REMARK    5  A    between atoms: _32  and  _33
REMARK    6  A    between atoms: _38  and  _43
REMARK    7  A    between atoms: _43  and  _46
REMARK    8  A    between atoms: _53  and  _55
REMARK                            x       y       z     vdW  Elec       q    Type
REMARK                         _______ _______ _______ _____ _____    ______ ____
ROOT
ATOM     10  C   UNL     1      30.510   9.814  85.969  0.00  0.00    +0.038 A 
ATOM     11  C   UNL     1      31.685   9.054  86.201  0.00  0.00    +0.047 A 
ATOM     12  C   UNL     1      32.551   8.655  85.103  0.00  0.00    +0.035 A 
ATOM     32  C   UNL     1      32.192   9.049  83.781  0.00  0.00    +0.024 A 
ATOM     33  C   UNL     1      31.001   9.820  83.527  0.00  0.00    +0.007 A 
ATOM     34  C   UNL     1      30.141  10.215  84.606  0.00  0.00    -0.029 A 
ATOM     35  C   UNL     1      28.873  11.036  84.275  0.00  0.00    +0.045 C 
ENDROOT
BRANCH  10   9
ATOM      4  C   UNL     1      27.164   8.832  89.267  0.00  0.00    +0.077 A 
ATOM      5  C   UNL     1      26.965   7.506  88.757  0.00  0.00    +0.048 A 
ATOM      6  C   UNL     1      27.738   7.118  87.640  0.00  0.00    +0.116 A 
ATOM      7  N   UNL     1      28.641   7.999  87.083  0.00  0.00    -0.223 NA
ATOM      8  C   UNL     1      28.807   9.271  87.599  0.00  0.00    +0.220 A 
ATOM      9  N   UNL     1      29.714  10.170  87.060  0.00  0.00    -0.283 N 
ATOM     36  H   UNL     1      29.802  11.102  87.465  0.00  0.00    +0.155 HD
ATOM     37  N   UNL     1      28.079   9.666  88.665  0.00  0.00    -0.214 NA
BRANCH   4   3
ATOM      1  C   UNL     1      25.900  11.224  92.093  0.00  0.00    +0.020 A 
ATOM      2  C   UNL     1      26.642  10.736  90.953  0.00  0.00    +0.013 A 
ATOM      3  C   UNL     1      26.424   9.387  90.445  0.00  0.00    +0.019 A 
ATOM     38  C   UNL     1      25.441   8.552  91.118  0.00  0.00    +0.120 A 
ATOM     39  N   UNL     1      24.743   9.048  92.214  0.00  0.00    -0.263 NA
ATOM     40  C   UNL     1      24.945  10.344  92.713  0.00  0.00    +0.111 A 
ENDBRANCH   4   3
ENDBRANCH  10   9
BRANCH  12  13
ATOM     13  N   UNL     1      33.753   7.876  85.276  0.00  0.00    -0.281 N 
ATOM     14  C   UNL     1      34.984   8.304  85.746  0.00  0.00    +0.248 C 
ATOM     30  O   UNL     1      35.301   9.476  85.888  0.00  0.00    -0.270 OA
ATOM     31  H   UNL     1      33.688   6.891  85.022  0.00  0.00    +0.155 HD
BRANCH  14  15
ATOM     15  C   UNL     1      36.018   7.282  86.095  0.00  0.00    +0.037 A 
ATOM     16  C   UNL     1      35.640   5.926  86.501  0.00  0.00    +0.013 A 
ATOM     17  C   UNL     1      36.657   4.966  86.849  0.00  0.00    +0.005 A 
ATOM     18  C   UNL     1      38.063   5.358  86.790  0.00  0.00    -0.033 A 
ATOM     28  C   UNL     1      38.410   6.708  86.379  0.00  0.00    +0.005 A 
ATOM     29  C   UNL     1      37.416   7.653  86.038  0.00  0.00    +0.013 A 
BRANCH  18  19
ATOM     19  C   UNL     1      39.213   4.405  87.164  0.00  0.00    +0.119 C 
BRANCH  19  20
ATOM     20  N   UNL     1      38.971   3.447  88.284  0.00  0.00    -0.302 NA
ATOM     21  C   UNL     1      38.704   4.167  89.608  0.00  0.00    +0.066 C 
ATOM     22  C   UNL     1      38.430   3.151  90.764  0.00  0.00    -0.064 C 
ATOM     23  N   UNL     1      39.621   2.200  90.896  0.00  0.00    +0.379 N 
ATOM     24  C   UNL     1      39.393   1.280  92.019  0.00  0.00    -0.096 C 
ATOM     25  H   UNL     1      40.519   2.814  91.139  0.00  0.00    -0.082 HD
ATOM     26  C   UNL     1      39.896   1.481  89.582  0.00  0.00    -0.064 C 
ATOM     27  C   UNL     1      40.137   2.501  88.434  0.00  0.00    +0.066 C 
ENDBRANCH  19  20
ENDBRANCH  18  19
ENDBRANCH  14  15
ENDBRANCH  12  13
TORSDOF 6
ENDMDL
MODEL 4
REMARK VINA RESULT:      -8.7      2.655     11.858
REMARK  Name = C:\Users\Docking\Desktop\test protocol\1iep_ligandH.pdb
REMARK  8 active torsions:
REMARK  status: ('A' for Active; 'I' for Inactive)
REMARK    1  A    between atoms: _5  and  _11
REMARK    2  A    between atoms: _19  and  _21
REMARK    3  A    between atoms: _22  and  _66
REMARK    4  A    between atoms: _27  and  _30
REMARK    5  A    between atoms: _32  and  _33
REMARK    6  A    between atoms: _38  and  _43
REMARK    7  A    between atoms: _43  and  _46
REMARK    8  A    between atoms: _53  and  _55
REMARK                            x       y       z     vdW  Elec       q    Type
REMARK                         _______ _______ _______ _____ _____    ______ ____
ROOT
ATOM     10  C   UNL     1      31.566   9.378  85.407  0.00  0.00    +0.038 A 
ATOM     11  C   UNL     1      32.746   8.681  85.771  0.00  0.00    +0.047 A 
ATOM     12  C   UNL     1      33.584   8.045  84.767  0.00  0.00    +0.035 A 
ATOM     32  C   UNL     1      33.192   8.141  83.400  0.00  0.00    +0.024 A 
ATOM     33  C   UNL     1      31.995   8.845  83.012  0.00  0.00    +0.007 A 
ATOM     34  C   UNL     1      31.163   9.472  83.998  0.00  0.00    -0.029 A 
ATOM     35  C   UNL     1      29.887  10.208  83.525  0.00  0.00    +0.045 C 
ENDROOT
BRANCH  10   9
ATOM      4  C   UNL     1      28.255   9.179  88.876  0.00  0.00    +0.077 A 
ATOM      5  C   UNL     1      28.015   7.784  88.648  0.00  0.00    +0.048 A 
ATOM      6  C   UNL     1      28.759   7.156  87.624  0.00  0.00    +0.116 A 
ATOM      7  N   UNL     1      29.672   7.879  86.889  0.00  0.00    -0.223 NA
ATOM      8  C   UNL     1      29.878   9.225  87.134  0.00  0.00    +0.220 A 
ATOM      9  N   UNL     1      30.798   9.970  86.412  0.00  0.00    -0.283 N 
ATOM     36  H   UNL     1      30.915  10.962  86.618  0.00  0.00    +0.155 HD
ATOM     37  N   UNL     1      29.179   9.848  88.105  0.00  0.00    -0.214 NA
BRANCH   4   3
ATOM      1  C   UNL     1      27.505  11.323  92.061  0.00  0.00    +0.020 A 
ATOM      2  C   UNL     1      28.232  10.555  91.077  0.00  0.00    +0.013 A 
ATOM      3  C   UNL     1      27.549   9.983  89.924  0.00  0.00    +0.019 A 
ATOM     38  C   UNL     1      26.117  10.208  89.794  0.00  0.00    +0.120 A 
ATOM     39  N   UNL     1      25.442  10.951  90.758  0.00  0.00    -0.263 NA
ATOM     40  C   UNL     1      26.089  11.505  91.873  0.00  0.00    +0.111 A 
ENDBRANCH   4   3
ENDBRANCH  10   9
BRANCH  12  13
ATOM     13  N   UNL     1      34.789   7.316  85.078  0.00  0.00    -0.281 N 
ATOM     14  C   UNL     1      35.914   7.775  85.743  0.00  0.00    +0.248 C 
ATOM     30  O   UNL     1      36.142   8.951  85.985  0.00  0.00    -0.270 OA
ATOM     31  H   UNL     1      34.816   6.344  84.771  0.00  0.00    +0.155 HD
BRANCH  14  15
ATOM     15  C   UNL     1      36.942   6.787  86.191  0.00  0.00    +0.037 A 
ATOM     16  C   UNL     1      38.310   7.204  86.508  0.00  0.00    +0.013 A 
ATOM     17  C   UNL     1      39.286   6.227  86.922  0.00  0.00    +0.005 A 
ATOM     18  C   UNL     1      38.896   4.823  87.022  0.00  0.00    -0.033 A 
ATOM     28  C   UNL     1      37.531   4.438  86.707  0.00  0.00    +0.005 A 
ATOM     29  C   UNL     1      36.571   5.392  86.300  0.00  0.00    +0.013 A 
BRANCH  18  19
ATOM     19  C   UNL     1      39.878   3.710  87.435  0.00  0.00    +0.119 C 
BRANCH  19  20
ATOM     20  N   UNL     1      39.499   2.865  88.607  0.00  0.00    -0.302 NA
ATOM     21  C   UNL     1      39.138   3.709  89.832  0.00  0.00    +0.066 C 
ATOM     22  C   UNL     1      38.723   2.810  91.041  0.00  0.00    -0.064 C 
ATOM     23  N   UNL     1      39.861   1.841  91.367  0.00  0.00    +0.379 N 
ATOM     24  C   UNL     1      39.497   1.033  92.540  0.00  0.00    -0.096 C 
ATOM     25  H   UNL     1      40.755   2.449  91.640  0.00  0.00    -0.082 HD
ATOM     26  C   UNL     1      40.228   0.999  90.154  0.00  0.00    -0.064 C 
ATOM     27  C   UNL     1      40.611   1.904  88.949  0.00  0.00    +0.066 C 
ENDBRANCH  19  20
ENDBRANCH  18  19
ENDBRANCH  14  15
ENDBRANCH  12  13
TORSDOF 6
ENDMDL
MODEL 5
REMARK VINA RESULT:      -8.5      2.529     12.808
REMARK  Name = C:\Users\Docking\Desktop\test protocol\1iep_ligandH.pdb
REMARK  8 active torsions:
REMARK  status: ('A' for Active; 'I' for Inactive)
REMARK    1  A    between atoms: _5  and  _11
REMARK    2  A    between atoms: _19  and  _21
REMARK    3  A    between atoms: _22  and  _66
REMARK    4  A    between atoms: _27  and  _30
REMARK    5  A    between atoms: _32  and  _33
REMARK    6  A    between atoms: _38  and  _43
REMARK    7  A    between atoms: _43  and  _46
REMARK    8  A    between atoms: _53  and  _55
REMARK                            x       y       z     vdW  Elec       q    Type
REMARK                         _______ _______ _______ _____ _____    ______ ____
ROOT
ATOM     10  C   UNL     1      31.046   9.629  85.566  0.00  0.00    +0.038 A 
ATOM     11  C   UNL     1      32.179   8.876  85.966  0.00  0.00    +0.047 A 
ATOM     12  C   UNL     1      33.045   8.241  84.985  0.00  0.00    +0.035 A 
ATOM     32  C   UNL     1      32.729   8.397  83.604  0.00  0.00    +0.024 A 
ATOM     33  C   UNL     1      31.581   9.159  83.179  0.00  0.00    +0.007 A 
ATOM     34  C   UNL     1      30.722   9.785  84.143  0.00  0.00    -0.029 A 
ATOM     35  C   UNL     1      29.501  10.585  83.631  0.00  0.00    +0.045 C 
ENDROOT
BRANCH  10   9
ATOM      4  C   UNL     1      27.755   9.385  89.051  0.00  0.00    +0.077 A 
ATOM      5  C   UNL     1      27.590   7.970  88.878  0.00  0.00    +0.048 A 
ATOM      6  C   UNL     1      28.366   7.345  87.876  0.00  0.00    +0.116 A 
ATOM      7  N   UNL     1      29.239   8.089  87.111  0.00  0.00    -0.223 NA
ATOM      8  C   UNL     1      29.372   9.451  87.303  0.00  0.00    +0.220 A 
ATOM      9  N   UNL     1      30.249  10.217  86.551  0.00  0.00    -0.283 N 
ATOM     36  H   UNL     1      30.313  11.221  86.718  0.00  0.00    +0.155 HD
ATOM     37  N   UNL     1      28.641  10.072  88.252  0.00  0.00    -0.214 NA
BRANCH   4   3
ATOM      1  C   UNL     1      26.891  11.583  92.169  0.00  0.00    +0.020 A 
ATOM      2  C   UNL     1      27.658  10.817  91.214  0.00  0.00    +0.013 A 
ATOM      3  C   UNL     1      27.009  10.188  90.070  0.00  0.00    +0.019 A 
ATOM     38  C   UNL     1      25.571  10.356  89.921  0.00  0.00    +0.120 A 
ATOM     39  N   UNL     1      24.858  11.098  90.858  0.00  0.00    -0.263 NA
ATOM     40  C   UNL     1      25.472  11.706  91.963  0.00  0.00    +0.111 A 
ENDBRANCH   4   3
ENDBRANCH  10   9
BRANCH  12  13
ATOM     13  N   UNL     1      34.204   7.457  85.332  0.00  0.00    -0.281 N 
ATOM     14  C   UNL     1      35.502   7.898  85.533  0.00  0.00    +0.248 C 
ATOM     30  O   UNL     1      35.907   9.012  85.236  0.00  0.00    -0.270 OA
ATOM     31  H   UNL     1      34.050   6.454  85.441  0.00  0.00    +0.155 HD
BRANCH  14  15
ATOM     15  C   UNL     1      36.497   6.963  86.141  0.00  0.00    +0.037 A 
ATOM     16  C   UNL     1      36.082   5.679  86.713  0.00  0.00    +0.013 A 
ATOM     17  C   UNL     1      37.060   4.803  87.309  0.00  0.00    +0.005 A 
ATOM     18  C   UNL     1      38.463   5.207  87.332  0.00  0.00    -0.033 A 
ATOM     28  C   UNL     1      38.848   6.484  86.752  0.00  0.00    +0.005 A 
ATOM     29  C   UNL     1      37.892   7.345  86.169  0.00  0.00    +0.013 A 
BRANCH  18  19
ATOM     19  C   UNL     1      39.571   4.345  87.965  0.00  0.00    +0.119 C 
BRANCH  19  20
ATOM     20  N   UNL     1      40.459   3.583  87.037  0.00  0.00    -0.302 NA
ATOM     21  C   UNL     1      40.398   2.074  87.294  0.00  0.00    +0.066 C 
ATOM     22  C   UNL     1      41.315   1.290  86.300  0.00  0.00    -0.064 C 
ATOM     23  N   UNL     1      42.751   1.803  86.422  0.00  0.00    +0.379 N 
ATOM     24  C   UNL     1      43.626   1.029  85.530  0.00  0.00    -0.096 C 
ATOM     25  H   UNL     1      43.087   1.620  87.469  0.00  0.00    -0.082 HD
ATOM     26  C   UNL     1      42.820   3.303  86.171  0.00  0.00    -0.064 C 
ATOM     27  C   UNL     1      41.883   4.070  87.145  0.00  0.00    +0.066 C 
ENDBRANCH  19  20
ENDBRANCH  18  19
ENDBRANCH  14  15
ENDBRANCH  12  13
TORSDOF 6
ENDMDL
