MODEL 1
REMARK VINA RESULT:      -9.9      0.000      0.000
REMARK  Name = C:\Users\Docking\Desktop\test protocol\1iep_ligandH.pdb
REMARK  8 active torsions:
REMARK  status: ('A' for Active; 'I' for Inactive)
REMARK    1  A    between atoms: _5  and  _11
REMARK    2  A    between atoms: _19  and  _21
REMARK    3  A    between atoms: _22  and  _66
REMARK    4  A    between atoms: _27  and  _30
REMARK    5  A    between atoms: _32  and  _33
REMARK    6  A    between atoms: _38  and  _43
REMARK    7  A    between atoms: _43  and  _46
REMARK    8  A    between atoms: _53  and  _55
REMARK                            x       y       z     vdW  Elec       q    Type
REMARK                         _______ _______ _______ _____ _____    ______ ____
ROOT
ATOM     10  C   UNL     1      69.009  31.776 114.631  0.00  0.00    +0.038 A 
ATOM     11  C   UNL     1      67.642  31.530 114.916  0.00  0.00    +0.047 A 
ATOM     12  C   UNL     1      67.190  31.277 116.276  0.00  0.00    +0.035 A 
ATOM     32  C   UNL     1      68.159  31.284 117.322  0.00  0.00    +0.024 A 
ATOM     33  C   UNL     1      69.553  31.532 117.050  0.00  0.00    +0.007 A 
ATOM     34  C   UNL     1      70.004  31.780 115.710  0.00  0.00    -0.029 A 
ATOM     35  C   UNL     1      71.512  32.032 115.476  0.00  0.00    +0.045 C 
ENDROOT
BRANCH  10   9
ATOM      4  C   UNL     1      69.935  30.291 110.162  0.00  0.00    +0.077 A 
ATOM      5  C   UNL     1      69.670  28.922 110.499  0.00  0.00    +0.048 A 
ATOM      6  C   UNL     1      69.305  28.641 111.835  0.00  0.00    +0.116 A 
ATOM      7  N   UNL     1      69.215  29.662 112.757  0.00  0.00    -0.223 NA
ATOM      8  C   UNL     1      69.479  30.971 112.399  0.00  0.00    +0.220 A 
ATOM      9  N   UNL     1      69.387  32.014 113.308  0.00  0.00    -0.283 N 
ATOM     36  H   UNL     1      69.597  32.965 113.007  0.00  0.00    +0.155 HD
ATOM     37  N   UNL     1      69.831  31.265 111.130  0.00  0.00    -0.214 NA
BRANCH   4   3
ATOM      1  C   UNL     1      69.825  31.248 106.371  0.00  0.00    +0.020 A 
ATOM      2  C   UNL     1      69.394  30.799 107.675  0.00  0.00    +0.013 A 
ATOM      3  C   UNL     1      70.329  30.746 108.792  0.00  0.00    +0.019 A 
ATOM     38  C   UNL     1      71.704  31.158 108.554  0.00  0.00    +0.120 A 
ATOM     39  N   UNL     1      72.091  31.584 107.287  0.00  0.00    -0.263 NA
ATOM     40  C   UNL     1      71.200  31.638 106.204  0.00  0.00    +0.111 A 
ENDBRANCH   4   3
ENDBRANCH  10   9
BRANCH  12  13
ATOM     13  N   UNL     1      65.816  31.013 116.625  0.00  0.00    -0.281 N 
ATOM     14  C   UNL     1      65.037  29.929 116.254  0.00  0.00    +0.248 C 
ATOM     30  O   UNL     1      65.339  29.125 115.385  0.00  0.00    -0.270 OA
ATOM     31  H   UNL     1      65.363  31.709 117.217  0.00  0.00    +0.155 HD
BRANCH  14  15
ATOM     15  C   UNL     1      63.724  29.717 116.937  0.00  0.00    +0.037 A 
ATOM     16  C   UNL     1      62.655  30.716 116.856  0.00  0.00    +0.013 A 
ATOM     17  C   UNL     1      61.405  30.494 117.538  0.00  0.00    +0.005 A 
ATOM     18  C   UNL     1      61.217  29.265 118.307  0.00  0.00    -0.033 A 
ATOM     28  C   UNL     1      62.292  28.289 118.366  0.00  0.00    +0.005 A 
ATOM     29  C   UNL     1      63.519  28.504 117.699  0.00  0.00    +0.013 A 
BRANCH  18  19
ATOM     19  C   UNL     1      59.923  28.955 119.084  0.00  0.00    +0.119 C 
BRANCH  19  20
ATOM     20  N   UNL     1      58.734  29.813 118.803  0.00  0.00    -0.302 NA
ATOM     21  C   UNL     1      59.102  31.298 118.728  0.00  0.00    +0.066 C 
ATOM     22  C   UNL     1      57.850  32.179 118.412  0.00  0.00    -0.064 C 
ATOM     23  N   UNL     1      56.778  31.939 119.476  0.00  0.00    +0.379 N 
ATOM     24  C   UNL     1      55.623  32.809 119.214  0.00  0.00    -0.096 C 
ATOM     25  H   UNL     1      57.208  32.236 120.461  0.00  0.00    -0.082 HD
ATOM     26  C   UNL     1      56.409  30.465 119.559  0.00  0.00    -0.064 C 
ATOM     27  C   UNL     1      57.665  29.595 119.845  0.00  0.00    +0.066 C 
ENDBRANCH  19  20
ENDBRANCH  18  19
ENDBRANCH  14  15
ENDBRANCH  12  13
TORSDOF 6
ENDMDL
MODEL 2
REMARK VINA RESULT:      -9.7      5.701     13.679
REMARK  Name = C:\Users\Docking\Desktop\test protocol\1iep_ligandH.pdb
REMARK  8 active torsions:
REMARK  status: ('A' for Active; 'I' for Inactive)
REMARK    1  A    between atoms: _5  and  _11
REMARK    2  A    between atoms: _19  and  _21
REMARK    3  A    between atoms: _22  and  _66
REMARK    4  A    between atoms: _27  and  _30
REMARK    5  A    between atoms: _32  and  _33
REMARK    6  A    between atoms: _38  and  _43
REMARK    7  A    between atoms: _43  and  _46
REMARK    8  A    between atoms: _53  and  _55
REMARK                            x       y       z     vdW  Elec       q    Type
REMARK                         _______ _______ _______ _____ _____    ______ ____
ROOT
ATOM     10  C   UNL     1      67.502  28.540 112.117  0.00  0.00    +0.038 A 
ATOM     11  C   UNL     1      68.799  28.292 112.634  0.00  0.00    +0.047 A 
ATOM     12  C   UNL     1      69.978  28.389 111.787  0.00  0.00    +0.035 A 
ATOM     32  C   UNL     1      69.798  28.743 110.418  0.00  0.00    +0.024 A 
ATOM     33  C   UNL     1      68.487  28.998 109.876  0.00  0.00    +0.007 A 
ATOM     34  C   UNL     1      67.320  28.901 110.706  0.00  0.00    -0.029 A 
ATOM     35  C   UNL     1      65.938  29.178 110.070  0.00  0.00    +0.045 C 
ENDROOT
BRANCH  10   9
ATOM      4  C   UNL     1      64.961  29.957 115.935  0.00  0.00    +0.077 A 
ATOM      5  C   UNL     1      65.912  30.980 116.262  0.00  0.00    +0.048 A 
ATOM      6  C   UNL     1      67.045  31.103 115.427  0.00  0.00    +0.116 A 
ATOM      7  N   UNL     1      67.205  30.262 114.348  0.00  0.00    -0.223 NA
ATOM      8  C   UNL     1      66.269  29.285 114.061  0.00  0.00    +0.220 A 
ATOM      9  N   UNL     1      66.405  28.433 112.976  0.00  0.00    -0.283 N 
ATOM     36  H   UNL     1      65.697  27.720 112.802  0.00  0.00    +0.155 HD
ATOM     37  N   UNL     1      65.179  29.145 114.844  0.00  0.00    -0.214 NA
BRANCH   4   3
ATOM      1  C   UNL     1      62.261  28.284 118.218  0.00  0.00    +0.020 A 
ATOM      2  C   UNL     1      63.485  28.479 117.476  0.00  0.00    +0.013 A 
ATOM      3  C   UNL     1      63.711  29.704 116.719  0.00  0.00    +0.019 A 
ATOM     38  C   UNL     1      62.670  30.721 116.735  0.00  0.00    +0.120 A 
ATOM     39  N   UNL     1      61.501  30.505 117.457  0.00  0.00    -0.263 NA
ATOM     40  C   UNL     1      61.272  29.329 118.187  0.00  0.00    +0.111 A 
ENDBRANCH   4   3
ENDBRANCH  10   9
BRANCH  12  13
ATOM     13  N   UNL     1      71.319  28.141 112.253  0.00  0.00    -0.281 N 
ATOM     14  C   UNL     1      72.197  27.153 111.837  0.00  0.00    +0.248 C 
ATOM     30  O   UNL     1      71.881  26.194 111.148  0.00  0.00    -0.270 OA
ATOM     31  H   UNL     1      71.664  28.770 112.978  0.00  0.00    +0.155 HD
BRANCH  14  15
ATOM     15  C   UNL     1      73.628  27.233 112.260  0.00  0.00    +0.037 A 
ATOM     16  C   UNL     1      74.270  28.523 112.529  0.00  0.00    +0.013 A 
ATOM     17  C   UNL     1      75.656  28.573 112.919  0.00  0.00    +0.005 A 
ATOM     18  C   UNL     1      76.411  27.328 113.044  0.00  0.00    -0.033 A 
ATOM     28  C   UNL     1      75.748  26.063 112.776  0.00  0.00    +0.005 A 
ATOM     29  C   UNL     1      74.389  26.009 112.393  0.00  0.00    +0.013 A 
BRANCH  18  19
ATOM     19  C   UNL     1      77.900  27.289 113.434  0.00  0.00    +0.119 C 
BRANCH  19  20
ATOM     20  N   UNL     1      78.311  26.289 114.465  0.00  0.00    -0.302 NA
ATOM     21  C   UNL     1      77.738  26.619 115.846  0.00  0.00    +0.066 C 
ATOM     22  C   UNL     1      78.159  25.550 116.907  0.00  0.00    -0.064 C 
ATOM     23  N   UNL     1      79.685  25.462 116.960  0.00  0.00    +0.379 N 
ATOM     24  C   UNL     1      80.085  24.500 117.998  0.00  0.00    -0.096 C 
ATOM     25  H   UNL     1      80.071  26.464 117.261  0.00  0.00    -0.082 HD
ATOM     26  C   UNL     1      80.263  25.137 115.590  0.00  0.00    -0.064 C 
ATOM     27  C   UNL     1      79.815  26.188 114.537  0.00  0.00    +0.066 C 
ENDBRANCH  19  20
ENDBRANCH  18  19
ENDBRANCH  14  15
ENDBRANCH  12  13
TORSDOF 6
ENDMDL
MODEL 3
REMARK VINA RESULT:      -9.5      4.677      6.019
REMARK  Name = C:\Users\Docking\Desktop\test protocol\1iep_ligandH.pdb
REMARK  8 active torsions:
REMARK  status: ('A' for Active; 'I' for Inactive)
REMARK    1  A    between atoms: _5  and  _11
REMARK    2  A    between atoms: _19  and  _21
REMARK    3  A    between atoms: _22  and  _66
REMARK    4  A    between atoms: _27  and  _30
REMARK    5  A    between atoms: _32  and  _33
REMARK    6  A    between atoms: _38  and  _43
REMARK    7  A    between atoms: _43  and  _46
REMARK    8  A    between atoms: _53  and  _55
REMARK                            x       y       z     vdW  Elec       q    Type
REMARK                         _______ _______ _______ _____ _____    ______ ____
ROOT
ATOM     10  C   UNL     1      67.242  29.287 111.858  0.00  0.00    +0.038 A 
ATOM     11  C   UNL     1      67.209  30.001 113.083  0.00  0.00    +0.047 A 
ATOM     12  C   UNL     1      66.203  29.716 114.094  0.00  0.00    +0.035 A 
ATOM     32  C   UNL     1      65.246  28.694 113.826  0.00  0.00    +0.024 A 
ATOM     33  C   UNL     1      65.264  27.958 112.586  0.00  0.00    +0.007 A 
ATOM     34  C   UNL     1      66.253  28.237 111.584  0.00  0.00    -0.029 A 
ATOM     35  C   UNL     1      66.221  27.421 110.270  0.00  0.00    +0.045 C 
ENDROOT
BRANCH  10   9
ATOM      4  C   UNL     1      71.540  28.582 109.843  0.00  0.00    +0.077 A 
ATOM      5  C   UNL     1      71.855  27.514 110.747  0.00  0.00    +0.048 A 
ATOM      6  C   UNL     1      70.887  27.181 111.720  0.00  0.00    +0.116 A 
ATOM      7  N   UNL     1      69.696  27.872 111.776  0.00  0.00    -0.223 NA
ATOM      8  C   UNL     1      69.424  28.898 110.890  0.00  0.00    +0.220 A 
ATOM      9  N   UNL     1      68.230  29.602 110.923  0.00  0.00    -0.283 N 
ATOM     36  H   UNL     1      68.071  30.357 110.257  0.00  0.00    +0.155 HD
ATOM     37  N   UNL     1      70.334  29.236 109.952  0.00  0.00    -0.214 NA
BRANCH   4   3
ATOM      1  C   UNL     1      72.913  29.962 106.449  0.00  0.00    +0.020 A 
ATOM      2  C   UNL     1      71.983  29.522 107.464  0.00  0.00    +0.013 A 
ATOM      3  C   UNL     1      72.460  29.048 108.757  0.00  0.00    +0.019 A 
ATOM     38  C   UNL     1      73.896  29.032 108.994  0.00  0.00    +0.120 A 
ATOM     39  N   UNL     1      74.768  29.460 107.997  0.00  0.00    -0.263 NA
ATOM     40  C   UNL     1      74.320  29.916 106.749  0.00  0.00    +0.111 A 
ENDBRANCH   4   3
ENDBRANCH  10   9
BRANCH  12  13
ATOM     13  N   UNL     1      66.115  30.415 115.352  0.00  0.00    -0.281 N 
ATOM     14  C   UNL     1      66.365  29.918 116.621  0.00  0.00    +0.248 C 
ATOM     30  O   UNL     1      66.496  28.732 116.886  0.00  0.00    -0.270 OA
ATOM     31  H   UNL     1      65.835  31.394 115.301  0.00  0.00    +0.155 HD
BRANCH  14  15
ATOM     15  C   UNL     1      66.470  30.876 117.764  0.00  0.00    +0.037 A 
ATOM     16  C   UNL     1      67.316  32.069 117.680  0.00  0.00    +0.013 A 
ATOM     17  C   UNL     1      67.413  32.967 118.803  0.00  0.00    +0.005 A 
ATOM     18  C   UNL     1      66.659  32.676 120.020  0.00  0.00    -0.033 A 
ATOM     28  C   UNL     1      65.823  31.489 120.074  0.00  0.00    +0.005 A 
ATOM     29  C   UNL     1      65.727  30.605 118.976  0.00  0.00    +0.013 A 
BRANCH  18  19
ATOM     19  C   UNL     1      66.719  33.568 121.274  0.00  0.00    +0.119 C 
BRANCH  19  20
ATOM     20  N   UNL     1      66.362  32.937 122.580  0.00  0.00    -0.302 NA
ATOM     21  C   UNL     1      65.008  33.425 123.102  0.00  0.00    +0.066 C 
ATOM     22  C   UNL     1      64.640  32.737 124.457  0.00  0.00    -0.064 C 
ATOM     23  N   UNL     1      65.745  33.009 125.480  0.00  0.00    +0.379 N 
ATOM     24  C   UNL     1      65.374  32.413 126.772  0.00  0.00    -0.096 C 
ATOM     25  H   UNL     1      65.809  34.112 125.623  0.00  0.00    -0.082 HD
ATOM     26  C   UNL     1      67.095  32.529 124.967  0.00  0.00    -0.064 C 
ATOM     27  C   UNL     1      67.438  33.196 123.606  0.00  0.00    +0.066 C 
ENDBRANCH  19  20
ENDBRANCH  18  19
ENDBRANCH  14  15
ENDBRANCH  12  13
TORSDOF 6
ENDMDL
MODEL 4
REMARK VINA RESULT:      -9.5      4.654      6.613
REMARK  Name = C:\Users\Docking\Desktop\test protocol\1iep_ligandH.pdb
REMARK  8 active torsions:
REMARK  status: ('A' for Active; 'I' for Inactive)
REMARK    1  A    between atoms: _5  and  _11
REMARK    2  A    between atoms: _19  and  _21
REMARK    3  A    between atoms: _22  and  _66
REMARK    4  A    between atoms: _27  and  _30
REMARK    5  A    between atoms: _32  and  _33
REMARK    6  A    between atoms: _38  and  _43
REMARK    7  A    between atoms: _43  and  _46
REMARK    8  A    between atoms: _53  and  _55
REMARK                            x       y       z     vdW  Elec       q    Type
REMARK                         _______ _______ _______ _____ _____    ______ ____
ROOT
ATOM     10  C   UNL     1      67.256  29.262 111.878  0.00  0.00    +0.038 A 
ATOM     11  C   UNL     1      67.266  29.929 113.130  0.00  0.00    +0.047 A 
ATOM     12  C   UNL     1      66.270  29.634 114.148  0.00  0.00    +0.035 A 
ATOM     32  C   UNL     1      65.279  28.651 113.859  0.00  0.00    +0.024 A 
ATOM     33  C   UNL     1      65.253  27.964 112.591  0.00  0.00    +0.007 A 
ATOM     34  C   UNL     1      66.232  28.253 111.582  0.00  0.00    -0.029 A 
ATOM     35  C   UNL     1      66.152  27.491 110.239  0.00  0.00    +0.045 C 
ENDROOT
BRANCH  10   9
ATOM      4  C   UNL     1      71.548  28.590 109.837  0.00  0.00    +0.077 A 
ATOM      5  C   UNL     1      71.876  27.523 110.739  0.00  0.00    +0.048 A 
ATOM      6  C   UNL     1      70.915  27.183 111.718  0.00  0.00    +0.116 A 
ATOM      7  N   UNL     1      69.720  27.866 111.781  0.00  0.00    -0.223 NA
ATOM      8  C   UNL     1      69.436  28.890 110.897  0.00  0.00    +0.220 A 
ATOM      9  N   UNL     1      68.237  29.585 110.937  0.00  0.00    -0.283 N 
ATOM     36  H   UNL     1      68.068  30.339 110.272  0.00  0.00    +0.155 HD
ATOM     37  N   UNL     1      70.337  29.235 109.954  0.00  0.00    -0.214 NA
BRANCH   4   3
ATOM      1  C   UNL     1      72.890  29.999 106.444  0.00  0.00    +0.020 A 
ATOM      2  C   UNL     1      71.969  29.553 107.464  0.00  0.00    +0.013 A 
ATOM      3  C   UNL     1      72.458  29.063 108.746  0.00  0.00    +0.019 A 
ATOM     38  C   UNL     1      73.896  29.037 108.967  0.00  0.00    +0.120 A 
ATOM     39  N   UNL     1      74.759  29.472 107.966  0.00  0.00    -0.263 NA
ATOM     40  C   UNL     1      74.300  29.944 106.727  0.00  0.00    +0.111 A 
ENDBRANCH   4   3
ENDBRANCH  10   9
BRANCH  12  13
ATOM     13  N   UNL     1      66.226  30.285 115.434  0.00  0.00    -0.281 N 
ATOM     14  C   UNL     1      66.377  29.710 116.685  0.00  0.00    +0.248 C 
ATOM     30  O   UNL     1      66.362  28.507 116.899  0.00  0.00    -0.270 OA
ATOM     31  H   UNL     1      66.062  31.292 115.420  0.00  0.00    +0.155 HD
BRANCH  14  15
ATOM     15  C   UNL     1      66.558  30.600 117.872  0.00  0.00    +0.037 A 
ATOM     16  C   UNL     1      65.630  30.554 119.005  0.00  0.00    +0.013 A 
ATOM     17  C   UNL     1      65.818  31.436 120.130  0.00  0.00    +0.005 A 
ATOM     18  C   UNL     1      66.940  32.371 120.127  0.00  0.00    -0.033 A 
ATOM     28  C   UNL     1      67.848  32.393 118.992  0.00  0.00    +0.005 A 
ATOM     29  C   UNL     1      67.667  31.530 117.888  0.00  0.00    +0.013 A 
BRANCH  18  19
ATOM     19  C   UNL     1      67.204  33.363 121.275  0.00  0.00    +0.119 C 
BRANCH  19  20
ATOM     20  N   UNL     1      67.309  32.801 122.655  0.00  0.00    -0.302 NA
ATOM     21  C   UNL     1      66.731  33.750 123.708  0.00  0.00    +0.066 C 
ATOM     22  C   UNL     1      66.828  33.136 125.142  0.00  0.00    -0.064 C 
ATOM     23  N   UNL     1      68.288  32.806 125.454  0.00  0.00    +0.379 N 
ATOM     24  C   UNL     1      68.391  32.282 126.824  0.00  0.00    -0.096 C 
ATOM     25  H   UNL     1      68.867  33.758 125.412  0.00  0.00    -0.082 HD
ATOM     26  C   UNL     1      68.872  31.864 124.411  0.00  0.00    -0.064 C 
ATOM     27  C   UNL     1      68.743  32.471 122.985  0.00  0.00    +0.066 C 
ENDBRANCH  19  20
ENDBRANCH  18  19
ENDBRANCH  14  15
ENDBRANCH  12  13
TORSDOF 6
ENDMDL
MODEL 5
REMARK VINA RESULT:      -9.1      5.347     14.358
REMARK  Name = C:\Users\Docking\Desktop\test protocol\1iep_ligandH.pdb
REMARK  8 active torsions:
REMARK  status: ('A' for Active; 'I' for Inactive)
REMARK    1  A    between atoms: _5  and  _11
REMARK    2  A    between atoms: _19  and  _21
REMARK    3  A    between atoms: _22  and  _66
REMARK    4  A    between atoms: _27  and  _30
REMARK    5  A    between atoms: _32  and  _33
REMARK    6  A    between atoms: _38  and  _43
REMARK    7  A    between atoms: _43  and  _46
REMARK    8  A    between atoms: _53  and  _55
REMARK                            x       y       z     vdW  Elec       q    Type
REMARK                         _______ _______ _______ _____ _____    ______ ____
ROOT
ATOM     10  C   UNL     1      67.794  28.504 111.946  0.00  0.00    +0.038 A 
ATOM     11  C   UNL     1      69.131  28.267 112.355  0.00  0.00    +0.047 A 
ATOM     12  C   UNL     1      70.244  28.452 111.437  0.00  0.00    +0.035 A 
ATOM     32  C   UNL     1      69.958  28.883 110.109  0.00  0.00    +0.024 A 
ATOM     33  C   UNL     1      68.605  29.128 109.675  0.00  0.00    +0.007 A 
ATOM     34  C   UNL     1      67.504  28.945 110.576  0.00  0.00    -0.029 A 
ATOM     35  C   UNL     1      66.073  29.216 110.055  0.00  0.00    +0.045 C 
ENDROOT
BRANCH  10   9
ATOM      4  C   UNL     1      65.233  29.852 115.775  0.00  0.00    +0.077 A 
ATOM      5  C   UNL     1      66.031  31.028 115.969  0.00  0.00    +0.048 A 
ATOM      6  C   UNL     1      67.096  31.246 115.066  0.00  0.00    +0.116 A 
ATOM      7  N   UNL     1      67.335  30.348 114.048  0.00  0.00    -0.223 NA
ATOM      8  C   UNL     1      66.547  29.223 113.890  0.00  0.00    +0.220 A 
ATOM      9  N   UNL     1      66.764  28.310 112.869  0.00  0.00    -0.283 N 
ATOM     36  H   UNL     1      66.165  27.489 112.791  0.00  0.00    +0.155 HD
ATOM     37  N   UNL     1      65.525  28.991 114.741  0.00  0.00    -0.214 NA
BRANCH   4   3
ATOM      1  C   UNL     1      61.783  29.914 117.617  0.00  0.00    +0.020 A 
ATOM      2  C   UNL     1      62.877  30.314 116.763  0.00  0.00    +0.013 A 
ATOM      3  C   UNL     1      64.071  29.486 116.645  0.00  0.00    +0.019 A 
ATOM     38  C   UNL     1      64.125  28.249 117.410  0.00  0.00    +0.120 A 
ATOM     39  N   UNL     1      63.056  27.890 118.225  0.00  0.00    -0.263 NA
ATOM     40  C   UNL     1      61.903  28.680 118.348  0.00  0.00    +0.111 A 
ENDBRANCH   4   3
ENDBRANCH  10   9
BRANCH  12  13
ATOM     13  N   UNL     1      71.621  28.219 111.794  0.00  0.00    -0.281 N 
ATOM     14  C   UNL     1      72.389  27.096 111.534  0.00  0.00    +0.248 C 
ATOM     30  O   UNL     1      71.943  26.029 111.140  0.00  0.00    -0.270 OA
ATOM     31  H   UNL     1      72.086  28.973 112.299  0.00  0.00    +0.155 HD
BRANCH  14  15
ATOM     15  C   UNL     1      73.866  27.163 111.758  0.00  0.00    +0.037 A 
ATOM     16  C   UNL     1      74.683  28.204 111.130  0.00  0.00    +0.013 A 
ATOM     17  C   UNL     1      76.107  28.236 111.349  0.00  0.00    +0.005 A 
ATOM     18  C   UNL     1      76.723  27.223 112.203  0.00  0.00    -0.033 A 
ATOM     28  C   UNL     1      75.888  26.205 112.818  0.00  0.00    +0.005 A 
ATOM     29  C   UNL     1      74.492  26.170 112.605  0.00  0.00    +0.013 A 
BRANCH  18  19
ATOM     19  C   UNL     1      78.238  27.168 112.476  0.00  0.00    +0.119 C 
BRANCH  19  20
ATOM     20  N   UNL     1      79.137  26.958 111.302  0.00  0.00    -0.302 NA
ATOM     21  C   UNL     1      79.368  28.252 110.516  0.00  0.00    +0.066 C 
ATOM     22  C   UNL     1      80.328  28.019 109.305  0.00  0.00    -0.064 C 
ATOM     23  N   UNL     1      79.747  26.932 108.399  0.00  0.00    +0.379 N 
ATOM     24  C   UNL     1      80.619  26.751 107.229  0.00  0.00    -0.096 C 
ATOM     25  H   UNL     1      78.758  27.291 108.032  0.00  0.00    -0.082 HD
ATOM     26  C   UNL     1      79.512  25.642 109.173  0.00  0.00    -0.064 C 
ATOM     27  C   UNL     1      78.580  25.891 110.392  0.00  0.00    +0.066 C 
ENDBRANCH  19  20
ENDBRANCH  18  19
ENDBRANCH  14  15
ENDBRANCH  12  13
TORSDOF 6
ENDMDL
