MODEL 1
REMARK VINA RESULT:     -10.1      0.000      0.000
REMARK  Name = C:\Users\Docking\Desktop\test protocol\1iep_ligandH.pdb
REMARK  8 active torsions:
REMARK  status: ('A' for Active; 'I' for Inactive)
REMARK    1  A    between atoms: _5  and  _11
REMARK    2  A    between atoms: _19  and  _21
REMARK    3  A    between atoms: _22  and  _66
REMARK    4  A    between atoms: _27  and  _30
REMARK    5  A    between atoms: _32  and  _33
REMARK    6  A    between atoms: _38  and  _43
REMARK    7  A    between atoms: _43  and  _46
REMARK    8  A    between atoms: _53  and  _55
REMARK                            x       y       z     vdW  Elec       q    Type
REMARK                         _______ _______ _______ _____ _____    ______ ____
ROOT
ATOM     10  C   UNL     1      -0.235  14.785  19.876  0.00  0.00    +0.038 A 
ATOM     11  C   UNL     1      -0.016  15.668  18.788  0.00  0.00    +0.047 A 
ATOM     12  C   UNL     1      -0.632  16.986  18.753  0.00  0.00    +0.035 A 
ATOM     32  C   UNL     1      -1.463  17.372  19.845  0.00  0.00    +0.024 A 
ATOM     33  C   UNL     1      -1.698  16.486  20.958  0.00  0.00    +0.007 A 
ATOM     34  C   UNL     1      -1.095  15.184  20.996  0.00  0.00    -0.029 A 
ATOM     35  C   UNL     1      -1.387  14.273  22.212  0.00  0.00    +0.045 C 
ENDROOT
BRANCH  10   9
ATOM      4  C   UNL     1       0.140  10.275  18.275  0.00  0.00    +0.077 A 
ATOM      5  C   UNL     1      -1.005  10.420  17.422  0.00  0.00    +0.048 A 
ATOM      6  C   UNL     1      -1.666  11.669  17.430  0.00  0.00    +0.116 A 
ATOM      7  N   UNL     1      -1.208  12.689  18.235  0.00  0.00    -0.223 NA
ATOM      8  C   UNL     1      -0.102  12.516  19.046  0.00  0.00    +0.220 A 
ATOM      9  N   UNL     1       0.381  13.531  19.858  0.00  0.00    -0.283 N 
ATOM     36  H   UNL     1       1.195  13.361  20.447  0.00  0.00    +0.155 HD
ATOM     37  N   UNL     1       0.546  11.333  19.058  0.00  0.00    -0.214 NA
BRANCH   4   3
ATOM      1  C   UNL     1       2.499   7.448  19.595  0.00  0.00    +0.020 A 
ATOM      2  C   UNL     1       1.738   8.676  19.549  0.00  0.00    +0.013 A 
ATOM      3  C   UNL     1       0.947   9.018  18.374  0.00  0.00    +0.019 A 
ATOM     38  C   UNL     1       0.946   8.090  17.254  0.00  0.00    +0.120 A 
ATOM     39  N   UNL     1       1.690   6.916  17.326  0.00  0.00    -0.263 NA
ATOM     40  C   UNL     1       2.457   6.577  18.450  0.00  0.00    +0.111 A 
ENDBRANCH   4   3
ENDBRANCH  10   9
BRANCH  12  13
ATOM     13  N   UNL     1      -0.452  17.923  17.672  0.00  0.00    -0.281 N 
ATOM     14  C   UNL     1      -1.194  18.032  16.508  0.00  0.00    +0.248 C 
ATOM     30  O   UNL     1      -1.997  17.196  16.119  0.00  0.00    -0.270 OA
ATOM     31  H   UNL     1       0.315  18.586  17.778  0.00  0.00    +0.155 HD
BRANCH  14  15
ATOM     15  C   UNL     1      -1.007  19.236  15.642  0.00  0.00    +0.037 A 
ATOM     16  C   UNL     1      -2.028  20.284  15.567  0.00  0.00    +0.013 A 
ATOM     17  C   UNL     1      -1.830  21.426  14.711  0.00  0.00    +0.005 A 
ATOM     18  C   UNL     1      -0.603  21.528  13.924  0.00  0.00    -0.033 A 
ATOM     28  C   UNL     1       0.395  20.476  14.022  0.00  0.00    +0.005 A 
ATOM     29  C   UNL     1       0.204  19.354  14.859  0.00  0.00    +0.013 A 
BRANCH  18  19
ATOM     19  C   UNL     1      -0.317  22.701  12.968  0.00  0.00    +0.119 C 
BRANCH  19  20
ATOM     20  N   UNL     1      -1.075  23.968  13.194  0.00  0.00    -0.302 NA
ATOM     21  C   UNL     1      -2.588  23.734  13.224  0.00  0.00    +0.066 C 
ATOM     22  C   UNL     1      -3.365  25.066  13.484  0.00  0.00    -0.064 C 
ATOM     23  N   UNL     1      -2.996  26.087  12.406  0.00  0.00    +0.379 N 
ATOM     24  C   UNL     1      -3.768  27.320  12.614  0.00  0.00    -0.096 C 
ATOM     25  H   UNL     1      -3.296  25.661  11.421  0.00  0.00    -0.082 HD
ATOM     26  C   UNL     1      -1.492  26.323  12.368  0.00  0.00    -0.064 C 
ATOM     27  C   UNL     1      -0.729  24.989  12.139  0.00  0.00    +0.066 C 
ENDBRANCH  19  20
ENDBRANCH  18  19
ENDBRANCH  14  15
ENDBRANCH  12  13
TORSDOF 6
ENDMDL
MODEL 2
REMARK VINA RESULT:     -10.0      4.377     13.221
REMARK  Name = C:\Users\Docking\Desktop\test protocol\1iep_ligandH.pdb
REMARK  8 active torsions:
REMARK  status: ('A' for Active; 'I' for Inactive)
REMARK    1  A    between atoms: _5  and  _11
REMARK    2  A    between atoms: _19  and  _21
REMARK    3  A    between atoms: _22  and  _66
REMARK    4  A    between atoms: _27  and  _30
REMARK    5  A    between atoms: _32  and  _33
REMARK    6  A    between atoms: _38  and  _43
REMARK    7  A    between atoms: _43  and  _46
REMARK    8  A    between atoms: _53  and  _55
REMARK                            x       y       z     vdW  Elec       q    Type
REMARK                         _______ _______ _______ _____ _____    ______ ____
ROOT
ATOM     10  C   UNL     1      -2.797  18.957  13.944  0.00  0.00    +0.038 A 
ATOM     11  C   UNL     1      -2.717  18.608  15.316  0.00  0.00    +0.047 A 
ATOM     12  C   UNL     1      -2.421  17.245  15.729  0.00  0.00    +0.035 A 
ATOM     32  C   UNL     1      -2.209  16.263  14.718  0.00  0.00    +0.024 A 
ATOM     33  C   UNL     1      -2.288  16.601  13.319  0.00  0.00    +0.007 A 
ATOM     34  C   UNL     1      -2.582  17.943  12.905  0.00  0.00    -0.029 A 
ATOM     35  C   UNL     1      -2.660  18.246  11.391  0.00  0.00    +0.045 C 
ENDROOT
BRANCH  10   9
ATOM      4  C   UNL     1      -1.484  23.507  13.162  0.00  0.00    +0.077 A 
ATOM      5  C   UNL     1      -0.114  23.229  13.484  0.00  0.00    +0.048 A 
ATOM      6  C   UNL     1       0.210  21.904  13.853  0.00  0.00    +0.116 A 
ATOM      7  N   UNL     1      -0.771  20.937  13.893  0.00  0.00    -0.223 NA
ATOM      8  C   UNL     1      -2.083  21.239  13.578  0.00  0.00    +0.220 A 
ATOM      9  N   UNL     1      -3.084  20.281  13.604  0.00  0.00    -0.283 N 
ATOM     36  H   UNL     1      -4.042  20.545  13.372  0.00  0.00    +0.155 HD
ATOM     37  N   UNL     1      -2.418  22.497  13.224  0.00  0.00    -0.214 NA
BRANCH   4   3
ATOM      1  C   UNL     1      -1.731  27.064  11.554  0.00  0.00    +0.020 A 
ATOM      2  C   UNL     1      -1.204  25.771  11.923  0.00  0.00    +0.013 A 
ATOM      3  C   UNL     1      -1.982  24.858  12.750  0.00  0.00    +0.019 A 
ATOM     38  C   UNL     1      -3.301  25.286  13.190  0.00  0.00    +0.120 A 
ATOM     39  N   UNL     1      -3.783  26.538  12.819  0.00  0.00    -0.263 NA
ATOM     40  C   UNL     1      -3.042  27.426  12.025  0.00  0.00    +0.111 A 
ENDBRANCH   4   3
ENDBRANCH  10   9
BRANCH  12  13
ATOM     13  N   UNL     1      -2.334  16.829  17.107  0.00  0.00    -0.281 N 
ATOM     14  C   UNL     1      -1.464  17.288  18.082  0.00  0.00    +0.248 C 
ATOM     30  O   UNL     1      -0.479  17.977  17.861  0.00  0.00    -0.270 OA
ATOM     31  H   UNL     1      -2.995  16.109  17.400  0.00  0.00    +0.155 HD
BRANCH  14  15
ATOM     15  C   UNL     1      -1.715  16.915  19.508  0.00  0.00    +0.037 A 
ATOM     16  C   UNL     1      -1.158  17.705  20.609  0.00  0.00    +0.013 A 
ATOM     17  C   UNL     1      -1.401  17.314  21.975  0.00  0.00    +0.005 A 
ATOM     18  C   UNL     1      -2.208  16.126  22.247  0.00  0.00    -0.033 A 
ATOM     28  C   UNL     1      -2.752  15.364  21.136  0.00  0.00    +0.005 A 
ATOM     29  C   UNL     1      -2.515  15.744  19.796  0.00  0.00    +0.013 A 
BRANCH  18  19
ATOM     19  C   UNL     1      -2.501  15.623  23.673  0.00  0.00    +0.119 C 
BRANCH  19  20
ATOM     20  N   UNL     1      -3.157  14.287  23.805  0.00  0.00    -0.302 NA
ATOM     21  C   UNL     1      -4.088  14.222  25.019  0.00  0.00    +0.066 C 
ATOM     22  C   UNL     1      -4.782  12.826  25.130  0.00  0.00    -0.064 C 
ATOM     23  N   UNL     1      -3.715  11.733  25.207  0.00  0.00    +0.379 N 
ATOM     24  C   UNL     1      -4.364  10.424  25.369  0.00  0.00    -0.096 C 
ATOM     25  H   UNL     1      -3.102  11.923  26.119  0.00  0.00    -0.082 HD
ATOM     26  C   UNL     1      -2.783  11.792  24.005  0.00  0.00    -0.064 C 
ATOM     27  C   UNL     1      -2.120  13.194  23.887  0.00  0.00    +0.066 C 
ENDBRANCH  19  20
ENDBRANCH  18  19
ENDBRANCH  14  15
ENDBRANCH  12  13
TORSDOF 6
ENDMDL
MODEL 3
REMARK VINA RESULT:      -9.7      2.248     12.978
REMARK  Name = C:\Users\Docking\Desktop\test protocol\1iep_ligandH.pdb
REMARK  8 active torsions:
REMARK  status: ('A' for Active; 'I' for Inactive)
REMARK    1  A    between atoms: _5  and  _11
REMARK    2  A    between atoms: _19  and  _21
REMARK    3  A    between atoms: _22  and  _66
REMARK    4  A    between atoms: _27  and  _30
REMARK    5  A    between atoms: _32  and  _33
REMARK    6  A    between atoms: _38  and  _43
REMARK    7  A    between atoms: _43  and  _46
REMARK    8  A    between atoms: _53  and  _55
REMARK                            x       y       z     vdW  Elec       q    Type
REMARK                         _______ _______ _______ _____ _____    ______ ____
ROOT
ATOM     10  C   UNL     1      -0.277  16.933  19.339  0.00  0.00    +0.038 A 
ATOM     11  C   UNL     1      -0.052  15.657  18.762  0.00  0.00    +0.047 A 
ATOM     12  C   UNL     1      -0.130  14.445  19.563  0.00  0.00    +0.035 A 
ATOM     32  C   UNL     1      -0.442  14.570  20.948  0.00  0.00    +0.024 A 
ATOM     33  C   UNL     1      -0.673  15.859  21.551  0.00  0.00    +0.007 A 
ATOM     34  C   UNL     1      -0.595  17.058  20.766  0.00  0.00    -0.029 A 
ATOM     35  C   UNL     1      -0.846  18.414  21.467  0.00  0.00    +0.045 C 
ENDROOT
BRANCH  10   9
ATOM      4  C   UNL     1      -1.641  19.524  15.535  0.00  0.00    +0.077 A 
ATOM      5  C   UNL     1      -2.589  18.529  15.123  0.00  0.00    +0.048 A 
ATOM      6  C   UNL     1      -2.690  17.362  15.913  0.00  0.00    +0.116 A 
ATOM      7  N   UNL     1      -1.897  17.212  17.030  0.00  0.00    -0.223 NA
ATOM      8  C   UNL     1      -0.992  18.190  17.399  0.00  0.00    +0.220 A 
ATOM      9  N   UNL     1      -0.190  18.064  18.523  0.00  0.00    -0.283 N 
ATOM     36  H   UNL     1       0.471  18.804  18.757  0.00  0.00    +0.155 HD
ATOM     37  N   UNL     1      -0.875  19.313  16.660  0.00  0.00    -0.214 NA
BRANCH   4   3
ATOM      1  C   UNL     1       0.040  22.476  13.595  0.00  0.00    +0.020 A 
ATOM      2  C   UNL     1      -0.119  21.221  14.293  0.00  0.00    +0.013 A 
ATOM      3  C   UNL     1      -1.421  20.813  14.806  0.00  0.00    +0.019 A 
ATOM     38  C   UNL     1      -2.551  21.705  14.594  0.00  0.00    +0.120 A 
ATOM     39  N   UNL     1      -2.367  22.908  13.919  0.00  0.00    -0.263 NA
ATOM     40  C   UNL     1      -1.119  23.312  13.423  0.00  0.00    +0.111 A 
ENDBRANCH   4   3
ENDBRANCH  10   9
BRANCH  12  13
ATOM     13  N   UNL     1       0.097  13.123  19.034  0.00  0.00    -0.281 N 
ATOM     14  C   UNL     1       1.015  12.179  19.466  0.00  0.00    +0.248 C 
ATOM     30  O   UNL     1       1.931  12.410  20.240  0.00  0.00    -0.270 OA
ATOM     31  H   UNL     1      -0.490  12.850  18.246  0.00  0.00    +0.155 HD
BRANCH  14  15
ATOM     15  C   UNL     1       0.907  10.780  18.952  0.00  0.00    +0.037 A 
ATOM     16  C   UNL     1      -0.218  10.364  18.110  0.00  0.00    +0.013 A 
ATOM     17  C   UNL     1      -0.306   9.003  17.642  0.00  0.00    +0.005 A 
ATOM     18  C   UNL     1       0.736   8.049  18.013  0.00  0.00    -0.033 A 
ATOM     28  C   UNL     1       1.843   8.490  18.845  0.00  0.00    +0.005 A 
ATOM     29  C   UNL     1       1.933   9.822  19.307  0.00  0.00    +0.013 A 
BRANCH  18  19
ATOM     19  C   UNL     1       0.712   6.572  17.576  0.00  0.00    +0.119 C 
BRANCH  19  20
ATOM     20  N   UNL     1       1.861   6.082  16.759  0.00  0.00    -0.302 NA
ATOM     21  C   UNL     1       1.762   6.533  15.299  0.00  0.00    +0.066 C 
ATOM     22  C   UNL     1       2.984   6.031  14.463  0.00  0.00    -0.064 C 
ATOM     23  N   UNL     1       3.068   4.506  14.554  0.00  0.00    +0.379 N 
ATOM     24  C   UNL     1       4.181   4.026  13.723  0.00  0.00    -0.096 C 
ATOM     25  H   UNL     1       2.125   4.090  14.131  0.00  0.00    -0.082 HD
ATOM     26  C   UNL     1       3.165   4.049  16.003  0.00  0.00    -0.064 C 
ATOM     27  C   UNL     1       1.961   4.578  16.831  0.00  0.00    +0.066 C 
ENDBRANCH  19  20
ENDBRANCH  18  19
ENDBRANCH  14  15
ENDBRANCH  12  13
TORSDOF 6
ENDMDL
MODEL 4
REMARK VINA RESULT:      -9.7      4.262     12.647
REMARK  Name = C:\Users\Docking\Desktop\test protocol\1iep_ligandH.pdb
REMARK  8 active torsions:
REMARK  status: ('A' for Active; 'I' for Inactive)
REMARK    1  A    between atoms: _5  and  _11
REMARK    2  A    between atoms: _19  and  _21
REMARK    3  A    between atoms: _22  and  _66
REMARK    4  A    between atoms: _27  and  _30
REMARK    5  A    between atoms: _32  and  _33
REMARK    6  A    between atoms: _38  and  _43
REMARK    7  A    between atoms: _43  and  _46
REMARK    8  A    between atoms: _53  and  _55
REMARK                            x       y       z     vdW  Elec       q    Type
REMARK                         _______ _______ _______ _____ _____    ______ ____
ROOT
ATOM     10  C   UNL     1      -2.272  18.838  16.552  0.00  0.00    +0.038 A 
ATOM     11  C   UNL     1      -2.839  17.726  15.879  0.00  0.00    +0.047 A 
ATOM     12  C   UNL     1      -2.620  16.368  16.352  0.00  0.00    +0.035 A 
ATOM     32  C   UNL     1      -1.819  16.180  17.516  0.00  0.00    +0.024 A 
ATOM     33  C   UNL     1      -1.234  17.299  18.212  0.00  0.00    +0.007 A 
ATOM     34  C   UNL     1      -1.445  18.640  17.748  0.00  0.00    -0.029 A 
ATOM     35  C   UNL     1      -0.789  19.802  18.530  0.00  0.00    +0.045 C 
ENDROOT
BRANCH  10   9
ATOM      4  C   UNL     1      -1.241  22.516  13.646  0.00  0.00    +0.077 A 
ATOM      5  C   UNL     1      -0.106  21.837  13.092  0.00  0.00    +0.048 A 
ATOM      6  C   UNL     1       0.183  20.546  13.587  0.00  0.00    +0.116 A 
ATOM      7  N   UNL     1      -0.611  19.985  14.563  0.00  0.00    -0.223 NA
ATOM      8  C   UNL     1      -1.698  20.668  15.077  0.00  0.00    +0.220 A 
ATOM      9  N   UNL     1      -2.516  20.120  16.054  0.00  0.00    -0.283 N 
ATOM     36  H   UNL     1      -3.304  20.659  16.412  0.00  0.00    +0.155 HD
ATOM     37  N   UNL     1      -1.994  21.903  14.622  0.00  0.00    -0.214 NA
BRANCH   4   3
ATOM      1  C   UNL     1      -1.276  26.117  12.119  0.00  0.00    +0.020 A 
ATOM      2  C   UNL     1      -0.806  24.807  12.504  0.00  0.00    +0.013 A 
ATOM      3  C   UNL     1      -1.677  23.885  13.223  0.00  0.00    +0.019 A 
ATOM     38  C   UNL     1      -3.028  24.323  13.538  0.00  0.00    +0.120 A 
ATOM     39  N   UNL     1      -3.453  25.592  13.155  0.00  0.00    -0.263 NA
ATOM     40  C   UNL     1      -2.624  26.488  12.465  0.00  0.00    +0.111 A 
ENDBRANCH   4   3
ENDBRANCH  10   9
BRANCH  12  13
ATOM     13  N   UNL     1      -3.163  15.199  15.705  0.00  0.00    -0.281 N 
ATOM     14  C   UNL     1      -3.071  14.846  14.369  0.00  0.00    +0.248 C 
ATOM     30  O   UNL     1      -2.688  15.593  13.481  0.00  0.00    -0.270 OA
ATOM     31  H   UNL     1      -3.677  14.554  16.305  0.00  0.00    +0.155 HD
BRANCH  14  15
ATOM     15  C   UNL     1      -3.477  13.467  13.957  0.00  0.00    +0.037 A 
ATOM     16  C   UNL     1      -4.508  13.251  12.939  0.00  0.00    +0.013 A 
ATOM     17  C   UNL     1      -4.894  11.911  12.573  0.00  0.00    +0.005 A 
ATOM     18  C   UNL     1      -4.245  10.776  13.225  0.00  0.00    -0.033 A 
ATOM     28  C   UNL     1      -3.222  11.019  14.228  0.00  0.00    +0.005 A 
ATOM     29  C   UNL     1      -2.842  12.331  14.590  0.00  0.00    +0.013 A 
BRANCH  18  19
ATOM     19  C   UNL     1      -4.608   9.313  12.912  0.00  0.00    +0.119 C 
BRANCH  19  20
ATOM     20  N   UNL     1      -3.864   8.646  11.802  0.00  0.00    -0.302 NA
ATOM     21  C   UNL     1      -2.642   7.876  12.310  0.00  0.00    +0.066 C 
ATOM     22  C   UNL     1      -1.889   7.166  11.139  0.00  0.00    -0.064 C 
ATOM     23  N   UNL     1      -1.478   8.207  10.096  0.00  0.00    +0.379 N 
ATOM     24  C   UNL     1      -0.718   7.552   9.021  0.00  0.00    -0.096 C 
ATOM     25  H   UNL     1      -0.797   8.935  10.596  0.00  0.00    -0.082 HD
ATOM     26  C   UNL     1      -2.686   8.980   9.587  0.00  0.00    -0.064 C 
ATOM     27  C   UNL     1      -3.445   9.657  10.763  0.00  0.00    +0.066 C 
ENDBRANCH  19  20
ENDBRANCH  18  19
ENDBRANCH  14  15
ENDBRANCH  12  13
TORSDOF 6
ENDMDL
MODEL 5
REMARK VINA RESULT:      -9.4      2.346     13.493
REMARK  Name = C:\Users\Docking\Desktop\test protocol\1iep_ligandH.pdb
REMARK  8 active torsions:
REMARK  status: ('A' for Active; 'I' for Inactive)
REMARK    1  A    between atoms: _5  and  _11
REMARK    2  A    between atoms: _19  and  _21
REMARK    3  A    between atoms: _22  and  _66
REMARK    4  A    between atoms: _27  and  _30
REMARK    5  A    between atoms: _32  and  _33
REMARK    6  A    between atoms: _38  and  _43
REMARK    7  A    between atoms: _43  and  _46
REMARK    8  A    between atoms: _53  and  _55
REMARK                            x       y       z     vdW  Elec       q    Type
REMARK                         _______ _______ _______ _____ _____    ______ ____
ROOT
ATOM     10  C   UNL     1      -0.273  16.708  19.343  0.00  0.00    +0.038 A 
ATOM     11  C   UNL     1      -0.049  15.376  18.911  0.00  0.00    +0.047 A 
ATOM     12  C   UNL     1      -0.192  14.254  19.825  0.00  0.00    +0.035 A 
ATOM     32  C   UNL     1      -0.569  14.524  21.173  0.00  0.00    +0.024 A 
ATOM     33  C   UNL     1      -0.801  15.872  21.629  0.00  0.00    +0.007 A 
ATOM     34  C   UNL     1      -0.658  16.983  20.732  0.00  0.00    -0.029 A 
ATOM     35  C   UNL     1      -0.912  18.408  21.278  0.00  0.00    +0.045 C 
ENDROOT
BRANCH  10   9
ATOM      4  C   UNL     1      -1.675  19.170  15.468  0.00  0.00    +0.077 A 
ATOM      5  C   UNL     1      -2.789  18.295  15.243  0.00  0.00    +0.048 A 
ATOM      6  C   UNL     1      -2.963  17.220  16.142  0.00  0.00    +0.116 A 
ATOM      7  N   UNL     1      -2.081  17.042  17.187  0.00  0.00    -0.223 NA
ATOM      8  C   UNL     1      -1.015  17.903  17.375  0.00  0.00    +0.220 A 
ATOM      9  N   UNL     1      -0.121  17.747  18.422  0.00  0.00    -0.283 N 
ATOM     36  H   UNL     1       0.657  18.399  18.523  0.00  0.00    +0.155 HD
ATOM     37  N   UNL     1      -0.827  18.937  16.528  0.00  0.00    -0.214 NA
BRANCH   4   3
ATOM      1  C   UNL     1       0.143  21.648  13.048  0.00  0.00    +0.020 A 
ATOM      2  C   UNL     1      -0.111  20.485  13.867  0.00  0.00    +0.013 A 
ATOM      3  C   UNL     1      -1.360  20.353  14.606  0.00  0.00    +0.019 A 
ATOM     38  C   UNL     1      -2.340  21.423  14.493  0.00  0.00    +0.120 A 
ATOM     39  N   UNL     1      -2.067  22.531  13.697  0.00  0.00    -0.263 NA
ATOM     40  C   UNL     1      -0.868  22.670  12.983  0.00  0.00    +0.111 A 
ENDBRANCH   4   3
ENDBRANCH  10   9
BRANCH  12  13
ATOM     13  N   UNL     1       0.031  12.881  19.445  0.00  0.00    -0.281 N 
ATOM     14  C   UNL     1       1.118  12.079  19.750  0.00  0.00    +0.248 C 
ATOM     30  O   UNL     1       2.170  12.489  20.218  0.00  0.00    -0.270 OA
ATOM     31  H   UNL     1      -0.703  12.447  18.884  0.00  0.00    +0.155 HD
BRANCH  14  15
ATOM     15  C   UNL     1       1.031  10.611  19.482  0.00  0.00    +0.037 A 
ATOM     16  C   UNL     1      -0.172   9.847  19.822  0.00  0.00    +0.013 A 
ATOM     17  C   UNL     1      -0.224   8.429  19.569  0.00  0.00    +0.005 A 
ATOM     18  C   UNL     1       0.932   7.766  18.970  0.00  0.00    -0.033 A 
ATOM     28  C   UNL     1       2.111   8.549  18.639  0.00  0.00    +0.005 A 
ATOM     29  C   UNL     1       2.166   9.939  18.886  0.00  0.00    +0.013 A 
BRANCH  18  19
ATOM     19  C   UNL     1       0.973   6.253  18.685  0.00  0.00    +0.119 C 
BRANCH  19  20
ATOM     20  N   UNL     1       1.587   5.376  19.727  0.00  0.00    -0.302 NA
ATOM     21  C   UNL     1       1.745   6.101  21.066  0.00  0.00    +0.066 C 
ATOM     22  C   UNL     1       2.367   5.163  22.151  0.00  0.00    -0.064 C 
ATOM     23  N   UNL     1       3.717   4.640  21.656  0.00  0.00    +0.379 N 
ATOM     24  C   UNL     1       4.331   3.804  22.697  0.00  0.00    -0.096 C 
ATOM     25  H   UNL     1       4.381   5.521  21.493  0.00  0.00    -0.082 HD
ATOM     26  C   UNL     1       3.569   3.921  20.323  0.00  0.00    -0.064 C 
ATOM     27  C   UNL     1       2.923   4.853  19.260  0.00  0.00    +0.066 C 
ENDBRANCH  19  20
ENDBRANCH  18  19
ENDBRANCH  14  15
ENDBRANCH  12  13
TORSDOF 6
ENDMDL
