MODEL 1
REMARK VINA RESULT:      -8.3      0.000      0.000
REMARK  Name = C:\Users\Docking\Desktop\test protocol\1iep_ligandH.pdb
REMARK  8 active torsions:
REMARK  status: ('A' for Active; 'I' for Inactive)
REMARK    1  A    between atoms: _5  and  _11
REMARK    2  A    between atoms: _19  and  _21
REMARK    3  A    between atoms: _22  and  _66
REMARK    4  A    between atoms: _27  and  _30
REMARK    5  A    between atoms: _32  and  _33
REMARK    6  A    between atoms: _38  and  _43
REMARK    7  A    between atoms: _43  and  _46
REMARK    8  A    between atoms: _53  and  _55
REMARK                            x       y       z     vdW  Elec       q    Type
REMARK                         _______ _______ _______ _____ _____    ______ ____
ROOT
ATOM     10  C   UNL     1     -13.740  30.389  27.804  0.00  0.00    +0.038 A 
ATOM     11  C   UNL     1     -14.343  31.104  26.738  0.00  0.00    +0.047 A 
ATOM     12  C   UNL     1     -15.068  30.412  25.683  0.00  0.00    +0.035 A 
ATOM     32  C   UNL     1     -15.161  28.991  25.747  0.00  0.00    +0.024 A 
ATOM     33  C   UNL     1     -14.553  28.249  26.823  0.00  0.00    +0.007 A 
ATOM     34  C   UNL     1     -13.835  28.925  27.865  0.00  0.00    -0.029 A 
ATOM     35  C   UNL     1     -13.198  28.077  28.990  0.00  0.00    +0.045 C 
ENDROOT
BRANCH  10   9
ATOM      4  C   UNL     1     -13.526  33.787  31.187  0.00  0.00    +0.077 A 
ATOM      5  C   UNL     1     -14.882  34.191  30.950  0.00  0.00    +0.048 A 
ATOM      6  C   UNL     1     -15.598  33.503  29.945  0.00  0.00    +0.116 A 
ATOM      7  N   UNL     1     -14.993  32.489  29.235  0.00  0.00    -0.223 NA
ATOM      8  C   UNL     1     -13.683  32.126  29.487  0.00  0.00    +0.220 A 
ATOM      9  N   UNL     1     -13.057  31.104  28.790  0.00  0.00    -0.283 N 
ATOM     36  H   UNL     1     -12.087  30.871  29.001  0.00  0.00    +0.155 HD
ATOM     37  N   UNL     1     -12.977  32.768  30.441  0.00  0.00    -0.214 NA
BRANCH   4   3
ATOM      1  C   UNL     1     -10.522  34.519  33.582  0.00  0.00    +0.020 A 
ATOM      2  C   UNL     1     -11.338  33.873  32.580  0.00  0.00    +0.013 A 
ATOM      3  C   UNL     1     -12.641  34.416  32.218  0.00  0.00    +0.019 A 
ATOM     38  C   UNL     1     -13.093  35.623  32.893  0.00  0.00    +0.120 A 
ATOM     39  N   UNL     1     -12.286  36.222  33.856  0.00  0.00    -0.263 NA
ATOM     40  C   UNL     1     -11.031  35.708  34.214  0.00  0.00    +0.111 A 
ENDBRANCH   4   3
ENDBRANCH  10   9
BRANCH  12  13
ATOM     13  N   UNL     1     -15.694  31.084  24.571  0.00  0.00    -0.281 N 
ATOM     14  C   UNL     1     -16.976  31.604  24.503  0.00  0.00    +0.248 C 
ATOM     30  O   UNL     1     -17.857  31.380  25.319  0.00  0.00    -0.270 OA
ATOM     31  H   UNL     1     -15.122  31.189  23.733  0.00  0.00    +0.155 HD
BRANCH  14  15
ATOM     15  C   UNL     1     -17.335  32.490  23.354  0.00  0.00    +0.037 A 
ATOM     16  C   UNL     1     -17.677  33.900  23.559  0.00  0.00    +0.013 A 
ATOM     17  C   UNL     1     -18.036  34.728  22.435  0.00  0.00    +0.005 A 
ATOM     18  C   UNL     1     -18.055  34.147  21.095  0.00  0.00    -0.033 A 
ATOM     28  C   UNL     1     -17.707  32.747  20.919  0.00  0.00    +0.005 A 
ATOM     29  C   UNL     1     -17.355  31.932  22.018  0.00  0.00    +0.013 A 
BRANCH  18  19
ATOM     19  C   UNL     1     -18.447  34.950  19.840  0.00  0.00    +0.119 C 
BRANCH  19  20
ATOM     20  N   UNL     1     -17.425  35.070  18.758  0.00  0.00    -0.302 NA
ATOM     21  C   UNL     1     -17.156  36.529  18.381  0.00  0.00    +0.066 C 
ATOM     22  C   UNL     1     -16.068  36.637  17.263  0.00  0.00    -0.064 C 
ATOM     23  N   UNL     1     -16.517  35.835  16.040  0.00  0.00    +0.379 N 
ATOM     24  C   UNL     1     -15.524  35.982  14.965  0.00  0.00    -0.096 C 
ATOM     25  H   UNL     1     -17.474  36.278  15.678  0.00  0.00    -0.082 HD
ATOM     26  C   UNL     1     -16.790  34.384  16.406  0.00  0.00    -0.064 C 
ATOM     27  C   UNL     1     -17.851  34.289  17.538  0.00  0.00    +0.066 C 
ENDBRANCH  19  20
ENDBRANCH  18  19
ENDBRANCH  14  15
ENDBRANCH  12  13
TORSDOF 6
ENDMDL
MODEL 2
REMARK VINA RESULT:      -8.2      9.984     16.435
REMARK  Name = C:\Users\Docking\Desktop\test protocol\1iep_ligandH.pdb
REMARK  8 active torsions:
REMARK  status: ('A' for Active; 'I' for Inactive)
REMARK    1  A    between atoms: _5  and  _11
REMARK    2  A    between atoms: _19  and  _21
REMARK    3  A    between atoms: _22  and  _66
REMARK    4  A    between atoms: _27  and  _30
REMARK    5  A    between atoms: _32  and  _33
REMARK    6  A    between atoms: _38  and  _43
REMARK    7  A    between atoms: _43  and  _46
REMARK    8  A    between atoms: _53  and  _55
REMARK                            x       y       z     vdW  Elec       q    Type
REMARK                         _______ _______ _______ _____ _____    ______ ____
ROOT
ATOM     10  C   UNL     1     -10.375  23.938  24.628  0.00  0.00    +0.038 A 
ATOM     11  C   UNL     1     -10.225  22.734  25.362  0.00  0.00    +0.047 A 
ATOM     12  C   UNL     1      -9.842  21.494  24.704  0.00  0.00    +0.035 A 
ATOM     32  C   UNL     1      -9.616  21.518  23.297  0.00  0.00    +0.024 A 
ATOM     33  C   UNL     1      -9.765  22.734  22.535  0.00  0.00    +0.007 A 
ATOM     34  C   UNL     1     -10.145  23.959  23.179  0.00  0.00    -0.029 A 
ATOM     35  C   UNL     1     -10.296  25.230  22.311  0.00  0.00    +0.045 C 
ENDROOT
BRANCH  10   9
ATOM      4  C   UNL     1     -13.668  27.046  26.220  0.00  0.00    +0.077 A 
ATOM      5  C   UNL     1     -14.741  26.309  25.617  0.00  0.00    +0.048 A 
ATOM      6  C   UNL     1     -14.402  25.139  24.900  0.00  0.00    +0.116 A 
ATOM      7  N   UNL     1     -13.085  24.746  24.800  0.00  0.00    -0.223 NA
ATOM      8  C   UNL     1     -12.074  25.481  25.392  0.00  0.00    +0.220 A 
ATOM      9  N   UNL     1     -10.744  25.099  25.311  0.00  0.00    -0.283 N 
ATOM     36  H   UNL     1     -10.027  25.673  25.755  0.00  0.00    +0.155 HD
ATOM     37  N   UNL     1     -12.372  26.602  26.081  0.00  0.00    -0.214 NA
BRANCH   4   3
ATOM      1  C   UNL     1     -13.497  29.739  29.052  0.00  0.00    +0.020 A 
ATOM      2  C   UNL     1     -13.274  28.508  28.328  0.00  0.00    +0.013 A 
ATOM      3  C   UNL     1     -13.866  28.301  27.012  0.00  0.00    +0.019 A 
ATOM     38  C   UNL     1     -14.683  29.367  26.452  0.00  0.00    +0.120 A 
ATOM     39  N   UNL     1     -14.880  30.541  27.173  0.00  0.00    -0.263 NA
ATOM     40  C   UNL     1     -14.318  30.751  28.440  0.00  0.00    +0.111 A 
ENDBRANCH   4   3
ENDBRANCH  10   9
BRANCH  12  13
ATOM     13  N   UNL     1      -9.683  20.239  25.396  0.00  0.00    -0.281 N 
ATOM     14  C   UNL     1      -8.514  19.678  25.884  0.00  0.00    +0.248 C 
ATOM     30  O   UNL     1      -7.391  20.073  25.610  0.00  0.00    -0.270 OA
ATOM     31  H   UNL     1     -10.535  19.699  25.543  0.00  0.00    +0.155 HD
BRANCH  14  15
ATOM     15  C   UNL     1      -8.606  18.499  26.797  0.00  0.00    +0.037 A 
ATOM     16  C   UNL     1      -9.889  17.847  27.069  0.00  0.00    +0.013 A 
ATOM     17  C   UNL     1      -9.953  16.721  27.968  0.00  0.00    +0.005 A 
ATOM     18  C   UNL     1      -8.727  16.239  28.600  0.00  0.00    -0.033 A 
ATOM     28  C   UNL     1      -7.466  16.901  28.307  0.00  0.00    +0.005 A 
ATOM     29  C   UNL     1      -7.400  18.006  27.428  0.00  0.00    +0.013 A 
BRANCH  18  19
ATOM     19  C   UNL     1      -8.703  15.058  29.588  0.00  0.00    +0.119 C 
BRANCH  19  20
ATOM     20  N   UNL     1      -9.099  15.340  31.000  0.00  0.00    -0.302 NA
ATOM     21  C   UNL     1      -8.215  14.595  32.004  0.00  0.00    +0.066 C 
ATOM     22  C   UNL     1      -8.629  14.919  33.476  0.00  0.00    -0.064 C 
ATOM     23  N   UNL     1     -10.102  14.559  33.680  0.00  0.00    +0.379 N 
ATOM     24  C   UNL     1     -10.478  14.809  35.079  0.00  0.00    -0.096 C 
ATOM     25  H   UNL     1     -10.212  13.467  33.489  0.00  0.00    -0.082 HD
ATOM     26  C   UNL     1     -10.988  15.294  32.684  0.00  0.00    -0.064 C 
ATOM     27  C   UNL     1     -10.549  14.988  31.224  0.00  0.00    +0.066 C 
ENDBRANCH  19  20
ENDBRANCH  18  19
ENDBRANCH  14  15
ENDBRANCH  12  13
TORSDOF 6
ENDMDL
MODEL 3
REMARK VINA RESULT:      -8.1     10.535     16.633
REMARK  Name = C:\Users\Docking\Desktop\test protocol\1iep_ligandH.pdb
REMARK  8 active torsions:
REMARK  status: ('A' for Active; 'I' for Inactive)
REMARK    1  A    between atoms: _5  and  _11
REMARK    2  A    between atoms: _19  and  _21
REMARK    3  A    between atoms: _22  and  _66
REMARK    4  A    between atoms: _27  and  _30
REMARK    5  A    between atoms: _32  and  _33
REMARK    6  A    between atoms: _38  and  _43
REMARK    7  A    between atoms: _43  and  _46
REMARK    8  A    between atoms: _53  and  _55
REMARK                            x       y       z     vdW  Elec       q    Type
REMARK                         _______ _______ _______ _____ _____    ______ ____
ROOT
ATOM     10  C   UNL     1     -10.735  24.025  24.576  0.00  0.00    +0.038 A 
ATOM     11  C   UNL     1     -10.423  22.856  25.316  0.00  0.00    +0.047 A 
ATOM     12  C   UNL     1     -10.183  21.586  24.650  0.00  0.00    +0.035 A 
ATOM     32  C   UNL     1     -10.266  21.542  23.228  0.00  0.00    +0.024 A 
ATOM     33  C   UNL     1     -10.583  22.720  22.460  0.00  0.00    +0.007 A 
ATOM     34  C   UNL     1     -10.823  23.976  23.111  0.00  0.00    -0.029 A 
ATOM     35  C   UNL     1     -11.165  25.205  22.238  0.00  0.00    +0.045 C 
ENDROOT
BRANCH  10   9
ATOM      4  C   UNL     1     -13.638  27.373  26.421  0.00  0.00    +0.077 A 
ATOM      5  C   UNL     1     -14.812  26.701  25.945  0.00  0.00    +0.048 A 
ATOM      6  C   UNL     1     -14.626  25.501  25.224  0.00  0.00    +0.116 A 
ATOM      7  N   UNL     1     -13.355  25.017  25.001  0.00  0.00    -0.223 NA
ATOM      8  C   UNL     1     -12.243  25.691  25.472  0.00  0.00    +0.220 A 
ATOM      9  N   UNL     1     -10.956  25.219  25.266  0.00  0.00    -0.283 N 
ATOM     36  H   UNL     1     -10.161  25.749  25.624  0.00  0.00    +0.155 HD
ATOM     37  N   UNL     1     -12.394  26.840  26.162  0.00  0.00    -0.214 NA
BRANCH   4   3
ATOM      1  C   UNL     1     -12.640  30.809  28.001  0.00  0.00    +0.020 A 
ATOM      2  C   UNL     1     -12.557  29.590  27.232  0.00  0.00    +0.013 A 
ATOM      3  C   UNL     1     -13.671  28.650  27.201  0.00  0.00    +0.019 A 
ATOM     38  C   UNL     1     -14.865  28.978  27.966  0.00  0.00    +0.120 A 
ATOM     39  N   UNL     1     -14.916  30.160  28.699  0.00  0.00    -0.263 NA
ATOM     40  C   UNL     1     -13.850  31.070  28.737  0.00  0.00    +0.111 A 
ENDBRANCH   4   3
ENDBRANCH  10   9
BRANCH  12  13
ATOM     13  N   UNL     1      -9.871  20.364  25.350  0.00  0.00    -0.281 N 
ATOM     14  C   UNL     1      -8.624  19.800  25.564  0.00  0.00    +0.248 C 
ATOM     30  O   UNL     1      -7.600  20.153  24.998  0.00  0.00    -0.270 OA
ATOM     31  H   UNL     1     -10.666  19.853  25.734  0.00  0.00    +0.155 HD
BRANCH  14  15
ATOM     15  C   UNL     1      -8.499  18.671  26.536  0.00  0.00    +0.037 A 
ATOM     16  C   UNL     1      -9.672  17.909  26.970  0.00  0.00    +0.013 A 
ATOM     17  C   UNL     1      -9.526  16.836  27.921  0.00  0.00    +0.005 A 
ATOM     18  C   UNL     1      -8.199  16.519  28.445  0.00  0.00    -0.033 A 
ATOM     28  C   UNL     1      -7.052  17.288  27.993  0.00  0.00    +0.005 A 
ATOM     29  C   UNL     1      -7.192  18.341  27.061  0.00  0.00    +0.013 A 
BRANCH  18  19
ATOM     19  C   UNL     1      -7.953  15.405  29.479  0.00  0.00    +0.119 C 
BRANCH  19  20
ATOM     20  N   UNL     1      -6.535  15.019  29.744  0.00  0.00    -0.302 NA
ATOM     21  C   UNL     1      -6.115  13.784  28.942  0.00  0.00    +0.066 C 
ATOM     22  C   UNL     1      -4.622  13.408  29.215  0.00  0.00    -0.064 C 
ATOM     23  N   UNL     1      -4.423  13.175  30.713  0.00  0.00    +0.379 N 
ATOM     24  C   UNL     1      -3.034  12.765  30.965  0.00  0.00    -0.096 C 
ATOM     25  H   UNL     1      -5.086  12.330  31.014  0.00  0.00    -0.082 HD
ATOM     26  C   UNL     1      -4.840  14.397  31.518  0.00  0.00    -0.064 C 
ATOM     27  C   UNL     1      -6.317  14.780  31.218  0.00  0.00    +0.066 C 
ENDBRANCH  19  20
ENDBRANCH  18  19
ENDBRANCH  14  15
ENDBRANCH  12  13
TORSDOF 6
ENDMDL
MODEL 4
REMARK VINA RESULT:      -8.1      1.861      2.860
REMARK  Name = C:\Users\Docking\Desktop\test protocol\1iep_ligandH.pdb
REMARK  8 active torsions:
REMARK  status: ('A' for Active; 'I' for Inactive)
REMARK    1  A    between atoms: _5  and  _11
REMARK    2  A    between atoms: _19  and  _21
REMARK    3  A    between atoms: _22  and  _66
REMARK    4  A    between atoms: _27  and  _30
REMARK    5  A    between atoms: _32  and  _33
REMARK    6  A    between atoms: _38  and  _43
REMARK    7  A    between atoms: _43  and  _46
REMARK    8  A    between atoms: _53  and  _55
REMARK                            x       y       z     vdW  Elec       q    Type
REMARK                         _______ _______ _______ _____ _____    ______ ____
ROOT
ATOM     10  C   UNL     1     -13.725  30.408  27.788  0.00  0.00    +0.038 A 
ATOM     11  C   UNL     1     -14.357  31.144  26.753  0.00  0.00    +0.047 A 
ATOM     12  C   UNL     1     -15.093  30.473  25.694  0.00  0.00    +0.035 A 
ATOM     32  C   UNL     1     -15.169  29.050  25.720  0.00  0.00    +0.024 A 
ATOM     33  C   UNL     1     -14.531  28.285  26.763  0.00  0.00    +0.007 A 
ATOM     34  C   UNL     1     -13.801  28.942  27.810  0.00  0.00    -0.029 A 
ATOM     35  C   UNL     1     -13.132  28.071  28.899  0.00  0.00    +0.045 C 
ENDROOT
BRANCH  10   9
ATOM      4  C   UNL     1     -13.470  33.751  31.222  0.00  0.00    +0.077 A 
ATOM      5  C   UNL     1     -14.826  34.164  31.002  0.00  0.00    +0.048 A 
ATOM      6  C   UNL     1     -15.552  33.496  29.991  0.00  0.00    +0.116 A 
ATOM      7  N   UNL     1     -14.957  32.491  29.261  0.00  0.00    -0.223 NA
ATOM      8  C   UNL     1     -13.647  32.117  29.497  0.00  0.00    +0.220 A 
ATOM      9  N   UNL     1     -13.031  31.103  28.780  0.00  0.00    -0.283 N 
ATOM     36  H   UNL     1     -12.060  30.863  28.980  0.00  0.00    +0.155 HD
ATOM     37  N   UNL     1     -12.931  32.741  30.456  0.00  0.00    -0.214 NA
BRANCH   4   3
ATOM      1  C   UNL     1     -10.466  34.403  33.641  0.00  0.00    +0.020 A 
ATOM      2  C   UNL     1     -11.294  33.776  32.637  0.00  0.00    +0.013 A 
ATOM      3  C   UNL     1     -12.574  34.358  32.257  0.00  0.00    +0.019 A 
ATOM     38  C   UNL     1     -12.992  35.586  32.917  0.00  0.00    +0.120 A 
ATOM     39  N   UNL     1     -12.175  36.166  33.882  0.00  0.00    -0.263 NA
ATOM     40  C   UNL     1     -10.941  35.614  34.257  0.00  0.00    +0.111 A 
ENDBRANCH   4   3
ENDBRANCH  10   9
BRANCH  12  13
ATOM     13  N   UNL     1     -15.748  31.167  24.613  0.00  0.00    -0.281 N 
ATOM     14  C   UNL     1     -17.065  31.593  24.548  0.00  0.00    +0.248 C 
ATOM     30  O   UNL     1     -17.942  31.249  25.328  0.00  0.00    -0.270 OA
ATOM     31  H   UNL     1     -15.171  31.370  23.797  0.00  0.00    +0.155 HD
BRANCH  14  15
ATOM     15  C   UNL     1     -17.471  32.522  23.450  0.00  0.00    +0.037 A 
ATOM     16  C   UNL     1     -18.137  33.795  23.739  0.00  0.00    +0.013 A 
ATOM     17  C   UNL     1     -18.532  34.665  22.661  0.00  0.00    +0.005 A 
ATOM     18  C   UNL     1     -18.262  34.266  21.282  0.00  0.00    -0.033 A 
ATOM     28  C   UNL     1     -17.595  33.000  21.024  0.00  0.00    +0.005 A 
ATOM     29  C   UNL     1     -17.206  32.144  22.079  0.00  0.00    +0.013 A 
BRANCH  18  19
ATOM     19  C   UNL     1     -18.668  35.122  20.068  0.00  0.00    +0.119 C 
BRANCH  19  20
ATOM     20  N   UNL     1     -20.126  35.236  19.769  0.00  0.00    -0.302 NA
ATOM     21  C   UNL     1     -20.786  36.377  20.549  0.00  0.00    +0.066 C 
ATOM     22  C   UNL     1     -22.307  36.496  20.207  0.00  0.00    -0.064 C 
ATOM     23  N   UNL     1     -22.999  35.165  20.505  0.00  0.00    +0.379 N 
ATOM     24  C   UNL     1     -24.440  35.291  20.239  0.00  0.00    -0.096 C 
ATOM     25  H   UNL     1     -22.873  34.954  21.592  0.00  0.00    -0.082 HD
ATOM     26  C   UNL     1     -22.348  34.024  19.735  0.00  0.00    -0.064 C 
ATOM     27  C   UNL     1     -20.831  33.934  20.060  0.00  0.00    +0.066 C 
ENDBRANCH  19  20
ENDBRANCH  18  19
ENDBRANCH  14  15
ENDBRANCH  12  13
TORSDOF 6
ENDMDL
MODEL 5
REMARK VINA RESULT:      -7.9     11.043     16.979
REMARK  Name = C:\Users\Docking\Desktop\test protocol\1iep_ligandH.pdb
REMARK  8 active torsions:
REMARK  status: ('A' for Active; 'I' for Inactive)
REMARK    1  A    between atoms: _5  and  _11
REMARK    2  A    between atoms: _19  and  _21
REMARK    3  A    between atoms: _22  and  _66
REMARK    4  A    between atoms: _27  and  _30
REMARK    5  A    between atoms: _32  and  _33
REMARK    6  A    between atoms: _38  and  _43
REMARK    7  A    between atoms: _43  and  _46
REMARK    8  A    between atoms: _53  and  _55
REMARK                            x       y       z     vdW  Elec       q    Type
REMARK                         _______ _______ _______ _____ _____    ______ ____
ROOT
ATOM     10  C   UNL     1      -9.849  23.933  25.085  0.00  0.00    +0.038 A 
ATOM     11  C   UNL     1      -9.682  22.793  25.913  0.00  0.00    +0.047 A 
ATOM     12  C   UNL     1      -9.110  21.562  25.392  0.00  0.00    +0.035 A 
ATOM     32  C   UNL     1      -8.716  21.526  24.022  0.00  0.00    +0.024 A 
ATOM     33  C   UNL     1      -8.880  22.675  23.166  0.00  0.00    +0.007 A 
ATOM     34  C   UNL     1      -9.446  23.892  23.674  0.00  0.00    -0.029 A 
ATOM     35  C   UNL     1      -9.604  25.090  22.709  0.00  0.00    +0.045 C 
ENDROOT
BRANCH  10   9
ATOM      4  C   UNL     1     -13.590  26.760  26.111  0.00  0.00    +0.077 A 
ATOM      5  C   UNL     1     -14.514  25.870  25.469  0.00  0.00    +0.048 A 
ATOM      6  C   UNL     1     -13.985  24.700  24.880  0.00  0.00    +0.116 A 
ATOM      7  N   UNL     1     -12.632  24.447  24.936  0.00  0.00    -0.223 NA
ATOM      8  C   UNL     1     -11.768  25.327  25.562  0.00  0.00    +0.220 A 
ATOM      9  N   UNL     1     -10.404  25.089  25.638  0.00  0.00    -0.283 N 
ATOM     36  H   UNL     1      -9.799  25.766  26.102  0.00  0.00    +0.155 HD
ATOM     37  N   UNL     1     -12.248  26.452  26.131  0.00  0.00    -0.214 NA
BRANCH   4   3
ATOM      1  C   UNL     1     -15.068  30.318  26.782  0.00  0.00    +0.020 A 
ATOM      2  C   UNL     1     -14.699  29.107  26.087  0.00  0.00    +0.013 A 
ATOM      3  C   UNL     1     -13.996  28.035  26.782  0.00  0.00    +0.019 A 
ATOM     38  C   UNL     1     -13.680  28.223  28.190  0.00  0.00    +0.120 A 
ATOM     39  N   UNL     1     -14.048  29.401  28.832  0.00  0.00    -0.263 NA
ATOM     40  C   UNL     1     -14.723  30.440  28.173  0.00  0.00    +0.111 A 
ENDBRANCH   4   3
ENDBRANCH  10   9
BRANCH  12  13
ATOM     13  N   UNL     1      -8.923  20.371  26.183  0.00  0.00    -0.281 N 
ATOM     14  C   UNL     1      -9.601  19.167  26.082  0.00  0.00    +0.248 C 
ATOM     30  O   UNL     1     -10.623  19.001  25.433  0.00  0.00    -0.270 OA
ATOM     31  H   UNL     1      -8.204  20.421  26.904  0.00  0.00    +0.155 HD
BRANCH  14  15
ATOM     15  C   UNL     1      -9.075  17.978  26.820  0.00  0.00    +0.037 A 
ATOM     16  C   UNL     1      -9.772  16.690  26.782  0.00  0.00    +0.013 A 
ATOM     17  C   UNL     1      -9.253  15.564  27.517  0.00  0.00    +0.005 A 
ATOM     18  C   UNL     1      -8.027  15.722  28.295  0.00  0.00    -0.033 A 
ATOM     28  C   UNL     1      -7.352  17.009  28.311  0.00  0.00    +0.005 A 
ATOM     29  C   UNL     1      -7.859  18.115  27.593  0.00  0.00    +0.013 A 
BRANCH  18  19
ATOM     19  C   UNL     1      -7.412  14.580  29.127  0.00  0.00    +0.119 C 
BRANCH  19  20
ATOM     20  N   UNL     1      -5.983  14.234  28.862  0.00  0.00    -0.302 NA
ATOM     21  C   UNL     1      -5.813  13.460  27.552  0.00  0.00    +0.066 C 
ATOM     22  C   UNL     1      -4.310  13.126  27.279  0.00  0.00    -0.064 C 
ATOM     23  N   UNL     1      -3.746  12.329  28.457  0.00  0.00    +0.379 N 
ATOM     24  C   UNL     1      -2.350  11.963  28.178  0.00  0.00    -0.096 C 
ATOM     25  H   UNL     1      -4.334  11.385  28.538  0.00  0.00    -0.082 HD
ATOM     26  C   UNL     1      -3.914  13.090  29.764  0.00  0.00    -0.064 C 
ATOM     27  C   UNL     1      -5.407  13.443  30.011  0.00  0.00    +0.066 C 
ENDBRANCH  19  20
ENDBRANCH  18  19
ENDBRANCH  14  15
ENDBRANCH  12  13
TORSDOF 6
ENDMDL
