MODEL 1
REMARK VINA RESULT:      -9.1      0.000      0.000
REMARK  Name = C:\Users\Docking\Desktop\test protocol\1iep_ligandH.pdb
REMARK  8 active torsions:
REMARK  status: ('A' for Active; 'I' for Inactive)
REMARK    1  A    between atoms: _5  and  _11
REMARK    2  A    between atoms: _19  and  _21
REMARK    3  A    between atoms: _22  and  _66
REMARK    4  A    between atoms: _27  and  _30
REMARK    5  A    between atoms: _32  and  _33
REMARK    6  A    between atoms: _38  and  _43
REMARK    7  A    between atoms: _43  and  _46
REMARK    8  A    between atoms: _53  and  _55
REMARK                            x       y       z     vdW  Elec       q    Type
REMARK                         _______ _______ _______ _____ _____    ______ ____
ROOT
ATOM     10  C   UNL     1     -11.866 100.932  36.721  0.00  0.00    +0.038 A 
ATOM     11  C   UNL     1     -13.127 101.113  36.098  0.00  0.00    +0.047 A 
ATOM     12  C   UNL     1     -14.365 100.905  36.834  0.00  0.00    +0.035 A 
ATOM     32  C   UNL     1     -14.281 100.517  38.203  0.00  0.00    +0.024 A 
ATOM     33  C   UNL     1     -13.007 100.329  38.851  0.00  0.00    +0.007 A 
ATOM     34  C   UNL     1     -11.783 100.529  38.130  0.00  0.00    -0.029 A 
ATOM     35  C   UNL     1     -10.445 100.306  38.873  0.00  0.00    +0.045 C 
ENDROOT
BRANCH  10   9
ATOM      4  C   UNL     1      -8.502  99.469  33.625  0.00  0.00    +0.077 A 
ATOM      5  C   UNL     1      -9.083  98.161  33.521  0.00  0.00    +0.048 A 
ATOM      6  C   UNL     1     -10.243  97.904  34.285  0.00  0.00    +0.116 A 
ATOM      7  N   UNL     1     -10.774  98.888  35.091  0.00  0.00    -0.223 NA
ATOM      8  C   UNL     1     -10.188 100.138  35.170  0.00  0.00    +0.220 A 
ATOM      9  N   UNL     1     -10.709 101.145  35.967  0.00  0.00    -0.283 N 
ATOM     36  H   UNL     1     -10.243 102.051  36.004  0.00  0.00    +0.155 HD
ATOM     37  N   UNL     1      -9.078 100.408  34.451  0.00  0.00    -0.214 NA
BRANCH   4   3
ATOM      1  C   UNL     1      -5.103 101.160  32.682  0.00  0.00    +0.020 A 
ATOM      2  C   UNL     1      -6.268 100.779  33.447  0.00  0.00    +0.013 A 
ATOM      3  C   UNL     1      -7.277  99.894  32.877  0.00  0.00    +0.019 A 
ATOM     38  C   UNL     1      -7.074  99.408  31.521  0.00  0.00    +0.120 A 
ATOM     39  N   UNL     1      -5.943  99.792  30.808  0.00  0.00    -0.263 NA
ATOM     40  C   UNL     1      -4.967 100.644  31.345  0.00  0.00    +0.111 A 
ENDBRANCH   4   3
ENDBRANCH  10   9
BRANCH  12  13
ATOM     13  N   UNL     1     -15.675 101.065  36.253  0.00  0.00    -0.281 N 
ATOM     14  C   UNL     1     -16.055 101.921  35.232  0.00  0.00    +0.248 C 
ATOM     30  O   UNL     1     -15.368 102.836  34.805  0.00  0.00    -0.270 OA
ATOM     31  H   UNL     1     -16.412 100.477  36.642  0.00  0.00    +0.155 HD
BRANCH  14  15
ATOM     15  C   UNL     1     -17.400 101.743  34.603  0.00  0.00    +0.037 A 
ATOM     16  C   UNL     1     -18.495 102.677  34.874  0.00  0.00    +0.013 A 
ATOM     17  C   UNL     1     -19.787 102.472  34.268  0.00  0.00    +0.005 A 
ATOM     18  C   UNL     1     -19.989 101.327  33.383  0.00  0.00    -0.033 A 
ATOM     28  C   UNL     1     -18.884 100.419  33.128  0.00  0.00    +0.005 A 
ATOM     29  C   UNL     1     -17.617 100.616  33.721  0.00  0.00    +0.013 A 
BRANCH  18  19
ATOM     19  C   UNL     1     -21.340 101.019  32.710  0.00  0.00    +0.119 C 
BRANCH  19  20
ATOM     20  N   UNL     1     -22.170  99.931  33.308  0.00  0.00    -0.302 NA
ATOM     21  C   UNL     1     -22.152  98.660  32.454  0.00  0.00    +0.066 C 
ATOM     22  C   UNL     1     -23.007  97.525  33.106  0.00  0.00    -0.064 C 
ATOM     23  N   UNL     1     -24.440  98.021  33.309  0.00  0.00    +0.379 N 
ATOM     24  C   UNL     1     -25.260  96.937  33.869  0.00  0.00    -0.096 C 
ATOM     25  H   UNL     1     -24.854  98.277  32.306  0.00  0.00    -0.082 HD
ATOM     26  C   UNL     1     -24.466  99.287  34.155  0.00  0.00    -0.064 C 
ATOM     27  C   UNL     1     -23.590 100.399  33.513  0.00  0.00    +0.066 C 
ENDBRANCH  19  20
ENDBRANCH  18  19
ENDBRANCH  14  15
ENDBRANCH  12  13
TORSDOF 6
ENDMDL
MODEL 2
REMARK VINA RESULT:      -9.0      2.950     13.169
REMARK  Name = C:\Users\Docking\Desktop\test protocol\1iep_ligandH.pdb
REMARK  8 active torsions:
REMARK  status: ('A' for Active; 'I' for Inactive)
REMARK    1  A    between atoms: _5  and  _11
REMARK    2  A    between atoms: _19  and  _21
REMARK    3  A    between atoms: _22  and  _66
REMARK    4  A    between atoms: _27  and  _30
REMARK    5  A    between atoms: _32  and  _33
REMARK    6  A    between atoms: _38  and  _43
REMARK    7  A    between atoms: _43  and  _46
REMARK    8  A    between atoms: _53  and  _55
REMARK                            x       y       z     vdW  Elec       q    Type
REMARK                         _______ _______ _______ _____ _____    ______ ____
ROOT
ATOM     10  C   UNL     1     -12.890  99.964  37.377  0.00  0.00    +0.038 A 
ATOM     11  C   UNL     1     -11.796  99.677  36.521  0.00  0.00    +0.047 A 
ATOM     12  C   UNL     1     -10.429  99.690  37.017  0.00  0.00    +0.035 A 
ATOM     32  C   UNL     1     -10.212  99.999  38.391  0.00  0.00    +0.024 A 
ATOM     33  C   UNL     1     -11.312 100.295  39.275  0.00  0.00    +0.007 A 
ATOM     34  C   UNL     1     -12.663 100.285  38.791  0.00  0.00    -0.029 A 
ATOM     35  C   UNL     1     -13.803 100.617  39.782  0.00  0.00    +0.045 C 
ENDROOT
BRANCH  10   9
ATOM      4  C   UNL     1     -16.441 101.880  34.777  0.00  0.00    +0.077 A 
ATOM      5  C   UNL     1     -15.666 103.047  34.469  0.00  0.00    +0.048 A 
ATOM      6  C   UNL     1     -14.361 103.119  35.005  0.00  0.00    +0.116 A 
ATOM      7  N   UNL     1     -13.877 102.094  35.789  0.00  0.00    -0.223 NA
ATOM      8  C   UNL     1     -14.652 100.983  36.068  0.00  0.00    +0.220 A 
ATOM      9  N   UNL     1     -14.182  99.937  36.847  0.00  0.00    -0.283 N 
ATOM     36  H   UNL     1     -14.788  99.138  37.036  0.00  0.00    +0.155 HD
ATOM     37  N   UNL     1     -15.902 100.891  35.569  0.00  0.00    -0.214 NA
BRANCH   4   3
ATOM      1  C   UNL     1     -20.264 102.308  34.066  0.00  0.00    +0.020 A 
ATOM      2  C   UNL     1     -18.935 102.570  34.569  0.00  0.00    +0.013 A 
ATOM      3  C   UNL     1     -17.837 101.656  34.282  0.00  0.00    +0.019 A 
ATOM     38  C   UNL     1     -18.118 100.478  33.476  0.00  0.00    +0.120 A 
ATOM     39  N   UNL     1     -19.408 100.250  33.007  0.00  0.00    -0.263 NA
ATOM     40  C   UNL     1     -20.474 101.122  33.279  0.00  0.00    +0.111 A 
ENDBRANCH   4   3
ENDBRANCH  10   9
BRANCH  12  13
ATOM     13  N   UNL     1      -9.278  99.414  36.193  0.00  0.00    -0.281 N 
ATOM     14  C   UNL     1      -9.181  99.488  34.813  0.00  0.00    +0.248 C 
ATOM     30  O   UNL     1     -10.136  99.596  34.058  0.00  0.00    -0.270 OA
ATOM     31  H   UNL     1      -8.432  99.130  36.688  0.00  0.00    +0.155 HD
BRANCH  14  15
ATOM     15  C   UNL     1      -7.829  99.415  34.180  0.00  0.00    +0.037 A 
ATOM     16  C   UNL     1      -7.310 100.520  33.369  0.00  0.00    +0.013 A 
ATOM     17  C   UNL     1      -6.010 100.417  32.755  0.00  0.00    +0.005 A 
ATOM     18  C   UNL     1      -5.219  99.204  32.951  0.00  0.00    -0.033 A 
ATOM     28  C   UNL     1      -5.756  98.126  33.765  0.00  0.00    +0.005 A 
ATOM     29  C   UNL     1      -7.030  98.223  34.367  0.00  0.00    +0.013 A 
BRANCH  18  19
ATOM     19  C   UNL     1      -3.830  99.000  32.317  0.00  0.00    +0.119 C 
BRANCH  19  20
ATOM     20  N   UNL     1      -2.788  98.332  33.152  0.00  0.00    -0.302 NA
ATOM     21  C   UNL     1      -2.302  99.233  34.291  0.00  0.00    +0.066 C 
ATOM     22  C   UNL     1      -1.228  98.511  35.169  0.00  0.00    -0.064 C 
ATOM     23  N   UNL     1      -0.058  98.077  34.285  0.00  0.00    +0.379 N 
ATOM     24  C   UNL     1       0.979  97.449  35.116  0.00  0.00    -0.096 C 
ATOM     25  H   UNL     1       0.381  98.995  33.831  0.00  0.00    -0.082 HD
ATOM     26  C   UNL     1      -0.534  97.183  33.148  0.00  0.00    -0.064 C 
ATOM     27  C   UNL     1      -1.621  97.899  32.300  0.00  0.00    +0.066 C 
ENDBRANCH  19  20
ENDBRANCH  18  19
ENDBRANCH  14  15
ENDBRANCH  12  13
TORSDOF 6
ENDMDL
MODEL 3
REMARK VINA RESULT:      -8.9      2.630     13.282
REMARK  Name = C:\Users\Docking\Desktop\test protocol\1iep_ligandH.pdb
REMARK  8 active torsions:
REMARK  status: ('A' for Active; 'I' for Inactive)
REMARK    1  A    between atoms: _5  and  _11
REMARK    2  A    between atoms: _19  and  _21
REMARK    3  A    between atoms: _22  and  _66
REMARK    4  A    between atoms: _27  and  _30
REMARK    5  A    between atoms: _32  and  _33
REMARK    6  A    between atoms: _38  and  _43
REMARK    7  A    between atoms: _43  and  _46
REMARK    8  A    between atoms: _53  and  _55
REMARK                            x       y       z     vdW  Elec       q    Type
REMARK                         _______ _______ _______ _____ _____    ______ ____
ROOT
ATOM     10  C   UNL     1     -12.500  99.906  37.132  0.00  0.00    +0.038 A 
ATOM     11  C   UNL     1     -11.426  99.601  36.256  0.00  0.00    +0.047 A 
ATOM     12  C   UNL     1     -10.048  99.626  36.719  0.00  0.00    +0.035 A 
ATOM     32  C   UNL     1      -9.798  99.964  38.081  0.00  0.00    +0.024 A 
ATOM     33  C   UNL     1     -10.877 100.278  38.985  0.00  0.00    +0.007 A 
ATOM     34  C   UNL     1     -12.239 100.257  38.533  0.00  0.00    -0.029 A 
ATOM     35  C   UNL     1     -13.355 100.609  39.544  0.00  0.00    +0.045 C 
ENDROOT
BRANCH  10   9
ATOM      4  C   UNL     1     -16.190 101.866  34.770  0.00  0.00    +0.077 A 
ATOM      5  C   UNL     1     -15.468 103.082  34.530  0.00  0.00    +0.048 A 
ATOM      6  C   UNL     1     -14.152 103.165  35.038  0.00  0.00    +0.116 A 
ATOM      7  N   UNL     1     -13.608 102.106  35.731  0.00  0.00    -0.223 NA
ATOM      8  C   UNL     1     -14.333 100.948  35.946  0.00  0.00    +0.220 A 
ATOM      9  N   UNL     1     -13.804  99.867  36.634  0.00  0.00    -0.283 N 
ATOM     36  H   UNL     1     -14.374  99.033  36.779  0.00  0.00    +0.155 HD
ATOM     37  N   UNL     1     -15.593 100.844  35.474  0.00  0.00    -0.214 NA
BRANCH   4   3
ATOM      1  C   UNL     1     -20.027 102.248  34.109  0.00  0.00    +0.020 A 
ATOM      2  C   UNL     1     -18.694 102.527  34.593  0.00  0.00    +0.013 A 
ATOM      3  C   UNL     1     -17.589 101.625  34.295  0.00  0.00    +0.019 A 
ATOM     38  C   UNL     1     -17.869 100.440  33.498  0.00  0.00    +0.120 A 
ATOM     39  N   UNL     1     -19.162 100.196  33.047  0.00  0.00    -0.263 NA
ATOM     40  C   UNL     1     -20.234 101.057  33.329  0.00  0.00    +0.111 A 
ENDBRANCH   4   3
ENDBRANCH  10   9
BRANCH  12  13
ATOM     13  N   UNL     1      -8.916  99.334  35.874  0.00  0.00    -0.281 N 
ATOM     14  C   UNL     1      -8.496 100.019  34.746  0.00  0.00    +0.248 C 
ATOM     30  O   UNL     1      -9.157 100.868  34.167  0.00  0.00    -0.270 OA
ATOM     31  H   UNL     1      -8.358  98.522  36.140  0.00  0.00    +0.155 HD
BRANCH  14  15
ATOM     15  C   UNL     1      -7.152  99.707  34.171  0.00  0.00    +0.037 A 
ATOM     16  C   UNL     1      -6.829 100.029  32.779  0.00  0.00    +0.013 A 
ATOM     17  C   UNL     1      -5.531  99.702  32.243  0.00  0.00    +0.005 A 
ATOM     18  C   UNL     1      -4.546  99.049  33.103  0.00  0.00    -0.033 A 
ATOM     28  C   UNL     1      -4.892  98.746  34.481  0.00  0.00    +0.005 A 
ATOM     29  C   UNL     1      -6.163  99.064  35.009  0.00  0.00    +0.013 A 
BRANCH  18  19
ATOM     19  C   UNL     1      -3.144  98.644  32.610  0.00  0.00    +0.119 C 
BRANCH  19  20
ATOM     20  N   UNL     1      -2.598  99.373  31.426  0.00  0.00    -0.302 NA
ATOM     21  C   UNL     1      -1.702  98.479  30.564  0.00  0.00    +0.066 C 
ATOM     22  C   UNL     1      -1.159  99.250  29.318  0.00  0.00    -0.064 C 
ATOM     23  N   UNL     1      -0.397 100.493  29.782  0.00  0.00    +0.379 N 
ATOM     24  C   UNL     1       0.164 101.189  28.616  0.00  0.00    -0.096 C 
ATOM     25  H   UNL     1       0.454 100.150  30.415  0.00  0.00    -0.082 HD
ATOM     26  C   UNL     1      -1.280 101.386  30.642  0.00  0.00    -0.064 C 
ATOM     27  C   UNL     1      -1.839 100.601  31.862  0.00  0.00    +0.066 C 
ENDBRANCH  19  20
ENDBRANCH  18  19
ENDBRANCH  14  15
ENDBRANCH  12  13
TORSDOF 6
ENDMDL
MODEL 4
REMARK VINA RESULT:      -8.8      2.535     12.113
REMARK  Name = C:\Users\Docking\Desktop\test protocol\1iep_ligandH.pdb
REMARK  8 active torsions:
REMARK  status: ('A' for Active; 'I' for Inactive)
REMARK    1  A    between atoms: _5  and  _11
REMARK    2  A    between atoms: _19  and  _21
REMARK    3  A    between atoms: _22  and  _66
REMARK    4  A    between atoms: _27  and  _30
REMARK    5  A    between atoms: _32  and  _33
REMARK    6  A    between atoms: _38  and  _43
REMARK    7  A    between atoms: _43  and  _46
REMARK    8  A    between atoms: _53  and  _55
REMARK                            x       y       z     vdW  Elec       q    Type
REMARK                         _______ _______ _______ _____ _____    ______ ____
ROOT
ATOM     10  C   UNL     1     -12.998 100.272  37.250  0.00  0.00    +0.038 A 
ATOM     11  C   UNL     1     -11.960 100.152  36.290  0.00  0.00    +0.047 A 
ATOM     12  C   UNL     1     -10.563 100.127  36.692  0.00  0.00    +0.035 A 
ATOM     32  C   UNL     1     -10.258 100.224  38.081  0.00  0.00    +0.024 A 
ATOM     33  C   UNL     1     -11.300 100.348  39.070  0.00  0.00    +0.007 A 
ATOM     34  C   UNL     1     -12.680 100.376  38.679  0.00  0.00    -0.029 A 
ATOM     35  C   UNL     1     -13.755 100.516  39.781  0.00  0.00    +0.045 C 
ENDROOT
BRANCH  10   9
ATOM      4  C   UNL     1     -16.588 102.203  34.715  0.00  0.00    +0.077 A 
ATOM      5  C   UNL     1     -15.761 103.281  34.254  0.00  0.00    +0.048 A 
ATOM      6  C   UNL     1     -14.420 103.306  34.698  0.00  0.00    +0.116 A 
ATOM      7  N   UNL     1     -13.951 102.321  35.540  0.00  0.00    -0.223 NA
ATOM      8  C   UNL     1     -14.775 101.296  35.967  0.00  0.00    +0.220 A 
ATOM      9  N   UNL     1     -14.323 100.291  36.808  0.00  0.00    -0.283 N 
ATOM     36  H   UNL     1     -14.964  99.556  37.106  0.00  0.00    +0.155 HD
ATOM     37  N   UNL     1     -16.061 101.250  35.559  0.00  0.00    -0.214 NA
BRANCH   4   3
ATOM      1  C   UNL     1     -20.439 102.772  34.329  0.00  0.00    +0.020 A 
ATOM      2  C   UNL     1     -19.065 102.979  34.727  0.00  0.00    +0.013 A 
ATOM      3  C   UNL     1     -18.026 102.037  34.332  0.00  0.00    +0.019 A 
ATOM     38  C   UNL     1     -18.412 100.887  33.527  0.00  0.00    +0.120 A 
ATOM     39  N   UNL     1     -19.743 100.714  33.161  0.00  0.00    -0.263 NA
ATOM     40  C   UNL     1     -20.752 101.613  33.536  0.00  0.00    +0.111 A 
ENDBRANCH   4   3
ENDBRANCH  10   9
BRANCH  12  13
ATOM     13  N   UNL     1      -9.466 100.015  35.763  0.00  0.00    -0.281 N 
ATOM     14  C   UNL     1      -9.252  99.030  34.813  0.00  0.00    +0.248 C 
ATOM     30  O   UNL     1      -9.865  97.974  34.762  0.00  0.00    -0.270 OA
ATOM     31  H   UNL     1      -8.762 100.752  35.811  0.00  0.00    +0.155 HD
BRANCH  14  15
ATOM     15  C   UNL     1      -8.195  99.243  33.777  0.00  0.00    +0.037 A 
ATOM     16  C   UNL     1      -7.098  98.288  33.605  0.00  0.00    +0.013 A 
ATOM     17  C   UNL     1      -6.082  98.525  32.610  0.00  0.00    +0.005 A 
ATOM     18  C   UNL     1      -6.160  99.724  31.779  0.00  0.00    -0.033 A 
ATOM     28  C   UNL     1      -7.263 100.652  31.968  0.00  0.00    +0.005 A 
ATOM     29  C   UNL     1      -8.260 100.423  32.942  0.00  0.00    +0.013 A 
BRANCH  18  19
ATOM     19  C   UNL     1      -5.109 100.069  30.707  0.00  0.00    +0.119 C 
BRANCH  19  20
ATOM     20  N   UNL     1      -5.301  99.482  29.348  0.00  0.00    -0.302 NA
ATOM     21  C   UNL     1      -3.973  99.063  28.710  0.00  0.00    +0.066 C 
ATOM     22  C   UNL     1      -4.194  98.431  27.297  0.00  0.00    -0.064 C 
ATOM     23  N   UNL     1      -4.932  99.430  26.405  0.00  0.00    +0.379 N 
ATOM     24  C   UNL     1      -5.090  98.860  25.058  0.00  0.00    -0.096 C 
ATOM     25  H   UNL     1      -4.293 100.339  26.315  0.00  0.00    -0.082 HD
ATOM     26  C   UNL     1      -6.252  99.854  27.032  0.00  0.00    -0.064 C 
ATOM     27  C   UNL     1      -6.024 100.454  28.448  0.00  0.00    +0.066 C 
ENDBRANCH  19  20
ENDBRANCH  18  19
ENDBRANCH  14  15
ENDBRANCH  12  13
TORSDOF 6
ENDMDL
MODEL 5
REMARK VINA RESULT:      -8.7      3.454     12.651
REMARK  Name = C:\Users\Docking\Desktop\test protocol\1iep_ligandH.pdb
REMARK  8 active torsions:
REMARK  status: ('A' for Active; 'I' for Inactive)
REMARK    1  A    between atoms: _5  and  _11
REMARK    2  A    between atoms: _19  and  _21
REMARK    3  A    between atoms: _22  and  _66
REMARK    4  A    between atoms: _27  and  _30
REMARK    5  A    between atoms: _32  and  _33
REMARK    6  A    between atoms: _38  and  _43
REMARK    7  A    between atoms: _43  and  _46
REMARK    8  A    between atoms: _53  and  _55
REMARK                            x       y       z     vdW  Elec       q    Type
REMARK                         _______ _______ _______ _____ _____    ______ ____
ROOT
ATOM     10  C   UNL     1     -12.123 100.507  35.708  0.00  0.00    +0.038 A 
ATOM     11  C   UNL     1     -11.347 100.495  34.522  0.00  0.00    +0.047 A 
ATOM     12  C   UNL     1      -9.895 100.414  34.573  0.00  0.00    +0.035 A 
ATOM     32  C   UNL     1      -9.267 100.342  35.851  0.00  0.00    +0.024 A 
ATOM     33  C   UNL     1     -10.042 100.354  37.067  0.00  0.00    +0.007 A 
ATOM     34  C   UNL     1     -11.473 100.437  37.023  0.00  0.00    -0.029 A 
ATOM     35  C   UNL     1     -12.252 100.452  38.359  0.00  0.00    +0.045 C 
ENDROOT
BRANCH  10   9
ATOM      4  C   UNL     1     -16.148 102.816  34.482  0.00  0.00    +0.077 A 
ATOM      5  C   UNL     1     -15.421 103.973  34.044  0.00  0.00    +0.048 A 
ATOM      6  C   UNL     1     -14.013 103.936  34.158  0.00  0.00    +0.116 A 
ATOM      7  N   UNL     1     -13.390 102.820  34.673  0.00  0.00    -0.223 NA
ATOM      8  C   UNL     1     -14.121 101.722  35.087  0.00  0.00    +0.220 A 
ATOM      9  N   UNL     1     -13.514 100.586  35.600  0.00  0.00    -0.283 N 
ATOM     36  H   UNL     1     -14.088  99.800  35.902  0.00  0.00    +0.155 HD
ATOM     37  N   UNL     1     -15.466 101.733  34.990  0.00  0.00    -0.214 NA
BRANCH   4   3
ATOM      1  C   UNL     1     -19.967 103.496  34.986  0.00  0.00    +0.020 A 
ATOM      2  C   UNL     1     -18.534 103.651  35.075  0.00  0.00    +0.013 A 
ATOM      3  C   UNL     1     -17.640 102.702  34.423  0.00  0.00    +0.019 A 
ATOM     38  C   UNL     1     -18.233 101.599  33.682  0.00  0.00    +0.120 A 
ATOM     39  N   UNL     1     -19.618 101.474  33.615  0.00  0.00    -0.263 NA
ATOM     40  C   UNL     1     -20.488 102.380  34.240  0.00  0.00    +0.111 A 
ENDBRANCH   4   3
ENDBRANCH  10   9
BRANCH  12  13
ATOM     13  N   UNL     1      -9.054 100.407  33.402  0.00  0.00    -0.281 N 
ATOM     14  C   UNL     1      -8.876  99.382  32.488  0.00  0.00    +0.248 C 
ATOM     30  O   UNL     1      -9.253  98.231  32.657  0.00  0.00    -0.270 OA
ATOM     31  H   UNL     1      -8.525 101.261  33.226  0.00  0.00    +0.155 HD
BRANCH  14  15
ATOM     15  C   UNL     1      -8.164  99.673  31.206  0.00  0.00    +0.037 A 
ATOM     16  C   UNL     1      -8.903  99.947  29.971  0.00  0.00    +0.013 A 
ATOM     17  C   UNL     1      -8.192 100.208  28.745  0.00  0.00    +0.005 A 
ATOM     18  C   UNL     1      -6.731 100.197  28.749  0.00  0.00    -0.033 A 
ATOM     28  C   UNL     1      -6.023  99.928  29.989  0.00  0.00    +0.005 A 
ATOM     29  C   UNL     1      -6.717  99.671  31.192  0.00  0.00    +0.013 A 
BRANCH  18  19
ATOM     19  C   UNL     1      -5.890 100.444  27.482  0.00  0.00    +0.119 C 
BRANCH  19  20
ATOM     20  N   UNL     1      -5.314  99.248  26.800  0.00  0.00    -0.302 NA
ATOM     21  C   UNL     1      -3.961  98.843  27.393  0.00  0.00    +0.066 C 
ATOM     22  C   UNL     1      -3.383  97.576  26.682  0.00  0.00    -0.064 C 
ATOM     23  N   UNL     1      -3.257  97.849  25.183  0.00  0.00    +0.379 N 
ATOM     24  C   UNL     1      -2.660  96.680  24.520  0.00  0.00    -0.096 C 
ATOM     25  H   UNL     1      -2.556  98.706  25.053  0.00  0.00    -0.082 HD
ATOM     26  C   UNL     1      -4.597  98.254  24.585  0.00  0.00    -0.064 C 
ATOM     27  C   UNL     1      -5.176  99.497  25.318  0.00  0.00    +0.066 C 
ENDBRANCH  19  20
ENDBRANCH  18  19
ENDBRANCH  14  15
ENDBRANCH  12  13
TORSDOF 6
ENDMDL
