MODEL 1
REMARK VINA RESULT:      -8.8      0.000      0.000
REMARK  Name = C:\Users\Docking\Desktop\test protocol\1iep_ligandH.pdb
REMARK  8 active torsions:
REMARK  status: ('A' for Active; 'I' for Inactive)
REMARK    1  A    between atoms: _5  and  _11
REMARK    2  A    between atoms: _19  and  _21
REMARK    3  A    between atoms: _22  and  _66
REMARK    4  A    between atoms: _27  and  _30
REMARK    5  A    between atoms: _32  and  _33
REMARK    6  A    between atoms: _38  and  _43
REMARK    7  A    between atoms: _43  and  _46
REMARK    8  A    between atoms: _53  and  _55
REMARK                            x       y       z     vdW  Elec       q    Type
REMARK                         _______ _______ _______ _____ _____    ______ ____
ROOT
ATOM     10  C   UNL     1      43.622  63.832  22.617  0.00  0.00    +0.038 A 
ATOM     11  C   UNL     1      43.947  63.479  23.952  0.00  0.00    +0.047 A 
ATOM     12  C   UNL     1      43.329  64.157  25.081  0.00  0.00    +0.035 A 
ATOM     32  C   UNL     1      42.381  65.187  24.814  0.00  0.00    +0.024 A 
ATOM     33  C   UNL     1      42.040  65.559  23.464  0.00  0.00    +0.007 A 
ATOM     34  C   UNL     1      42.648  64.896  22.346  0.00  0.00    -0.029 A 
ATOM     35  C   UNL     1      42.249  65.340  20.919  0.00  0.00    +0.045 C 
ENDROOT
BRANCH  10   9
ATOM      4  C   UNL     1      44.037  60.061  19.677  0.00  0.00    +0.077 A 
ATOM      5  C   UNL     1      42.934  59.383  20.295  0.00  0.00    +0.048 A 
ATOM      6  C   UNL     1      42.292  60.035  21.371  0.00  0.00    +0.116 A 
ATOM      7  N   UNL     1      42.728  61.274  21.789  0.00  0.00    -0.223 NA
ATOM      8  C   UNL     1      43.796  61.899  21.172  0.00  0.00    +0.220 A 
ATOM      9  N   UNL     1      44.246  63.148  21.571  0.00  0.00    -0.283 N 
ATOM     36  H   UNL     1      45.042  63.573  21.095  0.00  0.00    +0.155 HD
ATOM     37  N   UNL     1      44.427  61.296  20.144  0.00  0.00    -0.214 NA
BRANCH   4   3
ATOM      1  C   UNL     1      45.335  57.692  16.848  0.00  0.00    +0.020 A 
ATOM      2  C   UNL     1      44.554  58.185  17.959  0.00  0.00    +0.013 A 
ATOM      3  C   UNL     1      44.815  59.502  18.527  0.00  0.00    +0.019 A 
ATOM     38  C   UNL     1      45.881  60.301  17.942  0.00  0.00    +0.120 A 
ATOM     39  N   UNL     1      46.617  59.800  16.873  0.00  0.00    -0.263 NA
ATOM     40  C   UNL     1      46.376  58.534  16.319  0.00  0.00    +0.111 A 
ENDBRANCH   4   3
ENDBRANCH  10   9
BRANCH  12  13
ATOM     13  N   UNL     1      43.626  63.847  26.458  0.00  0.00    -0.281 N 
ATOM     14  C   UNL     1      43.260  62.720  27.175  0.00  0.00    +0.248 C 
ATOM     30  O   UNL     1      42.435  61.900  26.801  0.00  0.00    -0.270 OA
ATOM     31  H   UNL     1      44.172  64.544  26.965  0.00  0.00    +0.155 HD
BRANCH  14  15
ATOM     15  C   UNL     1      43.891  62.477  28.508  0.00  0.00    +0.037 A 
ATOM     16  C   UNL     1      44.092  63.568  29.465  0.00  0.00    +0.013 A 
ATOM     17  C   UNL     1      44.718  63.309  30.737  0.00  0.00    +0.005 A 
ATOM     18  C   UNL     1      45.147  61.950  31.060  0.00  0.00    -0.033 A 
ATOM     28  C   UNL     1      44.931  60.885  30.095  0.00  0.00    +0.005 A 
ATOM     29  C   UNL     1      44.318  61.136  28.847  0.00  0.00    +0.013 A 
BRANCH  18  19
ATOM     19  C   UNL     1      45.843  61.586  32.385  0.00  0.00    +0.119 C 
BRANCH  19  20
ATOM     20  N   UNL     1      44.973  61.150  33.517  0.00  0.00    -0.302 NA
ATOM     21  C   UNL     1      44.343  62.339  34.248  0.00  0.00    +0.066 C 
ATOM     22  C   UNL     1      43.417  61.865  35.415  0.00  0.00    -0.064 C 
ATOM     23  N   UNL     1      44.226  61.001  36.384  0.00  0.00    +0.379 N 
ATOM     24  C   UNL     1      43.374  60.601  37.514  0.00  0.00    -0.096 C 
ATOM     25  H   UNL     1      45.052  61.630  36.790  0.00  0.00    -0.082 HD
ATOM     26  C   UNL     1      44.859  59.817  35.666  0.00  0.00    -0.064 C 
ATOM     27  C   UNL     1      45.753  60.299  34.489  0.00  0.00    +0.066 C 
ENDBRANCH  19  20
ENDBRANCH  18  19
ENDBRANCH  14  15
ENDBRANCH  12  13
TORSDOF 6
ENDMDL
MODEL 2
REMARK VINA RESULT:      -8.7     21.532     23.455
REMARK  Name = C:\Users\Docking\Desktop\test protocol\1iep_ligandH.pdb
REMARK  8 active torsions:
REMARK  status: ('A' for Active; 'I' for Inactive)
REMARK    1  A    between atoms: _5  and  _11
REMARK    2  A    between atoms: _19  and  _21
REMARK    3  A    between atoms: _22  and  _66
REMARK    4  A    between atoms: _27  and  _30
REMARK    5  A    between atoms: _32  and  _33
REMARK    6  A    between atoms: _38  and  _43
REMARK    7  A    between atoms: _43  and  _46
REMARK    8  A    between atoms: _53  and  _55
REMARK                            x       y       z     vdW  Elec       q    Type
REMARK                         _______ _______ _______ _____ _____    ______ ____
ROOT
ATOM     10  C   UNL     1      54.993  78.435  20.616  0.00  0.00    +0.038 A 
ATOM     11  C   UNL     1      54.917  79.508  21.540  0.00  0.00    +0.047 A 
ATOM     12  C   UNL     1      53.659  80.191  21.799  0.00  0.00    +0.035 A 
ATOM     32  C   UNL     1      52.496  79.752  21.101  0.00  0.00    +0.024 A 
ATOM     33  C   UNL     1      52.555  78.663  20.158  0.00  0.00    +0.007 A 
ATOM     34  C   UNL     1      53.794  77.988  19.896  0.00  0.00    -0.029 A 
ATOM     35  C   UNL     1      53.799  76.831  18.870  0.00  0.00    +0.045 C 
ENDROOT
BRANCH  10   9
ATOM      4  C   UNL     1      59.255  78.123  18.430  0.00  0.00    +0.077 A 
ATOM      5  C   UNL     1      58.990  79.276  17.620  0.00  0.00    +0.048 A 
ATOM      6  C   UNL     1      57.742  79.917  17.791  0.00  0.00    +0.116 A 
ATOM      7  N   UNL     1      56.835  79.432  18.707  0.00  0.00    -0.223 NA
ATOM      8  C   UNL     1      57.121  78.316  19.472  0.00  0.00    +0.220 A 
ATOM      9  N   UNL     1      56.227  77.815  20.406  0.00  0.00    -0.283 N 
ATOM     36  H   UNL     1      56.472  76.985  20.945  0.00  0.00    +0.155 HD
ATOM     37  N   UNL     1      58.305  77.685  19.327  0.00  0.00    -0.214 NA
BRANCH   4   3
ATOM      1  C   UNL     1      61.948  75.444  17.498  0.00  0.00    +0.020 A 
ATOM      2  C   UNL     1      60.696  76.165  17.522  0.00  0.00    +0.013 A 
ATOM      3  C   UNL     1      60.529  77.339  18.368  0.00  0.00    +0.019 A 
ATOM     38  C   UNL     1      61.657  77.763  19.183  0.00  0.00    +0.120 A 
ATOM     39  N   UNL     1      62.850  77.048  19.141  0.00  0.00    -0.263 NA
ATOM     40  C   UNL     1      63.022  75.915  18.332  0.00  0.00    +0.111 A 
ENDBRANCH   4   3
ENDBRANCH  10   9
BRANCH  12  13
ATOM     13  N   UNL     1      53.523  81.292  22.720  0.00  0.00    -0.281 N 
ATOM     14  C   UNL     1      53.693  82.643  22.463  0.00  0.00    +0.248 C 
ATOM     30  O   UNL     1      54.200  83.095  21.447  0.00  0.00    -0.270 OA
ATOM     31  H   UNL     1      53.271  81.046  23.677  0.00  0.00    +0.155 HD
BRANCH  14  15
ATOM     15  C   UNL     1      53.250  83.635  23.489  0.00  0.00    +0.037 A 
ATOM     16  C   UNL     1      54.093  84.773  23.861  0.00  0.00    +0.013 A 
ATOM     17  C   UNL     1      53.649  85.706  24.866  0.00  0.00    +0.005 A 
ATOM     18  C   UNL     1      52.352  85.503  25.507  0.00  0.00    -0.033 A 
ATOM     28  C   UNL     1      51.532  84.368  25.116  0.00  0.00    +0.005 A 
ATOM     29  C   UNL     1      51.965  83.451  24.131  0.00  0.00    +0.013 A 
BRANCH  18  19
ATOM     19  C   UNL     1      51.806  86.436  26.605  0.00  0.00    +0.119 C 
BRANCH  19  20
ATOM     20  N   UNL     1      52.158  86.106  28.018  0.00  0.00    -0.302 NA
ATOM     21  C   UNL     1      50.951  85.585  28.804  0.00  0.00    +0.066 C 
ATOM     22  C   UNL     1      51.342  85.225  30.274  0.00  0.00    -0.064 C 
ATOM     23  N   UNL     1      51.942  86.455  30.956  0.00  0.00    +0.379 N 
ATOM     24  C   UNL     1      52.257  86.136  32.356  0.00  0.00    -0.096 C 
ATOM     25  H   UNL     1      51.164  87.254  30.958  0.00  0.00    -0.082 HD
ATOM     26  C   UNL     1      53.141  86.982  30.180  0.00  0.00    -0.064 C 
ATOM     27  C   UNL     1      52.749  87.309  28.712  0.00  0.00    +0.066 C 
ENDBRANCH  19  20
ENDBRANCH  18  19
ENDBRANCH  14  15
ENDBRANCH  12  13
TORSDOF 6
ENDMDL
MODEL 3
REMARK VINA RESULT:      -8.3      3.412     13.538
REMARK  Name = C:\Users\Docking\Desktop\test protocol\1iep_ligandH.pdb
REMARK  8 active torsions:
REMARK  status: ('A' for Active; 'I' for Inactive)
REMARK    1  A    between atoms: _5  and  _11
REMARK    2  A    between atoms: _19  and  _21
REMARK    3  A    between atoms: _22  and  _66
REMARK    4  A    between atoms: _27  and  _30
REMARK    5  A    between atoms: _32  and  _33
REMARK    6  A    between atoms: _38  and  _43
REMARK    7  A    between atoms: _43  and  _46
REMARK    8  A    between atoms: _53  and  _55
REMARK                            x       y       z     vdW  Elec       q    Type
REMARK                         _______ _______ _______ _____ _____    ______ ____
ROOT
ATOM     10  C   UNL     1      43.545  64.729  22.726  0.00  0.00    +0.038 A 
ATOM     11  C   UNL     1      44.298  64.090  21.707  0.00  0.00    +0.047 A 
ATOM     12  C   UNL     1      43.957  64.256  20.303  0.00  0.00    +0.035 A 
ATOM     32  C   UNL     1      42.844  65.082  19.971  0.00  0.00    +0.024 A 
ATOM     33  C   UNL     1      42.068  65.739  20.993  0.00  0.00    +0.007 A 
ATOM     34  C   UNL     1      42.398  65.577  22.380  0.00  0.00    -0.029 A 
ATOM     35  C   UNL     1      41.526  66.299  23.434  0.00  0.00    +0.045 C 
ENDROOT
BRANCH  10   9
ATOM      4  C   UNL     1      43.158  62.468  26.942  0.00  0.00    +0.077 A 
ATOM      5  C   UNL     1      42.108  61.620  26.458  0.00  0.00    +0.048 A 
ATOM      6  C   UNL     1      41.691  61.802  25.120  0.00  0.00    +0.116 A 
ATOM      7  N   UNL     1      42.288  62.764  24.334  0.00  0.00    -0.223 NA
ATOM      8  C   UNL     1      43.297  63.567  24.833  0.00  0.00    +0.220 A 
ATOM      9  N   UNL     1      43.917  64.535  24.058  0.00  0.00    -0.283 N 
ATOM     36  H   UNL     1      44.653  65.112  24.465  0.00  0.00    +0.155 HD
ATOM     37  N   UNL     1      43.712  63.414  26.107  0.00  0.00    -0.214 NA
BRANCH   4   3
ATOM      1  C   UNL     1      44.091  63.341  30.639  0.00  0.00    +0.020 A 
ATOM      2  C   UNL     1      43.539  63.462  29.309  0.00  0.00    +0.013 A 
ATOM      3  C   UNL     1      43.710  62.395  28.332  0.00  0.00    +0.019 A 
ATOM     38  C   UNL     1      44.450  61.209  28.735  0.00  0.00    +0.120 A 
ATOM     39  N   UNL     1      44.972  61.121  30.022  0.00  0.00    -0.263 NA
ATOM     40  C   UNL     1      44.815  62.142  30.970  0.00  0.00    +0.111 A 
ENDBRANCH   4   3
ENDBRANCH  10   9
BRANCH  12  13
ATOM     13  N   UNL     1      44.679  63.625  19.226  0.00  0.00    -0.281 N 
ATOM     14  C   UNL     1      45.596  64.202  18.363  0.00  0.00    +0.248 C 
ATOM     30  O   UNL     1      45.775  65.406  18.249  0.00  0.00    -0.270 OA
ATOM     31  H   UNL     1      44.492  62.633  19.083  0.00  0.00    +0.155 HD
BRANCH  14  15
ATOM     15  C   UNL     1      46.423  63.315  17.489  0.00  0.00    +0.037 A 
ATOM     16  C   UNL     1      46.104  61.894  17.330  0.00  0.00    +0.013 A 
ATOM     17  C   UNL     1      46.928  61.057  16.495  0.00  0.00    +0.005 A 
ATOM     18  C   UNL     1      48.079  61.641  15.810  0.00  0.00    -0.033 A 
ATOM     28  C   UNL     1      48.369  63.055  15.981  0.00  0.00    +0.005 A 
ATOM     29  C   UNL     1      47.564  63.878  16.800  0.00  0.00    +0.013 A 
BRANCH  18  19
ATOM     19  C   UNL     1      49.025  60.818  14.915  0.00  0.00    +0.119 C 
BRANCH  19  20
ATOM     20  N   UNL     1      48.398  59.885  13.932  0.00  0.00    -0.302 NA
ATOM     21  C   UNL     1      48.771  58.426  14.207  0.00  0.00    +0.066 C 
ATOM     22  C   UNL     1      48.088  57.461  13.182  0.00  0.00    -0.064 C 
ATOM     23  N   UNL     1      48.488  57.865  11.762  0.00  0.00    +0.379 N 
ATOM     24  C   UNL     1      47.894  56.925  10.800  0.00  0.00    -0.096 C 
ATOM     25  H   UNL     1      49.596  57.774  11.684  0.00  0.00    -0.082 HD
ATOM     26  C   UNL     1      48.123  59.316  11.482  0.00  0.00    -0.064 C 
ATOM     27  C   UNL     1      48.783  60.263  12.523  0.00  0.00    +0.066 C 
ENDBRANCH  19  20
ENDBRANCH  18  19
ENDBRANCH  14  15
ENDBRANCH  12  13
TORSDOF 6
ENDMDL
MODEL 4
REMARK VINA RESULT:      -8.2     30.969     33.236
REMARK  Name = C:\Users\Docking\Desktop\test protocol\1iep_ligandH.pdb
REMARK  8 active torsions:
REMARK  status: ('A' for Active; 'I' for Inactive)
REMARK    1  A    between atoms: _5  and  _11
REMARK    2  A    between atoms: _19  and  _21
REMARK    3  A    between atoms: _22  and  _66
REMARK    4  A    between atoms: _27  and  _30
REMARK    5  A    between atoms: _32  and  _33
REMARK    6  A    between atoms: _38  and  _43
REMARK    7  A    between atoms: _43  and  _46
REMARK    8  A    between atoms: _53  and  _55
REMARK                            x       y       z     vdW  Elec       q    Type
REMARK                         _______ _______ _______ _____ _____    ______ ____
ROOT
ATOM     10  C   UNL     1      69.674  76.301  33.999  0.00  0.00    +0.038 A 
ATOM     11  C   UNL     1      70.728  75.893  34.857  0.00  0.00    +0.047 A 
ATOM     12  C   UNL     1      70.491  74.962  35.949  0.00  0.00    +0.035 A 
ATOM     32  C   UNL     1      69.169  74.464  36.138  0.00  0.00    +0.024 A 
ATOM     33  C   UNL     1      68.086  74.869  35.276  0.00  0.00    +0.007 A 
ATOM     34  C   UNL     1      68.313  75.789  34.198  0.00  0.00    -0.029 A 
ATOM     35  C   UNL     1      67.114  76.193  33.310  0.00  0.00    +0.045 C 
ENDROOT
BRANCH  10   9
ATOM      4  C   UNL     1      70.235  77.363  29.352  0.00  0.00    +0.077 A 
ATOM      5  C   UNL     1      69.965  76.012  28.950  0.00  0.00    +0.048 A 
ATOM      6  C   UNL     1      69.694  75.073  29.970  0.00  0.00    +0.116 A 
ATOM      7  N   UNL     1      69.695  75.467  31.291  0.00  0.00    -0.223 NA
ATOM      8  C   UNL     1      69.960  76.777  31.645  0.00  0.00    +0.220 A 
ATOM      9  N   UNL     1      69.958  77.197  32.966  0.00  0.00    -0.283 N 
ATOM     36  H   UNL     1      70.167  78.171  33.186  0.00  0.00    +0.155 HD
ATOM     37  N   UNL     1      70.224  77.693  30.689  0.00  0.00    -0.214 NA
BRANCH   4   3
ATOM      1  C   UNL     1      71.702  80.610  27.738  0.00  0.00    +0.020 A 
ATOM      2  C   UNL     1      71.445  79.565  28.702  0.00  0.00    +0.013 A 
ATOM      3  C   UNL     1      70.536  78.470  28.390  0.00  0.00    +0.019 A 
ATOM     38  C   UNL     1      69.897  78.461  27.083  0.00  0.00    +0.120 A 
ATOM     39  N   UNL     1      70.162  79.482  26.175  0.00  0.00    -0.263 NA
ATOM     40  C   UNL     1      71.035  80.541  26.465  0.00  0.00    +0.111 A 
ENDBRANCH   4   3
ENDBRANCH  10   9
BRANCH  12  13
ATOM     13  N   UNL     1      71.519  74.519  36.857  0.00  0.00    -0.281 N 
ATOM     14  C   UNL     1      71.560  74.664  38.234  0.00  0.00    +0.248 C 
ATOM     30  O   UNL     1      70.815  75.391  38.875  0.00  0.00    -0.270 OA
ATOM     31  H   UNL     1      72.313  74.039  36.433  0.00  0.00    +0.155 HD
BRANCH  14  15
ATOM     15  C   UNL     1      72.586  73.903  39.011  0.00  0.00    +0.037 A 
ATOM     16  C   UNL     1      73.129  74.425  40.267  0.00  0.00    +0.013 A 
ATOM     17  C   UNL     1      74.130  73.678  40.988  0.00  0.00    +0.005 A 
ATOM     18  C   UNL     1      74.594  72.401  40.452  0.00  0.00    -0.033 A 
ATOM     28  C   UNL     1      74.034  71.904  39.206  0.00  0.00    +0.005 A 
ATOM     29  C   UNL     1      73.053  72.633  38.497  0.00  0.00    +0.013 A 
BRANCH  18  19
ATOM     19  C   UNL     1      75.674  71.547  41.143  0.00  0.00    +0.119 C 
BRANCH  19  20
ATOM     20  N   UNL     1      77.053  71.598  40.573  0.00  0.00    -0.302 NA
ATOM     21  C   UNL     1      77.895  70.391  40.997  0.00  0.00    +0.066 C 
ATOM     22  C   UNL     1      79.327  70.448  40.373  0.00  0.00    -0.064 C 
ATOM     23  N   UNL     1      80.008  71.755  40.785  0.00  0.00    +0.379 N 
ATOM     24  C   UNL     1      81.376  71.786  40.249  0.00  0.00    -0.096 C 
ATOM     25  H   UNL     1      80.080  71.762  41.898  0.00  0.00    -0.082 HD
ATOM     26  C   UNL     1      79.176  72.960  40.370  0.00  0.00    -0.064 C 
ATOM     27  C   UNL     1      77.745  72.878  40.971  0.00  0.00    +0.066 C 
ENDBRANCH  19  20
ENDBRANCH  18  19
ENDBRANCH  14  15
ENDBRANCH  12  13
TORSDOF 6
ENDMDL
MODEL 5
REMARK VINA RESULT:      -8.1      3.712     13.130
REMARK  Name = C:\Users\Docking\Desktop\test protocol\1iep_ligandH.pdb
REMARK  8 active torsions:
REMARK  status: ('A' for Active; 'I' for Inactive)
REMARK    1  A    between atoms: _5  and  _11
REMARK    2  A    between atoms: _19  and  _21
REMARK    3  A    between atoms: _22  and  _66
REMARK    4  A    between atoms: _27  and  _30
REMARK    5  A    between atoms: _32  and  _33
REMARK    6  A    between atoms: _38  and  _43
REMARK    7  A    between atoms: _43  and  _46
REMARK    8  A    between atoms: _53  and  _55
REMARK                            x       y       z     vdW  Elec       q    Type
REMARK                         _______ _______ _______ _____ _____    ______ ____
ROOT
ATOM     10  C   UNL     1      43.488  64.722  22.772  0.00  0.00    +0.038 A 
ATOM     11  C   UNL     1      44.253  64.069  21.772  0.00  0.00    +0.047 A 
ATOM     12  C   UNL     1      43.937  64.227  20.361  0.00  0.00    +0.035 A 
ATOM     32  C   UNL     1      42.837  65.060  20.003  0.00  0.00    +0.024 A 
ATOM     33  C   UNL     1      42.049  65.731  21.007  0.00  0.00    +0.007 A 
ATOM     34  C   UNL     1      42.354  65.577  22.401  0.00  0.00    -0.029 A 
ATOM     35  C   UNL     1      41.471  66.314  23.434  0.00  0.00    +0.045 C 
ENDROOT
BRANCH  10   9
ATOM      4  C   UNL     1      43.047  62.463  26.984  0.00  0.00    +0.077 A 
ATOM      5  C   UNL     1      42.018  61.599  26.480  0.00  0.00    +0.048 A 
ATOM      6  C   UNL     1      41.626  61.774  25.133  0.00  0.00    +0.116 A 
ATOM      7  N   UNL     1      42.226  62.743  24.358  0.00  0.00    -0.223 NA
ATOM      8  C   UNL     1      43.214  63.560  24.876  0.00  0.00    +0.220 A 
ATOM      9  N   UNL     1      43.836  64.535  24.112  0.00  0.00    -0.283 N 
ATOM     36  H   UNL     1      44.555  65.123  24.533  0.00  0.00    +0.155 HD
ATOM     37  N   UNL     1      43.605  63.414  26.159  0.00  0.00    -0.214 NA
BRANCH   4   3
ATOM      1  C   UNL     1      43.867  63.340  30.706  0.00  0.00    +0.020 A 
ATOM      2  C   UNL     1      43.339  63.451  29.366  0.00  0.00    +0.013 A 
ATOM      3  C   UNL     1      43.571  62.399  28.385  0.00  0.00    +0.019 A 
ATOM     38  C   UNL     1      44.347  61.238  28.794  0.00  0.00    +0.120 A 
ATOM     39  N   UNL     1      44.845  61.160  30.092  0.00  0.00    -0.263 NA
ATOM     40  C   UNL     1      44.629  62.166  31.044  0.00  0.00    +0.111 A 
ENDBRANCH   4   3
ENDBRANCH  10   9
BRANCH  12  13
ATOM     13  N   UNL     1      44.673  63.583  19.301  0.00  0.00    -0.281 N 
ATOM     14  C   UNL     1      45.576  64.156  18.421  0.00  0.00    +0.248 C 
ATOM     30  O   UNL     1      45.729  65.359  18.273  0.00  0.00    -0.270 OA
ATOM     31  H   UNL     1      44.507  62.583  19.186  0.00  0.00    +0.155 HD
BRANCH  14  15
ATOM     15  C   UNL     1      46.422  63.263  17.571  0.00  0.00    +0.037 A 
ATOM     16  C   UNL     1      47.524  63.799  16.768  0.00  0.00    +0.013 A 
ATOM     17  C   UNL     1      48.313  62.918  15.944  0.00  0.00    +0.005 A 
ATOM     18  C   UNL     1      48.003  61.490  15.920  0.00  0.00    -0.033 A 
ATOM     28  C   UNL     1      46.908  60.985  16.731  0.00  0.00    +0.005 A 
ATOM     29  C   UNL     1      46.131  61.845  17.539  0.00  0.00    +0.013 A 
BRANCH  18  19
ATOM     19  C   UNL     1      48.779  60.480  15.054  0.00  0.00    +0.119 C 
BRANCH  19  20
ATOM     20  N   UNL     1      50.269  60.574  15.064  0.00  0.00    -0.302 NA
ATOM     21  C   UNL     1      50.836  60.868  13.672  0.00  0.00    +0.066 C 
ATOM     22  C   UNL     1      52.395  60.985  13.705  0.00  0.00    -0.064 C 
ATOM     23  N   UNL     1      52.988  59.693  14.270  0.00  0.00    +0.379 N 
ATOM     24  C   UNL     1      54.456  59.777  14.248  0.00  0.00    -0.096 C 
ATOM     25  H   UNL     1      52.687  58.860  13.594  0.00  0.00    -0.082 HD
ATOM     26  C   UNL     1      52.428  59.391  15.652  0.00  0.00    -0.064 C 
ATOM     27  C   UNL     1      50.877  59.307  15.614  0.00  0.00    +0.066 C 
ENDBRANCH  19  20
ENDBRANCH  18  19
ENDBRANCH  14  15
ENDBRANCH  12  13
TORSDOF 6
ENDMDL
