MODEL 1
REMARK VINA RESULT:      -8.4      0.000      0.000
REMARK  Name = C:\Users\Docking\Desktop\test protocol\1iep_ligandH.pdb
REMARK  8 active torsions:
REMARK  status: ('A' for Active; 'I' for Inactive)
REMARK    1  A    between atoms: _5  and  _11
REMARK    2  A    between atoms: _19  and  _21
REMARK    3  A    between atoms: _22  and  _66
REMARK    4  A    between atoms: _27  and  _30
REMARK    5  A    between atoms: _32  and  _33
REMARK    6  A    between atoms: _38  and  _43
REMARK    7  A    between atoms: _43  and  _46
REMARK    8  A    between atoms: _53  and  _55
REMARK                            x       y       z     vdW  Elec       q    Type
REMARK                         _______ _______ _______ _____ _____    ______ ____
ROOT
ATOM     10  C   UNL     1      14.212  45.970  80.645  0.00  0.00    +0.038 A 
ATOM     11  C   UNL     1      12.936  45.456  80.993  0.00  0.00    +0.047 A 
ATOM     12  C   UNL     1      12.237  45.920  82.182  0.00  0.00    +0.035 A 
ATOM     32  C   UNL     1      12.866  46.910  82.992  0.00  0.00    +0.024 A 
ATOM     33  C   UNL     1      14.162  47.442  82.654  0.00  0.00    +0.007 A 
ATOM     34  C   UNL     1      14.858  46.986  81.484  0.00  0.00    -0.029 A 
ATOM     35  C   UNL     1      16.249  47.587  81.174  0.00  0.00    +0.045 C 
ENDROOT
BRANCH  10   9
ATOM      4  C   UNL     1      16.488  42.534  78.185  0.00  0.00    +0.077 A 
ATOM      5  C   UNL     1      16.450  41.630  79.298  0.00  0.00    +0.048 A 
ATOM      6  C   UNL     1      15.842  42.090  80.488  0.00  0.00    +0.116 A 
ATOM      7  N   UNL     1      15.315  43.361  80.548  0.00  0.00    -0.223 NA
ATOM      8  C   UNL     1      15.369  44.209  79.457  0.00  0.00    +0.220 A 
ATOM      9  N   UNL     1      14.838  45.489  79.493  0.00  0.00    -0.283 N 
ATOM     36  H   UNL     1      14.905  46.086  78.669  0.00  0.00    +0.155 HD
ATOM     37  N   UNL     1      15.946  43.794  78.310  0.00  0.00    -0.214 NA
BRANCH   4   3
ATOM      1  C   UNL     1      18.264  42.808  74.711  0.00  0.00    +0.020 A 
ATOM      2  C   UNL     1      17.692  43.190  75.981  0.00  0.00    +0.013 A 
ATOM      3  C   UNL     1      17.093  42.193  76.859  0.00  0.00    +0.019 A 
ATOM     38  C   UNL     1      17.089  40.806  76.418  0.00  0.00    +0.120 A 
ATOM     39  N   UNL     1      17.645  40.468  75.188  0.00  0.00    -0.263 NA
ATOM     40  C   UNL     1      18.223  41.419  74.335  0.00  0.00    +0.111 A 
ENDBRANCH   4   3
ENDBRANCH  10   9
BRANCH  12  13
ATOM     13  N   UNL     1      10.944  45.430  82.589  0.00  0.00    -0.281 N 
ATOM     14  C   UNL     1      10.556  44.115  82.788  0.00  0.00    +0.248 C 
ATOM     30  O   UNL     1      11.205  43.141  82.436  0.00  0.00    -0.270 OA
ATOM     31  H   UNL     1      10.228  46.138  82.752  0.00  0.00    +0.155 HD
BRANCH  14  15
ATOM     15  C   UNL     1       9.250  43.841  83.461  0.00  0.00    +0.037 A 
ATOM     16  C   UNL     1       9.069  42.670  84.323  0.00  0.00    +0.013 A 
ATOM     17  C   UNL     1       7.794  42.420  84.947  0.00  0.00    +0.005 A 
ATOM     18  C   UNL     1       6.689  43.346  84.713  0.00  0.00    -0.033 A 
ATOM     28  C   UNL     1       6.897  44.504  83.858  0.00  0.00    +0.005 A 
ATOM     29  C   UNL     1       8.145  44.751  83.244  0.00  0.00    +0.013 A 
BRANCH  18  19
ATOM     19  C   UNL     1       5.288  43.147  85.321  0.00  0.00    +0.119 C 
BRANCH  19  20
ATOM     20  N   UNL     1       4.944  43.959  86.526  0.00  0.00    -0.302 NA
ATOM     21  C   UNL     1       4.545  43.081  87.715  0.00  0.00    +0.066 C 
ATOM     22  C   UNL     1       4.210  43.946  88.974  0.00  0.00    -0.064 C 
ATOM     23  N   UNL     1       3.092  44.932  88.630  0.00  0.00    +0.379 N 
ATOM     24  C   UNL     1       2.735  45.707  89.827  0.00  0.00    -0.096 C 
ATOM     25  H   UNL     1       2.198  44.337  88.332  0.00  0.00    -0.082 HD
ATOM     26  C   UNL     1       3.479  45.807  87.446  0.00  0.00    -0.064 C 
ATOM     27  C   UNL     1       3.839  44.937  86.209  0.00  0.00    +0.066 C 
ENDBRANCH  19  20
ENDBRANCH  18  19
ENDBRANCH  14  15
ENDBRANCH  12  13
TORSDOF 6
ENDMDL
MODEL 2
REMARK VINA RESULT:      -8.4      4.773      6.290
REMARK  Name = C:\Users\Docking\Desktop\test protocol\1iep_ligandH.pdb
REMARK  8 active torsions:
REMARK  status: ('A' for Active; 'I' for Inactive)
REMARK    1  A    between atoms: _5  and  _11
REMARK    2  A    between atoms: _19  and  _21
REMARK    3  A    between atoms: _22  and  _66
REMARK    4  A    between atoms: _27  and  _30
REMARK    5  A    between atoms: _32  and  _33
REMARK    6  A    between atoms: _38  and  _43
REMARK    7  A    between atoms: _43  and  _46
REMARK    8  A    between atoms: _53  and  _55
REMARK                            x       y       z     vdW  Elec       q    Type
REMARK                         _______ _______ _______ _____ _____    ______ ____
ROOT
ATOM     10  C   UNL     1      14.716  39.362  78.971  0.00  0.00    +0.038 A 
ATOM     11  C   UNL     1      13.544  39.792  79.645  0.00  0.00    +0.047 A 
ATOM     12  C   UNL     1      13.291  41.204  79.888  0.00  0.00    +0.035 A 
ATOM     32  C   UNL     1      14.252  42.151  79.429  0.00  0.00    +0.024 A 
ATOM     33  C   UNL     1      15.449  41.731  78.743  0.00  0.00    +0.007 A 
ATOM     34  C   UNL     1      15.705  40.340  78.503  0.00  0.00    -0.029 A 
ATOM     35  C   UNL     1      17.008  39.947  77.768  0.00  0.00    +0.045 C 
ENDROOT
BRANCH  10   9
ATOM      4  C   UNL     1      16.421  35.078  80.306  0.00  0.00    +0.077 A 
ATOM      5  C   UNL     1      17.002  35.616  81.502  0.00  0.00    +0.048 A 
ATOM      6  C   UNL     1      16.845  37.001  81.734  0.00  0.00    +0.116 A 
ATOM      7  N   UNL     1      16.157  37.781  80.829  0.00  0.00    -0.223 NA
ATOM      8  C   UNL     1      15.611  37.230  79.684  0.00  0.00    +0.220 A 
ATOM      9  N   UNL     1      14.908  37.994  78.765  0.00  0.00    -0.283 N 
ATOM     36  H   UNL     1      14.527  37.552  77.929  0.00  0.00    +0.155 HD
ATOM     37  N   UNL     1      15.748  35.911  79.439  0.00  0.00    -0.214 NA
BRANCH   4   3
ATOM      1  C   UNL     1      17.766  31.581  79.184  0.00  0.00    +0.020 A 
ATOM      2  C   UNL     1      17.746  32.979  79.545  0.00  0.00    +0.013 A 
ATOM      3  C   UNL     1      16.499  33.633  79.923  0.00  0.00    +0.019 A 
ATOM     38  C   UNL     1      15.281  32.837  79.926  0.00  0.00    +0.120 A 
ATOM     39  N   UNL     1      15.331  31.492  79.572  0.00  0.00    -0.263 NA
ATOM     40  C   UNL     1      16.525  30.852  79.205  0.00  0.00    +0.111 A 
ENDBRANCH   4   3
ENDBRANCH  10   9
BRANCH  12  13
ATOM     13  N   UNL     1      12.124  41.699  80.574  0.00  0.00    -0.281 N 
ATOM     14  C   UNL     1      12.075  42.542  81.673  0.00  0.00    +0.248 C 
ATOM     30  O   UNL     1      13.039  42.828  82.367  0.00  0.00    -0.270 OA
ATOM     31  H   UNL     1      11.224  41.392  80.205  0.00  0.00    +0.155 HD
BRANCH  14  15
ATOM     15  C   UNL     1      10.763  43.142  82.065  0.00  0.00    +0.037 A 
ATOM     16  C   UNL     1       9.979  43.939  81.118  0.00  0.00    +0.013 A 
ATOM     17  C   UNL     1       8.725  44.520  81.527  0.00  0.00    +0.005 A 
ATOM     18  C   UNL     1       8.247  44.306  82.891  0.00  0.00    -0.033 A 
ATOM     28  C   UNL     1       9.043  43.507  83.808  0.00  0.00    +0.005 A 
ATOM     29  C   UNL     1      10.273  42.936  83.411  0.00  0.00    +0.013 A 
BRANCH  18  19
ATOM     19  C   UNL     1       6.931  44.906  83.420  0.00  0.00    +0.119 C 
BRANCH  19  20
ATOM     20  N   UNL     1       6.442  44.419  84.745  0.00  0.00    -0.302 NA
ATOM     21  C   UNL     1       5.113  43.668  84.625  0.00  0.00    +0.066 C 
ATOM     22  C   UNL     1       4.627  43.146  86.016  0.00  0.00    -0.064 C 
ATOM     23  N   UNL     1       4.497  44.325  86.983  0.00  0.00    +0.379 N 
ATOM     24  C   UNL     1       3.985  43.846  88.275  0.00  0.00    -0.096 C 
ATOM     25  H   UNL     1       3.743  45.028  86.559  0.00  0.00    -0.082 HD
ATOM     26  C   UNL     1       5.814  45.080  87.106  0.00  0.00    -0.064 C 
ATOM     27  C   UNL     1       6.303  45.568  85.713  0.00  0.00    +0.066 C 
ENDBRANCH  19  20
ENDBRANCH  18  19
ENDBRANCH  14  15
ENDBRANCH  12  13
TORSDOF 6
ENDMDL
MODEL 3
REMARK VINA RESULT:      -8.3     24.438     26.484
REMARK  Name = C:\Users\Docking\Desktop\test protocol\1iep_ligandH.pdb
REMARK  8 active torsions:
REMARK  status: ('A' for Active; 'I' for Inactive)
REMARK    1  A    between atoms: _5  and  _11
REMARK    2  A    between atoms: _19  and  _21
REMARK    3  A    between atoms: _22  and  _66
REMARK    4  A    between atoms: _27  and  _30
REMARK    5  A    between atoms: _32  and  _33
REMARK    6  A    between atoms: _38  and  _43
REMARK    7  A    between atoms: _43  and  _46
REMARK    8  A    between atoms: _53  and  _55
REMARK                            x       y       z     vdW  Elec       q    Type
REMARK                         _______ _______ _______ _____ _____    ______ ____
ROOT
ATOM     10  C   UNL     1       1.795  44.373  55.312  0.00  0.00    +0.038 A 
ATOM     11  C   UNL     1       1.405  45.046  56.498  0.00  0.00    +0.047 A 
ATOM     12  C   UNL     1       0.026  45.017  56.961  0.00  0.00    +0.035 A 
ATOM     32  C   UNL     1      -0.930  44.291  56.192  0.00  0.00    +0.024 A 
ATOM     33  C   UNL     1      -0.551  43.603  54.983  0.00  0.00    +0.007 A 
ATOM     34  C   UNL     1       0.807  43.630  54.521  0.00  0.00    -0.029 A 
ATOM     35  C   UNL     1       1.155  42.879  53.214  0.00  0.00    +0.045 C 
ENDROOT
BRANCH  10   9
ATOM      4  C   UNL     1       5.550  46.697  53.432  0.00  0.00    +0.077 A 
ATOM      5  C   UNL     1       4.776  47.882  53.198  0.00  0.00    +0.048 A 
ATOM      6  C   UNL     1       3.413  47.849  53.570  0.00  0.00    +0.116 A 
ATOM      7  N   UNL     1       2.875  46.712  54.132  0.00  0.00    -0.223 NA
ATOM      8  C   UNL     1       3.650  45.586  54.343  0.00  0.00    +0.220 A 
ATOM      9  N   UNL     1       3.132  44.434  54.914  0.00  0.00    -0.283 N 
ATOM     36  H   UNL     1       3.735  43.622  55.046  0.00  0.00    +0.155 HD
ATOM     37  N   UNL     1       4.954  45.591  53.995  0.00  0.00    -0.214 NA
BRANCH   4   3
ATOM      1  C   UNL     1       9.454  46.753  53.674  0.00  0.00    +0.020 A 
ATOM      2  C   UNL     1       8.065  46.886  54.048  0.00  0.00    +0.013 A 
ATOM      3  C   UNL     1       7.004  46.577  53.097  0.00  0.00    +0.019 A 
ATOM     38  C   UNL     1       7.387  46.133  51.765  0.00  0.00    +0.120 A 
ATOM     39  N   UNL     1       8.733  46.015  51.433  0.00  0.00    -0.263 NA
ATOM     40  C   UNL     1       9.762  46.311  52.339  0.00  0.00    +0.111 A 
ENDBRANCH   4   3
ENDBRANCH  10   9
BRANCH  12  13
ATOM     13  N   UNL     1      -0.430  45.687  58.154  0.00  0.00    -0.281 N 
ATOM     14  C   UNL     1       0.134  46.786  58.781  0.00  0.00    +0.248 C 
ATOM     30  O   UNL     1       1.244  47.231  58.531  0.00  0.00    -0.270 OA
ATOM     31  H   UNL     1      -1.271  45.306  58.587  0.00  0.00    +0.155 HD
BRANCH  14  15
ATOM     15  C   UNL     1      -0.642  47.483  59.852  0.00  0.00    +0.037 A 
ATOM     16  C   UNL     1      -0.002  48.450  60.747  0.00  0.00    +0.013 A 
ATOM     17  C   UNL     1      -0.770  49.095  61.783  0.00  0.00    +0.005 A 
ATOM     18  C   UNL     1      -2.189  48.776  61.926  0.00  0.00    -0.033 A 
ATOM     28  C   UNL     1      -2.800  47.817  61.021  0.00  0.00    +0.005 A 
ATOM     29  C   UNL     1      -2.050  47.182  60.006  0.00  0.00    +0.013 A 
BRANCH  18  19
ATOM     19  C   UNL     1      -3.080  49.401  63.016  0.00  0.00    +0.119 C 
BRANCH  19  20
ATOM     20  N   UNL     1      -2.721  49.119  64.438  0.00  0.00    -0.302 NA
ATOM     21  C   UNL     1      -3.752  48.218  65.123  0.00  0.00    +0.066 C 
ATOM     22  C   UNL     1      -3.350  47.915  66.603  0.00  0.00    -0.064 C 
ATOM     23  N   UNL     1      -3.190  49.232  67.365  0.00  0.00    +0.379 N 
ATOM     24  C   UNL     1      -2.868  48.949  68.771  0.00  0.00    -0.096 C 
ATOM     25  H   UNL     1      -4.173  49.757  67.342  0.00  0.00    -0.082 HD
ATOM     26  C   UNL     1      -2.168  50.135  66.689  0.00  0.00    -0.064 C 
ATOM     27  C   UNL     1      -2.562  50.406  65.210  0.00  0.00    +0.066 C 
ENDBRANCH  19  20
ENDBRANCH  18  19
ENDBRANCH  14  15
ENDBRANCH  12  13
TORSDOF 6
ENDMDL
MODEL 4
REMARK VINA RESULT:      -8.0      4.610      7.402
REMARK  Name = C:\Users\Docking\Desktop\test protocol\1iep_ligandH.pdb
REMARK  8 active torsions:
REMARK  status: ('A' for Active; 'I' for Inactive)
REMARK    1  A    between atoms: _5  and  _11
REMARK    2  A    between atoms: _19  and  _21
REMARK    3  A    between atoms: _22  and  _66
REMARK    4  A    between atoms: _27  and  _30
REMARK    5  A    between atoms: _32  and  _33
REMARK    6  A    between atoms: _38  and  _43
REMARK    7  A    between atoms: _43  and  _46
REMARK    8  A    between atoms: _53  and  _55
REMARK                            x       y       z     vdW  Elec       q    Type
REMARK                         _______ _______ _______ _____ _____    ______ ____
ROOT
ATOM     10  C   UNL     1      17.965  44.681  75.724  0.00  0.00    +0.038 A 
ATOM     11  C   UNL     1      16.991  44.992  76.707  0.00  0.00    +0.047 A 
ATOM     12  C   UNL     1      16.336  43.944  77.475  0.00  0.00    +0.035 A 
ATOM     32  C   UNL     1      16.700  42.590  77.217  0.00  0.00    +0.024 A 
ATOM     33  C   UNL     1      17.687  42.256  76.221  0.00  0.00    +0.007 A 
ATOM     34  C   UNL     1      18.334  43.285  75.458  0.00  0.00    -0.029 A 
ATOM     35  C   UNL     1      19.380  42.869  74.398  0.00  0.00    +0.045 C 
ENDROOT
BRANCH  10   9
ATOM      4  C   UNL     1      21.203  48.199  75.300  0.00  0.00    +0.077 A 
ATOM      5  C   UNL     1      21.732  47.950  76.610  0.00  0.00    +0.048 A 
ATOM      6  C   UNL     1      21.139  46.912  77.364  0.00  0.00    +0.116 A 
ATOM      7  N   UNL     1      20.094  46.184  76.836  0.00  0.00    -0.223 NA
ATOM      8  C   UNL     1      19.607  46.451  75.570  0.00  0.00    +0.220 A 
ATOM      9  N   UNL     1      18.562  45.727  75.016  0.00  0.00    -0.283 N 
ATOM     36  H   UNL     1      18.226  45.960  74.082  0.00  0.00    +0.155 HD
ATOM     37  N   UNL     1      20.155  47.438  74.831  0.00  0.00    -0.214 NA
BRANCH   4   3
ATOM      1  C   UNL     1      22.070  51.667  73.712  0.00  0.00    +0.020 A 
ATOM      2  C   UNL     1      21.544  50.683  74.631  0.00  0.00    +0.013 A 
ATOM      3  C   UNL     1      21.726  49.259  74.382  0.00  0.00    +0.019 A 
ATOM     38  C   UNL     1      22.452  48.859  73.185  0.00  0.00    +0.120 A 
ATOM     39  N   UNL     1      22.945  49.829  72.317  0.00  0.00    -0.263 NA
ATOM     40  C   UNL     1      22.775  51.202  72.546  0.00  0.00    +0.111 A 
ENDBRANCH   4   3
ENDBRANCH  10   9
BRANCH  12  13
ATOM     13  N   UNL     1      15.335  44.198  78.480  0.00  0.00    -0.281 N 
ATOM     14  C   UNL     1      15.528  44.566  79.802  0.00  0.00    +0.248 C 
ATOM     30  O   UNL     1      16.604  44.525  80.380  0.00  0.00    -0.270 OA
ATOM     31  H   UNL     1      14.365  44.094  78.182  0.00  0.00    +0.155 HD
BRANCH  14  15
ATOM     15  C   UNL     1      14.355  45.034  80.600  0.00  0.00    +0.037 A 
ATOM     16  C   UNL     1      13.509  44.089  81.334  0.00  0.00    +0.013 A 
ATOM     17  C   UNL     1      12.373  44.566  82.083  0.00  0.00    +0.005 A 
ATOM     18  C   UNL     1      12.077  45.996  82.102  0.00  0.00    -0.033 A 
ATOM     28  C   UNL     1      12.936  46.912  81.370  0.00  0.00    +0.005 A 
ATOM     29  C   UNL     1      14.049  46.449  80.634  0.00  0.00    +0.013 A 
BRANCH  18  19
ATOM     19  C   UNL     1      10.874  46.591  82.857  0.00  0.00    +0.119 C 
BRANCH  19  20
ATOM     20  N   UNL     1       9.822  45.639  83.325  0.00  0.00    -0.302 NA
ATOM     21  C   UNL     1       8.756  45.390  82.254  0.00  0.00    +0.066 C 
ATOM     22  C   UNL     1       7.676  44.375  82.751  0.00  0.00    -0.064 C 
ATOM     23  N   UNL     1       7.038  44.903  84.037  0.00  0.00    +0.379 N 
ATOM     24  C   UNL     1       5.982  43.979  84.476  0.00  0.00    -0.096 C 
ATOM     25  H   UNL     1       6.556  45.880  83.799  0.00  0.00    -0.082 HD
ATOM     26  C   UNL     1       8.091  45.156  85.107  0.00  0.00    -0.064 C 
ATOM     27  C   UNL     1       9.176  46.143  84.592  0.00  0.00    +0.066 C 
ENDBRANCH  19  20
ENDBRANCH  18  19
ENDBRANCH  14  15
ENDBRANCH  12  13
TORSDOF 6
ENDMDL
MODEL 5
REMARK VINA RESULT:      -8.0      1.922      2.328
REMARK  Name = C:\Users\Docking\Desktop\test protocol\1iep_ligandH.pdb
REMARK  8 active torsions:
REMARK  status: ('A' for Active; 'I' for Inactive)
REMARK    1  A    between atoms: _5  and  _11
REMARK    2  A    between atoms: _19  and  _21
REMARK    3  A    between atoms: _22  and  _66
REMARK    4  A    between atoms: _27  and  _30
REMARK    5  A    between atoms: _32  and  _33
REMARK    6  A    between atoms: _38  and  _43
REMARK    7  A    between atoms: _43  and  _46
REMARK    8  A    between atoms: _53  and  _55
REMARK                            x       y       z     vdW  Elec       q    Type
REMARK                         _______ _______ _______ _____ _____    ______ ____
ROOT
ATOM     10  C   UNL     1      14.886  44.773  80.738  0.00  0.00    +0.038 A 
ATOM     11  C   UNL     1      13.640  44.429  81.321  0.00  0.00    +0.047 A 
ATOM     12  C   UNL     1      12.637  45.443  81.606  0.00  0.00    +0.035 A 
ATOM     32  C   UNL     1      12.937  46.799  81.283  0.00  0.00    +0.024 A 
ATOM     33  C   UNL     1      14.199  47.166  80.691  0.00  0.00    +0.007 A 
ATOM     34  C   UNL     1      15.193  46.170  80.410  0.00  0.00    -0.029 A 
ATOM     35  C   UNL     1      16.531  46.622  79.781  0.00  0.00    +0.045 C 
ENDROOT
BRANCH  10   9
ATOM      4  C   UNL     1      16.051  40.423  79.076  0.00  0.00    +0.077 A 
ATOM      5  C   UNL     1      14.695  40.137  78.704  0.00  0.00    +0.048 A 
ATOM      6  C   UNL     1      13.727  41.133  78.964  0.00  0.00    +0.116 A 
ATOM      7  N   UNL     1      14.099  42.323  79.552  0.00  0.00    -0.223 NA
ATOM      8  C   UNL     1      15.415  42.566  79.900  0.00  0.00    +0.220 A 
ATOM      9  N   UNL     1      15.812  43.758  80.485  0.00  0.00    -0.283 N 
ATOM     36  H   UNL     1      16.792  43.896  80.733  0.00  0.00    +0.155 HD
ATOM     37  N   UNL     1      16.358  41.630  79.663  0.00  0.00    -0.214 NA
BRANCH   4   3
ATOM      1  C   UNL     1      19.415  38.840  77.862  0.00  0.00    +0.020 A 
ATOM      2  C   UNL     1      18.344  39.793  78.035  0.00  0.00    +0.013 A 
ATOM      3  C   UNL     1      17.188  39.473  78.862  0.00  0.00    +0.019 A 
ATOM     38  C   UNL     1      17.147  38.168  79.506  0.00  0.00    +0.120 A 
ATOM     39  N   UNL     1      18.193  37.270  79.320  0.00  0.00    -0.263 NA
ATOM     40  C   UNL     1      19.309  37.567  78.525  0.00  0.00    +0.111 A 
ENDBRANCH   4   3
ENDBRANCH  10   9
BRANCH  12  13
ATOM     13  N   UNL     1      11.357  45.155  82.204  0.00  0.00    -0.281 N 
ATOM     14  C   UNL     1      10.332  44.378  81.689  0.00  0.00    +0.248 C 
ATOM     30  O   UNL     1      10.276  43.986  80.533  0.00  0.00    -0.270 OA
ATOM     31  H   UNL     1      11.186  45.574  83.119  0.00  0.00    +0.155 HD
BRANCH  14  15
ATOM     15  C   UNL     1       9.198  43.995  82.583  0.00  0.00    +0.037 A 
ATOM     16  C   UNL     1       9.390  43.063  83.698  0.00  0.00    +0.013 A 
ATOM     17  C   UNL     1       8.275  42.697  84.535  0.00  0.00    +0.005 A 
ATOM     18  C   UNL     1       6.957  43.264  84.260  0.00  0.00    -0.033 A 
ATOM     28  C   UNL     1       6.795  44.189  83.152  0.00  0.00    +0.005 A 
ATOM     29  C   UNL     1       7.886  44.550  82.329  0.00  0.00    +0.013 A 
BRANCH  18  19
ATOM     19  C   UNL     1       5.706  42.912  85.088  0.00  0.00    +0.119 C 
BRANCH  19  20
ATOM     20  N   UNL     1       5.440  43.733  86.307  0.00  0.00    -0.302 NA
ATOM     21  C   UNL     1       5.427  42.884  87.581  0.00  0.00    +0.066 C 
ATOM     22  C   UNL     1       5.170  43.762  88.848  0.00  0.00    -0.064 C 
ATOM     23  N   UNL     1       3.847  44.513  88.685  0.00  0.00    +0.379 N 
ATOM     24  C   UNL     1       3.574  45.295  89.899  0.00  0.00    -0.096 C 
ATOM     25  H   UNL     1       3.038  43.754  88.582  0.00  0.00    -0.082 HD
ATOM     26  C   UNL     1       3.851  45.359  87.419  0.00  0.00    -0.064 C 
ATOM     27  C   UNL     1       4.137  44.481  86.169  0.00  0.00    +0.066 C 
ENDBRANCH  19  20
ENDBRANCH  18  19
ENDBRANCH  14  15
ENDBRANCH  12  13
TORSDOF 6
ENDMDL
