MODEL 1
REMARK VINA RESULT:      -8.0      0.000      0.000
REMARK  Name = C:\Users\Docking\Desktop\test protocol\1iep_ligandH.pdb
REMARK  8 active torsions:
REMARK  status: ('A' for Active; 'I' for Inactive)
REMARK    1  A    between atoms: _5  and  _11
REMARK    2  A    between atoms: _19  and  _21
REMARK    3  A    between atoms: _22  and  _66
REMARK    4  A    between atoms: _27  and  _30
REMARK    5  A    between atoms: _32  and  _33
REMARK    6  A    between atoms: _38  and  _43
REMARK    7  A    between atoms: _43  and  _46
REMARK    8  A    between atoms: _53  and  _55
REMARK                            x       y       z     vdW  Elec       q    Type
REMARK                         _______ _______ _______ _____ _____    ______ ____
ROOT
ATOM     10  C   UNL     1      18.317 111.738  75.388  0.00  0.00    +0.038 A 
ATOM     11  C   UNL     1      17.309 111.955  76.362  0.00  0.00    +0.047 A 
ATOM     12  C   UNL     1      16.686 110.842  77.063  0.00  0.00    +0.035 A 
ATOM     32  C   UNL     1      17.117 109.521  76.748  0.00  0.00    +0.024 A 
ATOM     33  C   UNL     1      18.139 109.281  75.760  0.00  0.00    +0.007 A 
ATOM     34  C   UNL     1      18.755 110.375  75.064  0.00  0.00    -0.029 A 
ATOM     35  C   UNL     1      19.841 110.059  74.010  0.00  0.00    +0.045 C 
ENDROOT
BRANCH  10   9
ATOM      4  C   UNL     1      21.506 115.316  75.138  0.00  0.00    +0.077 A 
ATOM      5  C   UNL     1      22.081 114.971  76.406  0.00  0.00    +0.048 A 
ATOM      6  C   UNL     1      21.522 113.870  77.094  0.00  0.00    +0.116 A 
ATOM      7  N   UNL     1      20.468 113.174  76.545  0.00  0.00    -0.223 NA
ATOM      8  C   UNL     1      19.935 113.534  75.321  0.00  0.00    +0.220 A 
ATOM      9  N   UNL     1      18.880 112.843  74.746  0.00  0.00    -0.283 N 
ATOM     36  H   UNL     1      18.511 113.145  73.845  0.00  0.00    +0.155 HD
ATOM     37  N   UNL     1      20.450 114.582  74.645  0.00  0.00    -0.214 NA
BRANCH   4   3
ATOM      1  C   UNL     1      22.596 118.873  73.930  0.00  0.00    +0.020 A 
ATOM      2  C   UNL     1      22.125 117.813  74.791  0.00  0.00    +0.013 A 
ATOM      3  C   UNL     1      21.988 116.451  74.290  0.00  0.00    +0.019 A 
ATOM     38  C   UNL     1      22.340 116.194  72.901  0.00  0.00    +0.120 A 
ATOM     39  N   UNL     1      22.790 117.235  72.095  0.00  0.00    -0.263 NA
ATOM     40  C   UNL     1      22.924 118.550  72.567  0.00  0.00    +0.111 A 
ENDBRANCH   4   3
ENDBRANCH  10   9
BRANCH  12  13
ATOM     13  N   UNL     1      15.653 111.001  78.055  0.00  0.00    -0.281 N 
ATOM     14  C   UNL     1      15.747 111.620  79.291  0.00  0.00    +0.248 C 
ATOM     30  O   UNL     1      16.798 111.946  79.823  0.00  0.00    -0.270 OA
ATOM     31  H   UNL     1      14.741 110.610  77.818  0.00  0.00    +0.155 HD
BRANCH  14  15
ATOM     15  C   UNL     1      14.493 111.906  80.053  0.00  0.00    +0.037 A 
ATOM     16  C   UNL     1      13.515 110.851  80.330  0.00  0.00    +0.013 A 
ATOM     17  C   UNL     1      12.305 111.157  81.052  0.00  0.00    +0.005 A 
ATOM     18  C   UNL     1      12.068 112.526  81.503  0.00  0.00    -0.033 A 
ATOM     28  C   UNL     1      13.058 113.553  81.219  0.00  0.00    +0.005 A 
ATOM     29  C   UNL     1      14.244 113.256  80.511  0.00  0.00    +0.013 A 
BRANCH  18  19
ATOM     19  C   UNL     1      10.796 112.948  82.262  0.00  0.00    +0.119 C 
BRANCH  19  20
ATOM     20  N   UNL     1       9.835 111.869  82.639  0.00  0.00    -0.302 NA
ATOM     21  C   UNL     1       8.408 112.185  82.185  0.00  0.00    +0.066 C 
ATOM     22  C   UNL     1       7.420 111.035  82.568  0.00  0.00    -0.064 C 
ATOM     23  N   UNL     1       7.469 110.807  84.080  0.00  0.00    +0.379 N 
ATOM     24  C   UNL     1       6.500 109.766  84.451  0.00  0.00    -0.096 C 
ATOM     25  H   UNL     1       7.154 111.755  84.575  0.00  0.00    -0.082 HD
ATOM     26  C   UNL     1       8.886 110.494  84.541  0.00  0.00    -0.064 C 
ATOM     27  C   UNL     1       9.864 111.630  84.129  0.00  0.00    +0.066 C 
ENDBRANCH  19  20
ENDBRANCH  18  19
ENDBRANCH  14  15
ENDBRANCH  12  13
TORSDOF 6
ENDMDL
MODEL 2
REMARK VINA RESULT:      -7.3      7.991     14.477
REMARK  Name = C:\Users\Docking\Desktop\test protocol\1iep_ligandH.pdb
REMARK  8 active torsions:
REMARK  status: ('A' for Active; 'I' for Inactive)
REMARK    1  A    between atoms: _5  and  _11
REMARK    2  A    between atoms: _19  and  _21
REMARK    3  A    between atoms: _22  and  _66
REMARK    4  A    between atoms: _27  and  _30
REMARK    5  A    between atoms: _32  and  _33
REMARK    6  A    between atoms: _38  and  _43
REMARK    7  A    between atoms: _43  and  _46
REMARK    8  A    between atoms: _53  and  _55
REMARK                            x       y       z     vdW  Elec       q    Type
REMARK                         _______ _______ _______ _____ _____    ______ ____
ROOT
ATOM     10  C   UNL     1       7.516 111.601  85.712  0.00  0.00    +0.038 A 
ATOM     11  C   UNL     1       6.699 112.749  85.877  0.00  0.00    +0.047 A 
ATOM     12  C   UNL     1       5.403 112.663  86.533  0.00  0.00    +0.035 A 
ATOM     32  C   UNL     1       4.972 111.391  87.012  0.00  0.00    +0.024 A 
ATOM     33  C   UNL     1       5.790 110.214  86.852  0.00  0.00    +0.007 A 
ATOM     34  C   UNL     1       7.067 110.293  86.204  0.00  0.00    -0.029 A 
ATOM     35  C   UNL     1       7.899 108.998  86.054  0.00  0.00    +0.045 C 
ENDROOT
BRANCH  10   9
ATOM      4  C   UNL     1      10.247 111.795  81.770  0.00  0.00    +0.077 A 
ATOM      5  C   UNL     1       9.122 111.571  80.908  0.00  0.00    +0.048 A 
ATOM      6  C   UNL     1       7.859 111.403  81.520  0.00  0.00    +0.116 A 
ATOM      7  N   UNL     1       7.742 111.458  82.892  0.00  0.00    -0.223 NA
ATOM      8  C   UNL     1       8.847 111.675  83.694  0.00  0.00    +0.220 A 
ATOM      9  N   UNL     1       8.751 111.742  85.075  0.00  0.00    -0.283 N 
ATOM     36  H   UNL     1       9.591 111.896  85.632  0.00  0.00    +0.155 HD
ATOM     37  N   UNL     1      10.064 111.836  83.134  0.00  0.00    -0.214 NA
BRANCH   4   3
ATOM      1  C   UNL     1      13.638 113.439  80.722  0.00  0.00    +0.020 A 
ATOM      2  C   UNL     1      12.285 113.302  81.209  0.00  0.00    +0.013 A 
ATOM      3  C   UNL     1      11.645 111.994  81.274  0.00  0.00    +0.019 A 
ATOM     38  C   UNL     1      12.409 110.835  80.836  0.00  0.00    +0.120 A 
ATOM     39  N   UNL     1      13.710 110.998  80.370  0.00  0.00    -0.263 NA
ATOM     40  C   UNL     1      14.335 112.252  80.302  0.00  0.00    +0.111 A 
ENDBRANCH   4   3
ENDBRANCH  10   9
BRANCH  12  13
ATOM     13  N   UNL     1       4.527 113.792  86.721  0.00  0.00    -0.281 N 
ATOM     14  C   UNL     1       3.191 113.901  86.371  0.00  0.00    +0.248 C 
ATOM     30  O   UNL     1       2.601 113.115  85.645  0.00  0.00    -0.270 OA
ATOM     31  H   UNL     1       4.942 114.610  87.167  0.00  0.00    +0.155 HD
BRANCH  14  15
ATOM     15  C   UNL     1       2.400 115.058  86.891  0.00  0.00    +0.037 A 
ATOM     16  C   UNL     1       2.446 116.366  86.233  0.00  0.00    +0.013 A 
ATOM     17  C   UNL     1       1.686 117.470  86.765  0.00  0.00    +0.005 A 
ATOM     18  C   UNL     1       0.873 117.269  87.962  0.00  0.00    -0.033 A 
ATOM     28  C   UNL     1       0.843 115.959  88.592  0.00  0.00    +0.005 A 
ATOM     29  C   UNL     1       1.586 114.875  88.074  0.00  0.00    +0.013 A 
BRANCH  18  19
ATOM     19  C   UNL     1       0.048 118.395  88.611  0.00  0.00    +0.119 C 
BRANCH  19  20
ATOM     20  N   UNL     1      -1.272 118.720  87.992  0.00  0.00    -0.302 NA
ATOM     21  C   UNL     1      -1.413 120.215  87.692  0.00  0.00    +0.066 C 
ATOM     22  C   UNL     1      -2.790 120.534  87.024  0.00  0.00    -0.064 C 
ATOM     23  N   UNL     1      -3.920 120.055  87.937  0.00  0.00    +0.379 N 
ATOM     24  C   UNL     1      -5.216 120.406  87.338  0.00  0.00    -0.096 C 
ATOM     25  H   UNL     1      -3.832 120.608  88.901  0.00  0.00    -0.082 HD
ATOM     26  C   UNL     1      -3.785 118.570  88.242  0.00  0.00    -0.064 C 
ATOM     27  C   UNL     1      -2.402 118.260  88.879  0.00  0.00    +0.066 C 
ENDBRANCH  19  20
ENDBRANCH  18  19
ENDBRANCH  14  15
ENDBRANCH  12  13
TORSDOF 6
ENDMDL
MODEL 3
REMARK VINA RESULT:      -7.3      7.391     13.967
REMARK  Name = C:\Users\Docking\Desktop\test protocol\1iep_ligandH.pdb
REMARK  8 active torsions:
REMARK  status: ('A' for Active; 'I' for Inactive)
REMARK    1  A    between atoms: _5  and  _11
REMARK    2  A    between atoms: _19  and  _21
REMARK    3  A    between atoms: _22  and  _66
REMARK    4  A    between atoms: _27  and  _30
REMARK    5  A    between atoms: _32  and  _33
REMARK    6  A    between atoms: _38  and  _43
REMARK    7  A    between atoms: _43  and  _46
REMARK    8  A    between atoms: _53  and  _55
REMARK                            x       y       z     vdW  Elec       q    Type
REMARK                         _______ _______ _______ _____ _____    ______ ____
ROOT
ATOM     10  C   UNL     1       7.488 111.573  85.654  0.00  0.00    +0.038 A 
ATOM     11  C   UNL     1       6.659 112.717  85.780  0.00  0.00    +0.047 A 
ATOM     12  C   UNL     1       5.353 112.634  86.416  0.00  0.00    +0.035 A 
ATOM     32  C   UNL     1       4.924 111.370  86.915  0.00  0.00    +0.024 A 
ATOM     33  C   UNL     1       5.754 110.196  86.795  0.00  0.00    +0.007 A 
ATOM     34  C   UNL     1       7.042 110.272  86.166  0.00  0.00    -0.029 A 
ATOM     35  C   UNL     1       7.886 108.980  86.059  0.00  0.00    +0.045 C 
ENDROOT
BRANCH  10   9
ATOM      4  C   UNL     1      10.275 111.762  81.751  0.00  0.00    +0.077 A 
ATOM      5  C   UNL     1       9.162 111.543  80.873  0.00  0.00    +0.048 A 
ATOM      6  C   UNL     1       7.890 111.379  81.466  0.00  0.00    +0.116 A 
ATOM      7  N   UNL     1       7.754 111.433  82.836  0.00  0.00    -0.223 NA
ATOM      8  C   UNL     1       8.848 111.644  83.655  0.00  0.00    +0.220 A 
ATOM      9  N   UNL     1       8.732 111.710  85.035  0.00  0.00    -0.283 N 
ATOM     36  H   UNL     1       9.565 111.860  85.604  0.00  0.00    +0.155 HD
ATOM     37  N   UNL     1      10.074 111.802  83.113  0.00  0.00    -0.214 NA
BRANCH   4   3
ATOM      1  C   UNL     1      13.878 111.097  80.381  0.00  0.00    +0.020 A 
ATOM      2  C   UNL     1      12.527 110.855  80.831  0.00  0.00    +0.013 A 
ATOM      3  C   UNL     1      11.682 111.956  81.275  0.00  0.00    +0.019 A 
ATOM     38  C   UNL     1      12.238 113.301  81.251  0.00  0.00    +0.120 A 
ATOM     39  N   UNL     1      13.543 113.503  80.813  0.00  0.00    -0.263 NA
ATOM     40  C   UNL     1      14.367 112.451  80.385  0.00  0.00    +0.111 A 
ENDBRANCH   4   3
ENDBRANCH  10   9
BRANCH  12  13
ATOM     13  N   UNL     1       4.465 113.759  86.564  0.00  0.00    -0.281 N 
ATOM     14  C   UNL     1       4.642 114.886  87.350  0.00  0.00    +0.248 C 
ATOM     30  O   UNL     1       5.499 114.999  88.214  0.00  0.00    -0.270 OA
ATOM     31  H   UNL     1       3.600 113.721  86.025  0.00  0.00    +0.155 HD
BRANCH  14  15
ATOM     15  C   UNL     1       3.726 116.051  87.159  0.00  0.00    +0.037 A 
ATOM     16  C   UNL     1       3.807 117.232  88.022  0.00  0.00    +0.013 A 
ATOM     17  C   UNL     1       2.900 118.335  87.827  0.00  0.00    +0.005 A 
ATOM     18  C   UNL     1       1.903 118.262  86.762  0.00  0.00    -0.033 A 
ATOM     28  C   UNL     1       1.847 117.081  85.917  0.00  0.00    +0.005 A 
ATOM     29  C   UNL     1       2.734 115.998  86.106  0.00  0.00    +0.013 A 
BRANCH  18  19
ATOM     19  C   UNL     1       0.881 119.383  86.495  0.00  0.00    +0.119 C 
BRANCH  19  20
ATOM     20  N   UNL     1       0.861 119.979  85.126  0.00  0.00    -0.302 NA
ATOM     21  C   UNL     1       1.195 121.473  85.145  0.00  0.00    +0.066 C 
ATOM     22  C   UNL     1       1.192 122.076  83.702  0.00  0.00    -0.064 C 
ATOM     23  N   UNL     1      -0.172 121.834  83.054  0.00  0.00    +0.379 N 
ATOM     24  C   UNL     1      -0.197 122.450  81.720  0.00  0.00    -0.096 C 
ATOM     25  H   UNL     1      -0.939 122.348  83.679  0.00  0.00    -0.082 HD
ATOM     26  C   UNL     1      -0.513 120.351  83.034  0.00  0.00    -0.064 C 
ATOM     27  C   UNL     1      -0.479 119.755  84.469  0.00  0.00    +0.066 C 
ENDBRANCH  19  20
ENDBRANCH  18  19
ENDBRANCH  14  15
ENDBRANCH  12  13
TORSDOF 6
ENDMDL
MODEL 4
REMARK VINA RESULT:      -7.2     23.698     25.732
REMARK  Name = C:\Users\Docking\Desktop\test protocol\1iep_ligandH.pdb
REMARK  8 active torsions:
REMARK  status: ('A' for Active; 'I' for Inactive)
REMARK    1  A    between atoms: _5  and  _11
REMARK    2  A    between atoms: _19  and  _21
REMARK    3  A    between atoms: _22  and  _66
REMARK    4  A    between atoms: _27  and  _30
REMARK    5  A    between atoms: _32  and  _33
REMARK    6  A    between atoms: _38  and  _43
REMARK    7  A    between atoms: _43  and  _46
REMARK    8  A    between atoms: _53  and  _55
REMARK                            x       y       z     vdW  Elec       q    Type
REMARK                         _______ _______ _______ _____ _____    ______ ____
ROOT
ATOM     10  C   UNL     1      23.838  93.536  60.905  0.00  0.00    +0.038 A 
ATOM     11  C   UNL     1      23.575  93.231  62.265  0.00  0.00    +0.047 A 
ATOM     12  C   UNL     1      23.661  91.866  62.760  0.00  0.00    +0.035 A 
ATOM     32  C   UNL     1      24.020  90.836  61.842  0.00  0.00    +0.024 A 
ATOM     33  C   UNL     1      24.289  91.128  60.456  0.00  0.00    +0.007 A 
ATOM     34  C   UNL     1      24.203  92.472  59.961  0.00  0.00    -0.029 A 
ATOM     35  C   UNL     1      24.496  92.727  58.464  0.00  0.00    +0.045 C 
ENDROOT
BRANCH  10   9
ATOM      4  C   UNL     1      21.366  97.235  59.103  0.00  0.00    +0.077 A 
ATOM      5  C   UNL     1      20.175  96.448  58.963  0.00  0.00    +0.048 A 
ATOM      6  C   UNL     1      20.242  95.093  59.360  0.00  0.00    +0.116 A 
ATOM      7  N   UNL     1      21.418  94.575  59.858  0.00  0.00    -0.223 NA
ATOM      8  C   UNL     1      22.549  95.362  59.978  0.00  0.00    +0.220 A 
ATOM      9  N   UNL     1      23.740  94.864  60.484  0.00  0.00    -0.283 N 
ATOM     36  H   UNL     1      24.555  95.475  60.549  0.00  0.00    +0.155 HD
ATOM     37  N   UNL     1      22.511  96.658  59.605  0.00  0.00    -0.214 NA
BRANCH   4   3
ATOM      1  C   UNL     1      20.477 100.812  57.793  0.00  0.00    +0.020 A 
ATOM      2  C   UNL     1      20.342  99.415  58.134  0.00  0.00    +0.013 A 
ATOM      3  C   UNL     1      21.452  98.682  58.730  0.00  0.00    +0.019 A 
ATOM     38  C   UNL     1      22.695  99.399  58.970  0.00  0.00    +0.120 A 
ATOM     39  N   UNL     1      22.797 100.745  58.630  0.00  0.00    -0.263 NA
ATOM     40  C   UNL     1      21.735 101.459  58.055  0.00  0.00    +0.111 A 
ENDBRANCH   4   3
ENDBRANCH  10   9
BRANCH  12  13
ATOM     13  N   UNL     1      23.399  91.494  64.128  0.00  0.00    -0.281 N 
ATOM     14  C   UNL     1      23.740  92.186  65.279  0.00  0.00    +0.248 C 
ATOM     30  O   UNL     1      24.515  93.129  65.313  0.00  0.00    -0.270 OA
ATOM     31  H   UNL     1      22.900  90.614  64.265  0.00  0.00    +0.155 HD
BRANCH  14  15
ATOM     15  C   UNL     1      23.144  91.758  66.581  0.00  0.00    +0.037 A 
ATOM     16  C   UNL     1      22.049  92.510  67.199  0.00  0.00    +0.013 A 
ATOM     17  C   UNL     1      21.505  92.085  68.465  0.00  0.00    +0.005 A 
ATOM     18  C   UNL     1      22.055  90.901  69.120  0.00  0.00    -0.033 A 
ATOM     28  C   UNL     1      23.138  90.171  68.482  0.00  0.00    +0.005 A 
ATOM     29  C   UNL     1      23.675  90.585  67.242  0.00  0.00    +0.013 A 
BRANCH  18  19
ATOM     19  C   UNL     1      21.549  90.388  70.481  0.00  0.00    +0.119 C 
BRANCH  19  20
ATOM     20  N   UNL     1      22.261  89.219  71.079  0.00  0.00    -0.302 NA
ATOM     21  C   UNL     1      21.507  87.907  70.844  0.00  0.00    +0.066 C 
ATOM     22  C   UNL     1      22.277  86.691  71.456  0.00  0.00    -0.064 C 
ATOM     23  N   UNL     1      22.497  86.930  72.950  0.00  0.00    +0.379 N 
ATOM     24  C   UNL     1      23.169  85.763  73.540  0.00  0.00    -0.096 C 
ATOM     25  H   UNL     1      21.494  87.020  73.429  0.00  0.00    -0.082 HD
ATOM     26  C   UNL     1      23.243  88.234  73.193  0.00  0.00    -0.064 C 
ATOM     27  C   UNL     1      22.485  89.432  72.556  0.00  0.00    +0.066 C 
ENDBRANCH  19  20
ENDBRANCH  18  19
ENDBRANCH  14  15
ENDBRANCH  12  13
TORSDOF 6
ENDMDL
MODEL 5
REMARK VINA RESULT:      -7.1     13.267     19.325
REMARK  Name = C:\Users\Docking\Desktop\test protocol\1iep_ligandH.pdb
REMARK  8 active torsions:
REMARK  status: ('A' for Active; 'I' for Inactive)
REMARK    1  A    between atoms: _5  and  _11
REMARK    2  A    between atoms: _19  and  _21
REMARK    3  A    between atoms: _22  and  _66
REMARK    4  A    between atoms: _27  and  _30
REMARK    5  A    between atoms: _32  and  _33
REMARK    6  A    between atoms: _38  and  _43
REMARK    7  A    between atoms: _43  and  _46
REMARK    8  A    between atoms: _53  and  _55
REMARK                            x       y       z     vdW  Elec       q    Type
REMARK                         _______ _______ _______ _____ _____    ______ ____
ROOT
ATOM     10  C   UNL     1      -0.158 120.088  84.748  0.00  0.00    +0.038 A 
ATOM     11  C   UNL     1       0.330 118.795  85.067  0.00  0.00    +0.047 A 
ATOM     12  C   UNL     1       1.380 118.610  86.057  0.00  0.00    +0.035 A 
ATOM     32  C   UNL     1       1.909 119.764  86.704  0.00  0.00    +0.024 A 
ATOM     33  C   UNL     1       1.425 121.086  86.392  0.00  0.00    +0.007 A 
ATOM     34  C   UNL     1       0.391 121.275  85.415  0.00  0.00    -0.029 A 
ATOM     35  C   UNL     1      -0.084 122.716  85.115  0.00  0.00    +0.045 C 
ENDROOT
BRANCH  10   9
ATOM      4  C   UNL     1      -1.711 120.040  80.207  0.00  0.00    +0.077 A 
ATOM      5  C   UNL     1      -0.395 119.780  79.698  0.00  0.00    +0.048 A 
ATOM      6  C   UNL     1       0.655 119.674  80.637  0.00  0.00    +0.116 A 
ATOM      7  N   UNL     1       0.397 119.817  81.983  0.00  0.00    -0.223 NA
ATOM      8  C   UNL     1      -0.884 120.068  82.441  0.00  0.00    +0.220 A 
ATOM      9  N   UNL     1      -1.168 120.208  83.790  0.00  0.00    -0.283 N 
ATOM     36  H   UNL     1      -2.124 120.400  84.087  0.00  0.00    +0.155 HD
ATOM     37  N   UNL     1      -1.904 120.176  81.564  0.00  0.00    -0.214 NA
BRANCH   4   3
ATOM      1  C   UNL     1      -5.222 119.461  78.582  0.00  0.00    +0.020 A 
ATOM      2  C   UNL     1      -4.075 119.286  79.442  0.00  0.00    +0.013 A 
ATOM      3  C   UNL     1      -2.925 120.176  79.340  0.00  0.00    +0.019 A 
ATOM     38  C   UNL     1      -2.968 121.241  78.350  0.00  0.00    +0.120 A 
ATOM     39  N   UNL     1      -4.085 121.384  77.534  0.00  0.00    -0.263 NA
ATOM     40  C   UNL     1      -5.197 120.533  77.622  0.00  0.00    +0.111 A 
ENDBRANCH   4   3
ENDBRANCH  10   9
BRANCH  12  13
ATOM     13  N   UNL     1       1.921 117.323  86.416  0.00  0.00    -0.281 N 
ATOM     14  C   UNL     1       1.478 116.459  87.404  0.00  0.00    +0.248 C 
ATOM     30  O   UNL     1       0.677 116.759  88.276  0.00  0.00    -0.270 OA
ATOM     31  H   UNL     1       2.728 117.010  85.875  0.00  0.00    +0.155 HD
BRANCH  14  15
ATOM     15  C   UNL     1       2.014 115.064  87.437  0.00  0.00    +0.037 A 
ATOM     16  C   UNL     1       1.824 114.204  88.608  0.00  0.00    +0.013 A 
ATOM     17  C   UNL     1       2.366 112.868  88.620  0.00  0.00    +0.005 A 
ATOM     18  C   UNL     1       3.103 112.384  87.455  0.00  0.00    -0.033 A 
ATOM     28  C   UNL     1       3.273 113.256  86.305  0.00  0.00    +0.005 A 
ATOM     29  C   UNL     1       2.744 114.566  86.290  0.00  0.00    +0.013 A 
BRANCH  18  19
ATOM     19  C   UNL     1       3.734 110.981  87.389  0.00  0.00    +0.119 C 
BRANCH  19  20
ATOM     20  N   UNL     1       5.011 110.840  86.627  0.00  0.00    -0.302 NA
ATOM     21  C   UNL     1       4.793 110.197  85.255  0.00  0.00    +0.066 C 
ATOM     22  C   UNL     1       6.136 110.078  84.462  0.00  0.00    -0.064 C 
ATOM     23  N   UNL     1       7.141 109.271  85.285  0.00  0.00    +0.379 N 
ATOM     24  C   UNL     1       8.385 109.108  84.518  0.00  0.00    -0.096 C 
ATOM     25  H   UNL     1       6.708 108.256  85.447  0.00  0.00    -0.082 HD
ATOM     26  C   UNL     1       7.361 109.902  86.653  0.00  0.00    -0.064 C 
ATOM     27  C   UNL     1       6.017 110.042  87.420  0.00  0.00    +0.066 C 
ENDBRANCH  19  20
ENDBRANCH  18  19
ENDBRANCH  14  15
ENDBRANCH  12  13
TORSDOF 6
ENDMDL
