MODEL 1
REMARK VINA RESULT:      -8.0      0.000      0.000
REMARK  Name = C:\Users\Docking\Desktop\test protocol\1iep_ligandH.pdb
REMARK  8 active torsions:
REMARK  status: ('A' for Active; 'I' for Inactive)
REMARK    1  A    between atoms: _5  and  _11
REMARK    2  A    between atoms: _19  and  _21
REMARK    3  A    between atoms: _22  and  _66
REMARK    4  A    between atoms: _27  and  _30
REMARK    5  A    between atoms: _32  and  _33
REMARK    6  A    between atoms: _38  and  _43
REMARK    7  A    between atoms: _43  and  _46
REMARK    8  A    between atoms: _53  and  _55
REMARK                            x       y       z     vdW  Elec       q    Type
REMARK                         _______ _______ _______ _____ _____    ______ ____
ROOT
ATOM     10  C   UNL     1      14.056 112.495  79.694  0.00  0.00    +0.038 A 
ATOM     11  C   UNL     1      12.900 112.054  80.388  0.00  0.00    +0.047 A 
ATOM     12  C   UNL     1      12.330 112.835  81.474  0.00  0.00    +0.035 A 
ATOM     32  C   UNL     1      12.962 114.063  81.827  0.00  0.00    +0.024 A 
ATOM     33  C   UNL     1      14.138 114.526  81.133  0.00  0.00    +0.007 A 
ATOM     34  C   UNL     1      14.706 113.758  80.062  0.00  0.00    -0.029 A 
ATOM     35  C   UNL     1      15.972 114.300  79.358  0.00  0.00    +0.045 C 
ENDROOT
BRANCH  10   9
ATOM      4  C   UNL     1      17.098 109.202  77.980  0.00  0.00    +0.077 A 
ATOM      5  C   UNL     1      17.755 109.063  79.248  0.00  0.00    +0.048 A 
ATOM      6  C   UNL     1      17.285 109.863  80.314  0.00  0.00    +0.116 A 
ATOM      7  N   UNL     1      16.234 110.732  80.115  0.00  0.00    -0.223 NA
ATOM      8  C   UNL     1      15.624 110.843  78.879  0.00  0.00    +0.220 A 
ATOM      9  N   UNL     1      14.561 111.705  78.659  0.00  0.00    -0.283 N 
ATOM     36  H   UNL     1      14.142 111.762  77.731  0.00  0.00    +0.155 HD
ATOM     37  N   UNL     1      16.056 110.091  77.845  0.00  0.00    -0.214 NA
BRANCH   4   3
ATOM      1  C   UNL     1      18.717 106.563  75.589  0.00  0.00    +0.020 A 
ATOM      2  C   UNL     1      18.383 107.281  76.798  0.00  0.00    +0.013 A 
ATOM      3  C   UNL     1      17.479 108.423  76.759  0.00  0.00    +0.019 A 
ATOM     38  C   UNL     1      16.925 108.816  75.472  0.00  0.00    +0.120 A 
ATOM     39  N   UNL     1      17.266 108.107  74.325  0.00  0.00    -0.263 NA
ATOM     40  C   UNL     1      18.137 107.007  74.349  0.00  0.00    +0.111 A 
ENDBRANCH   4   3
ENDBRANCH  10   9
BRANCH  12  13
ATOM     13  N   UNL     1      11.163 112.434  82.220  0.00  0.00    -0.281 N 
ATOM     14  C   UNL     1       9.851 112.373  81.779  0.00  0.00    +0.248 C 
ATOM     30  O   UNL     1       9.449 112.860  80.733  0.00  0.00    -0.270 OA
ATOM     31  H   UNL     1      11.324 112.163  83.190  0.00  0.00    +0.155 HD
BRANCH  14  15
ATOM     15  C   UNL     1       8.835 111.682  82.631  0.00  0.00    +0.037 A 
ATOM     16  C   UNL     1       7.567 111.211  82.070  0.00  0.00    +0.013 A 
ATOM     17  C   UNL     1       6.597 110.563  82.917  0.00  0.00    +0.005 A 
ATOM     18  C   UNL     1       6.894 110.382  84.336  0.00  0.00    -0.033 A 
ATOM     28  C   UNL     1       8.162 110.854  84.866  0.00  0.00    +0.005 A 
ATOM     29  C   UNL     1       9.115 111.490  84.038  0.00  0.00    +0.013 A 
BRANCH  18  19
ATOM     19  C   UNL     1       5.909 109.720  85.318  0.00  0.00    +0.119 C 
BRANCH  19  20
ATOM     20  N   UNL     1       5.322 110.585  86.385  0.00  0.00    -0.302 NA
ATOM     21  C   UNL     1       5.323 109.894  87.751  0.00  0.00    +0.066 C 
ATOM     22  C   UNL     1       4.726 110.821  88.859  0.00  0.00    -0.064 C 
ATOM     23  N   UNL     1       3.308 111.237  88.463  0.00  0.00    +0.379 N 
ATOM     24  C   UNL     1       2.723 112.062  89.530  0.00  0.00    -0.096 C 
ATOM     25  H   UNL     1       2.695 110.310  88.377  0.00  0.00    -0.082 HD
ATOM     26  C   UNL     1       3.298 111.924  87.104  0.00  0.00    -0.064 C 
ATOM     27  C   UNL     1       3.920 111.005  86.016  0.00  0.00    +0.066 C 
ENDBRANCH  19  20
ENDBRANCH  18  19
ENDBRANCH  14  15
ENDBRANCH  12  13
TORSDOF 6
ENDMDL
MODEL 2
REMARK VINA RESULT:      -8.0      2.480      2.819
REMARK  Name = C:\Users\Docking\Desktop\test protocol\1iep_ligandH.pdb
REMARK  8 active torsions:
REMARK  status: ('A' for Active; 'I' for Inactive)
REMARK    1  A    between atoms: _5  and  _11
REMARK    2  A    between atoms: _19  and  _21
REMARK    3  A    between atoms: _22  and  _66
REMARK    4  A    between atoms: _27  and  _30
REMARK    5  A    between atoms: _32  and  _33
REMARK    6  A    between atoms: _38  and  _43
REMARK    7  A    between atoms: _43  and  _46
REMARK    8  A    between atoms: _53  and  _55
REMARK                            x       y       z     vdW  Elec       q    Type
REMARK                         _______ _______ _______ _____ _____    ______ ____
ROOT
ATOM     10  C   UNL     1      13.698 110.970  80.676  0.00  0.00    +0.038 A 
ATOM     11  C   UNL     1      12.464 110.763  81.345  0.00  0.00    +0.047 A 
ATOM     12  C   UNL     1      11.527 111.856  81.549  0.00  0.00    +0.035 A 
ATOM     32  C   UNL     1      11.877 113.147  81.056  0.00  0.00    +0.024 A 
ATOM     33  C   UNL     1      13.127 113.375  80.375  0.00  0.00    +0.007 A 
ATOM     34  C   UNL     1      14.056 112.301  80.173  0.00  0.00    -0.029 A 
ATOM     35  C   UNL     1      15.385 112.605  79.441  0.00  0.00    +0.045 C 
ENDROOT
BRANCH  10   9
ATOM      4  C   UNL     1      14.764 106.650  78.874  0.00  0.00    +0.077 A 
ATOM      5  C   UNL     1      13.484 106.535  78.237  0.00  0.00    +0.048 A 
ATOM      6  C   UNL     1      12.577 107.605  78.404  0.00  0.00    +0.116 A 
ATOM      7  N   UNL     1      12.934 108.705  79.153  0.00  0.00    -0.223 NA
ATOM      8  C   UNL     1      14.177 108.784  79.755  0.00  0.00    +0.220 A 
ATOM      9  N   UNL     1      14.561 109.884  80.507  0.00  0.00    -0.283 N 
ATOM     36  H   UNL     1      15.483 109.901  80.941  0.00  0.00    +0.155 HD
ATOM     37  N   UNL     1      15.060 107.774  79.612  0.00  0.00    -0.214 NA
BRANCH   4   3
ATOM      1  C   UNL     1      18.230 104.874  78.514  0.00  0.00    +0.020 A 
ATOM      2  C   UNL     1      17.239 105.922  78.590  0.00  0.00    +0.013 A 
ATOM      3  C   UNL     1      15.831 105.604  78.788  0.00  0.00    +0.019 A 
ATOM     38  C   UNL     1      15.456 104.203  78.908  0.00  0.00    +0.120 A 
ATOM     39  N   UNL     1      16.432 103.214  78.830  0.00  0.00    -0.263 NA
ATOM     40  C   UNL     1      17.790 103.509  78.638  0.00  0.00    +0.111 A 
ENDBRANCH   4   3
ENDBRANCH  10   9
BRANCH  12  13
ATOM     13  N   UNL     1      10.263 111.708  82.228  0.00  0.00    -0.281 N 
ATOM     14  C   UNL     1       9.042 111.344  81.685  0.00  0.00    +0.248 C 
ATOM     30  O   UNL     1       8.805 111.297  80.487  0.00  0.00    -0.270 OA
ATOM     31  H   UNL     1      10.270 111.894  83.231  0.00  0.00    +0.155 HD
BRANCH  14  15
ATOM     15  C   UNL     1       7.918 110.995  82.606  0.00  0.00    +0.037 A 
ATOM     16  C   UNL     1       6.585 110.674  82.090  0.00  0.00    +0.013 A 
ATOM     17  C   UNL     1       5.513 110.358  83.001  0.00  0.00    +0.005 A 
ATOM     18  C   UNL     1       5.772 110.360  84.438  0.00  0.00    -0.033 A 
ATOM     28  C   UNL     1       7.105 110.677  84.923  0.00  0.00    +0.005 A 
ATOM     29  C   UNL     1       8.157 110.988  84.033  0.00  0.00    +0.013 A 
BRANCH  18  19
ATOM     19  C   UNL     1       4.683 110.055  85.484  0.00  0.00    +0.119 C 
BRANCH  19  20
ATOM     20  N   UNL     1       4.713 110.844  86.752  0.00  0.00    -0.302 NA
ATOM     21  C   UNL     1       4.874 109.947  87.983  0.00  0.00    +0.066 C 
ATOM     22  C   UNL     1       4.926 110.790  89.299  0.00  0.00    -0.064 C 
ATOM     23  N   UNL     1       3.658 111.637  89.408  0.00  0.00    +0.379 N 
ATOM     24  C   UNL     1       3.677 112.387  90.673  0.00  0.00    -0.096 C 
ATOM     25  H   UNL     1       2.788 110.941  89.441  0.00  0.00    -0.082 HD
ATOM     26  C   UNL     1       3.488 112.530  88.187  0.00  0.00    -0.064 C 
ATOM     27  C   UNL     1       3.467 111.685  86.883  0.00  0.00    +0.066 C 
ENDBRANCH  19  20
ENDBRANCH  18  19
ENDBRANCH  14  15
ENDBRANCH  12  13
TORSDOF 6
ENDMDL
MODEL 3
REMARK VINA RESULT:      -7.8     29.036     32.699
REMARK  Name = C:\Users\Docking\Desktop\test protocol\1iep_ligandH.pdb
REMARK  8 active torsions:
REMARK  status: ('A' for Active; 'I' for Inactive)
REMARK    1  A    between atoms: _5  and  _11
REMARK    2  A    between atoms: _19  and  _21
REMARK    3  A    between atoms: _22  and  _66
REMARK    4  A    between atoms: _27  and  _30
REMARK    5  A    between atoms: _32  and  _33
REMARK    6  A    between atoms: _38  and  _43
REMARK    7  A    between atoms: _43  and  _46
REMARK    8  A    between atoms: _53  and  _55
REMARK                            x       y       z     vdW  Elec       q    Type
REMARK                         _______ _______ _______ _____ _____    ______ ____
ROOT
ATOM     10  C   UNL     1       1.621 110.933  54.540  0.00  0.00    +0.038 A 
ATOM     11  C   UNL     1       0.935 109.835  53.960  0.00  0.00    +0.047 A 
ATOM     12  C   UNL     1      -0.494 109.649  54.161  0.00  0.00    +0.035 A 
ATOM     32  C   UNL     1      -1.194 110.602  54.957  0.00  0.00    +0.024 A 
ATOM     33  C   UNL     1      -0.512 111.724  55.555  0.00  0.00    +0.007 A 
ATOM     34  C   UNL     1       0.897 111.911  55.362  0.00  0.00    -0.029 A 
ATOM     35  C   UNL     1       1.577 113.127  56.032  0.00  0.00    +0.045 C 
ENDROOT
BRANCH  10   9
ATOM      4  C   UNL     1       5.356 112.480  51.954  0.00  0.00    +0.077 A 
ATOM      5  C   UNL     1       4.502 113.055  50.955  0.00  0.00    +0.048 A 
ATOM      6  C   UNL     1       3.108 112.924  51.140  0.00  0.00    +0.116 A 
ATOM      7  N   UNL     1       2.615 112.266  52.246  0.00  0.00    -0.223 NA
ATOM      8  C   UNL     1       3.466 111.722  53.190  0.00  0.00    +0.220 A 
ATOM      9  N   UNL     1       2.993 111.063  54.314  0.00  0.00    -0.283 N 
ATOM     36  H   UNL     1       3.653 110.669  54.983  0.00  0.00    +0.155 HD
ATOM     37  N   UNL     1       4.802 111.832  53.035  0.00  0.00    -0.214 NA
BRANCH   4   3
ATOM      1  C   UNL     1       9.114 112.890  52.958  0.00  0.00    +0.020 A 
ATOM      2  C   UNL     1       7.674 112.847  53.063  0.00  0.00    +0.013 A 
ATOM      3  C   UNL     1       6.851 112.538  51.901  0.00  0.00    +0.019 A 
ATOM     38  C   UNL     1       7.523 112.275  50.637  0.00  0.00    +0.120 A 
ATOM     39  N   UNL     1       8.911 112.325  50.565  0.00  0.00    -0.263 NA
ATOM     40  C   UNL     1       9.713 112.623  51.677  0.00  0.00    +0.111 A 
ENDBRANCH   4   3
ENDBRANCH  10   9
BRANCH  12  13
ATOM     13  N   UNL     1      -1.242 108.550  53.604  0.00  0.00    -0.281 N 
ATOM     14  C   UNL     1      -2.241 108.598  52.646  0.00  0.00    +0.248 C 
ATOM     30  O   UNL     1      -2.794 109.623  52.275  0.00  0.00    -0.270 OA
ATOM     31  H   UNL     1      -1.007 107.623  53.960  0.00  0.00    +0.155 HD
BRANCH  14  15
ATOM     15  C   UNL     1      -2.703 107.323  52.019  0.00  0.00    +0.037 A 
ATOM     16  C   UNL     1      -2.295 106.021  52.555  0.00  0.00    +0.013 A 
ATOM     17  C   UNL     1      -2.742 104.806  51.921  0.00  0.00    +0.005 A 
ATOM     18  C   UNL     1      -3.603 104.887  50.744  0.00  0.00    -0.033 A 
ATOM     28  C   UNL     1      -3.997 106.191  50.236  0.00  0.00    +0.005 A 
ATOM     29  C   UNL     1      -3.560 107.384  50.854  0.00  0.00    +0.013 A 
BRANCH  18  19
ATOM     19  C   UNL     1      -4.109 103.643  49.991  0.00  0.00    +0.119 C 
BRANCH  19  20
ATOM     20  N   UNL     1      -3.081 102.740  49.392  0.00  0.00    -0.302 NA
ATOM     21  C   UNL     1      -2.510 103.306  48.089  0.00  0.00    +0.066 C 
ATOM     22  C   UNL     1      -1.419 102.360  47.487  0.00  0.00    -0.064 C 
ATOM     23  N   UNL     1      -2.022 100.973  47.258  0.00  0.00    +0.379 N 
ATOM     24  C   UNL     1      -1.015 100.097  46.639  0.00  0.00    -0.096 C 
ATOM     25  H   UNL     1      -2.863 101.085  46.536  0.00  0.00    -0.082 HD
ATOM     26  C   UNL     1      -2.594 100.404  48.549  0.00  0.00    -0.064 C 
ATOM     27  C   UNL     1      -3.656 101.366  49.153  0.00  0.00    +0.066 C 
ENDBRANCH  19  20
ENDBRANCH  18  19
ENDBRANCH  14  15
ENDBRANCH  12  13
TORSDOF 6
ENDMDL
MODEL 4
REMARK VINA RESULT:      -7.5      2.822      3.287
REMARK  Name = C:\Users\Docking\Desktop\test protocol\1iep_ligandH.pdb
REMARK  8 active torsions:
REMARK  status: ('A' for Active; 'I' for Inactive)
REMARK    1  A    between atoms: _5  and  _11
REMARK    2  A    between atoms: _19  and  _21
REMARK    3  A    between atoms: _22  and  _66
REMARK    4  A    between atoms: _27  and  _30
REMARK    5  A    between atoms: _32  and  _33
REMARK    6  A    between atoms: _38  and  _43
REMARK    7  A    between atoms: _43  and  _46
REMARK    8  A    between atoms: _53  and  _55
REMARK                            x       y       z     vdW  Elec       q    Type
REMARK                         _______ _______ _______ _____ _____    ______ ____
ROOT
ATOM     10  C   UNL     1      14.787 111.580  80.144  0.00  0.00    +0.038 A 
ATOM     11  C   UNL     1      13.762 111.748  81.110  0.00  0.00    +0.047 A 
ATOM     12  C   UNL     1      13.067 113.017  81.257  0.00  0.00    +0.035 A 
ATOM     32  C   UNL     1      13.440 114.095  80.401  0.00  0.00    +0.024 A 
ATOM     33  C   UNL     1      14.481 113.942  79.415  0.00  0.00    +0.007 A 
ATOM     34  C   UNL     1      15.171 112.693  79.267  0.00  0.00    -0.029 A 
ATOM     35  C   UNL     1      16.283 112.588  78.197  0.00  0.00    +0.045 C 
ENDROOT
BRANCH  10   9
ATOM      4  C   UNL     1      14.816 106.921  78.994  0.00  0.00    +0.077 A 
ATOM      5  C   UNL     1      13.444 106.954  78.577  0.00  0.00    +0.048 A 
ATOM      6  C   UNL     1      12.764 108.189  78.682  0.00  0.00    +0.116 A 
ATOM      7  N   UNL     1      13.418 109.300  79.168  0.00  0.00    -0.223 NA
ATOM      8  C   UNL     1      14.742 109.233  79.562  0.00  0.00    +0.220 A 
ATOM      9  N   UNL     1      15.421 110.340  80.047  0.00  0.00    -0.283 N 
ATOM     36  H   UNL     1      16.395 110.247  80.334  0.00  0.00    +0.155 HD
ATOM     37  N   UNL     1      15.412 108.065  79.474  0.00  0.00    -0.214 NA
BRANCH   4   3
ATOM      1  C   UNL     1      17.890 104.520  78.698  0.00  0.00    +0.020 A 
ATOM      2  C   UNL     1      17.112 105.737  78.741  0.00  0.00    +0.013 A 
ATOM      3  C   UNL     1      15.669 105.691  78.941  0.00  0.00    +0.019 A 
ATOM     38  C   UNL     1      15.040 104.389  79.096  0.00  0.00    +0.120 A 
ATOM     39  N   UNL     1      15.814 103.234  79.049  0.00  0.00    -0.263 NA
ATOM     40  C   UNL     1      17.203 103.265  78.855  0.00  0.00    +0.111 A 
ENDBRANCH   4   3
ENDBRANCH  10   9
BRANCH  12  13
ATOM     13  N   UNL     1      12.024 113.249  82.225  0.00  0.00    -0.281 N 
ATOM     14  C   UNL     1      10.655 113.142  82.044  0.00  0.00    +0.248 C 
ATOM     30  O   UNL     1      10.108 113.037  80.956  0.00  0.00    -0.270 OA
ATOM     31  H   UNL     1      12.333 113.526  83.157  0.00  0.00    +0.155 HD
BRANCH  14  15
ATOM     15  C   UNL     1       9.763 113.170  83.243  0.00  0.00    +0.037 A 
ATOM     16  C   UNL     1       8.389 112.665  83.181  0.00  0.00    +0.013 A 
ATOM     17  C   UNL     1       7.545 112.720  84.348  0.00  0.00    +0.005 A 
ATOM     18  C   UNL     1       8.074 113.281  85.589  0.00  0.00    -0.033 A 
ATOM     28  C   UNL     1       9.442 113.770  85.624  0.00  0.00    +0.005 A 
ATOM     29  C   UNL     1      10.273 113.719  84.482  0.00  0.00    +0.013 A 
BRANCH  18  19
ATOM     19  C   UNL     1       7.238 113.399  86.877  0.00  0.00    +0.119 C 
BRANCH  19  20
ATOM     20  N   UNL     1       5.754 113.477  86.724  0.00  0.00    -0.302 NA
ATOM     21  C   UNL     1       5.197 114.819  87.205  0.00  0.00    +0.066 C 
ATOM     22  C   UNL     1       3.646 114.892  87.017  0.00  0.00    -0.064 C 
ATOM     23  N   UNL     1       2.989 113.732  87.768  0.00  0.00    +0.379 N 
ATOM     24  C   UNL     1       1.528 113.831  87.641  0.00  0.00    -0.096 C 
ATOM     25  H   UNL     1       3.244 113.842  88.848  0.00  0.00    -0.082 HD
ATOM     26  C   UNL     1       3.540 112.394  87.297  0.00  0.00    -0.064 C 
ATOM     27  C   UNL     1       5.085 112.343  87.461  0.00  0.00    +0.066 C 
ENDBRANCH  19  20
ENDBRANCH  18  19
ENDBRANCH  14  15
ENDBRANCH  12  13
TORSDOF 6
ENDMDL
MODEL 5
REMARK VINA RESULT:      -7.4     26.729     30.075
REMARK  Name = C:\Users\Docking\Desktop\test protocol\1iep_ligandH.pdb
REMARK  8 active torsions:
REMARK  status: ('A' for Active; 'I' for Inactive)
REMARK    1  A    between atoms: _5  and  _11
REMARK    2  A    between atoms: _19  and  _21
REMARK    3  A    between atoms: _22  and  _66
REMARK    4  A    between atoms: _27  and  _30
REMARK    5  A    between atoms: _32  and  _33
REMARK    6  A    between atoms: _38  and  _43
REMARK    7  A    between atoms: _43  and  _46
REMARK    8  A    between atoms: _53  and  _55
REMARK                            x       y       z     vdW  Elec       q    Type
REMARK                         _______ _______ _______ _____ _____    ______ ____
ROOT
ATOM     10  C   UNL     1      -6.400 109.278  61.169  0.00  0.00    +0.038 A 
ATOM     11  C   UNL     1      -6.172 107.988  60.627  0.00  0.00    +0.047 A 
ATOM     12  C   UNL     1      -4.879 107.623  60.070  0.00  0.00    +0.035 A 
ATOM     32  C   UNL     1      -3.839 108.597  60.084  0.00  0.00    +0.024 A 
ATOM     33  C   UNL     1      -4.053 109.914  60.630  0.00  0.00    +0.007 A 
ATOM     34  C   UNL     1      -5.328 110.280  61.179  0.00  0.00    -0.029 A 
ATOM     35  C   UNL     1      -5.503 111.709  61.745  0.00  0.00    +0.045 C 
ENDROOT
BRANCH  10   9
ATOM      4  C   UNL     1      -9.544 109.467  64.791  0.00  0.00    +0.077 A 
ATOM      5  C   UNL     1      -8.603 108.904  65.715  0.00  0.00    +0.048 A 
ATOM      6  C   UNL     1      -7.323 108.572  65.217  0.00  0.00    +0.116 A 
ATOM      7  N   UNL     1      -7.018 108.793  63.892  0.00  0.00    -0.223 NA
ATOM      8  C   UNL     1      -7.949 109.337  63.026  0.00  0.00    +0.220 A 
ATOM      9  N   UNL     1      -7.661 109.574  61.691  0.00  0.00    -0.283 N 
ATOM     36  H   UNL     1      -8.378 109.970  61.083  0.00  0.00    +0.155 HD
ATOM     37  N   UNL     1      -9.179 109.660  63.477  0.00  0.00    -0.214 NA
BRANCH   4   3
ATOM      1  C   UNL     1     -13.320 109.353  65.807  0.00  0.00    +0.020 A 
ATOM      2  C   UNL     1     -11.993 108.909  65.448  0.00  0.00    +0.013 A 
ATOM      3  C   UNL     1     -10.936 109.873  65.167  0.00  0.00    +0.019 A 
ATOM     38  C   UNL     1     -11.257 111.289  65.259  0.00  0.00    +0.120 A 
ATOM     39  N   UNL     1     -12.544 111.687  65.606  0.00  0.00    -0.263 NA
ATOM     40  C   UNL     1     -13.570 110.769  65.877  0.00  0.00    +0.111 A 
ENDBRANCH   4   3
ENDBRANCH  10   9
BRANCH  12  13
ATOM     13  N   UNL     1      -4.591 106.331  59.498  0.00  0.00    -0.281 N 
ATOM     14  C   UNL     1      -4.025 105.231  60.121  0.00  0.00    +0.248 C 
ATOM     30  O   UNL     1      -3.480 105.261  61.215  0.00  0.00    -0.270 OA
ATOM     31  H   UNL     1      -4.835 106.213  58.515  0.00  0.00    +0.155 HD
BRANCH  14  15
ATOM     15  C   UNL     1      -4.055 103.910  59.423  0.00  0.00    +0.037 A 
ATOM     16  C   UNL     1      -5.292 103.387  58.839  0.00  0.00    +0.013 A 
ATOM     17  C   UNL     1      -5.298 102.103  58.185  0.00  0.00    +0.005 A 
ATOM     18  C   UNL     1      -4.059 101.332  58.111  0.00  0.00    -0.033 A 
ATOM     28  C   UNL     1      -2.844 101.877  58.694  0.00  0.00    +0.005 A 
ATOM     29  C   UNL     1      -2.835 103.135  59.337  0.00  0.00    +0.013 A 
BRANCH  18  19
ATOM     19  C   UNL     1      -3.976  99.943  57.451  0.00  0.00    +0.119 C 
BRANCH  19  20
ATOM     20  N   UNL     1      -5.060  98.967  57.773  0.00  0.00    -0.302 NA
ATOM     21  C   UNL     1      -5.148  98.681  59.274  0.00  0.00    +0.066 C 
ATOM     22  C   UNL     1      -6.302  97.676  59.595  0.00  0.00    -0.064 C 
ATOM     23  N   UNL     1      -6.082  96.383  58.809  0.00  0.00    +0.379 N 
ATOM     24  C   UNL     1      -7.133  95.414  59.153  0.00  0.00    -0.096 C 
ATOM     25  H   UNL     1      -5.106  95.952  59.133  0.00  0.00    -0.082 HD
ATOM     26  C   UNL     1      -5.990  96.659  57.315  0.00  0.00    -0.064 C 
ATOM     27  C   UNL     1      -4.860  97.681  57.010  0.00  0.00    +0.066 C 
ENDBRANCH  19  20
ENDBRANCH  18  19
ENDBRANCH  14  15
ENDBRANCH  12  13
TORSDOF 6
ENDMDL
