MODEL 1
REMARK VINA RESULT:      -8.9      0.000      0.000
REMARK  Name = C:\Users\Docking\Desktop\test protocol\1iep_ligandH.pdb
REMARK  8 active torsions:
REMARK  status: ('A' for Active; 'I' for Inactive)
REMARK    1  A    between atoms: _5  and  _11
REMARK    2  A    between atoms: _19  and  _21
REMARK    3  A    between atoms: _22  and  _66
REMARK    4  A    between atoms: _27  and  _30
REMARK    5  A    between atoms: _32  and  _33
REMARK    6  A    between atoms: _38  and  _43
REMARK    7  A    between atoms: _43  and  _46
REMARK    8  A    between atoms: _53  and  _55
REMARK                            x       y       z     vdW  Elec       q    Type
REMARK                         _______ _______ _______ _____ _____    ______ ____
ROOT
ATOM     10  C   UNL     1      59.561  46.844  12.409  0.00  0.00    +0.038 A 
ATOM     11  C   UNL     1      58.746  45.710  12.165  0.00  0.00    +0.047 A 
ATOM     12  C   UNL     1      58.784  44.553  13.047  0.00  0.00    +0.035 A 
ATOM     32  C   UNL     1      59.662  44.587  14.169  0.00  0.00    +0.024 A 
ATOM     33  C   UNL     1      60.498  45.732  14.431  0.00  0.00    +0.007 A 
ATOM     34  C   UNL     1      60.467  46.875  13.564  0.00  0.00    -0.029 A 
ATOM     35  C   UNL     1      61.390  48.072  13.889  0.00  0.00    +0.045 C 
ENDROOT
BRANCH  10   9
ATOM      4  C   UNL     1      60.891  49.162   8.422  0.00  0.00    +0.077 A 
ATOM      5  C   UNL     1      61.838  48.142   8.074  0.00  0.00    +0.048 A 
ATOM      6  C   UNL     1      61.958  47.041   8.951  0.00  0.00    +0.116 A 
ATOM      7  N   UNL     1      61.183  46.975  10.089  0.00  0.00    -0.223 NA
ATOM      8  C   UNL     1      60.280  47.977  10.396  0.00  0.00    +0.220 A 
ATOM      9  N   UNL     1      59.485  47.927  11.530  0.00  0.00    -0.283 N 
ATOM     36  H   UNL     1      58.836  48.690  11.725  0.00  0.00    +0.155 HD
ATOM     37  N   UNL     1      60.148  49.040   9.575  0.00  0.00    -0.214 NA
BRANCH   4   3
ATOM      1  C   UNL     1      61.268  52.689   6.772  0.00  0.00    +0.020 A 
ATOM      2  C   UNL     1      61.549  51.532   7.590  0.00  0.00    +0.013 A 
ATOM      3  C   UNL     1      60.648  50.386   7.594  0.00  0.00    +0.019 A 
ATOM     38  C   UNL     1      59.463  50.442   6.751  0.00  0.00    +0.120 A 
ATOM     39  N   UNL     1      59.218  51.571   5.975  0.00  0.00    -0.263 NA
ATOM     40  C   UNL     1      60.076  52.680   5.964  0.00  0.00    +0.111 A 
ENDBRANCH   4   3
ENDBRANCH  10   9
BRANCH  12  13
ATOM     13  N   UNL     1      57.986  43.369  12.846  0.00  0.00    -0.281 N 
ATOM     14  C   UNL     1      58.098  42.428  11.835  0.00  0.00    +0.248 C 
ATOM     30  O   UNL     1      58.769  42.575  10.825  0.00  0.00    -0.270 OA
ATOM     31  H   UNL     1      57.248  43.205  13.531  0.00  0.00    +0.155 HD
BRANCH  14  15
ATOM     15  C   UNL     1      57.345  41.143  11.959  0.00  0.00    +0.037 A 
ATOM     16  C   UNL     1      55.883  41.125  12.060  0.00  0.00    +0.013 A 
ATOM     17  C   UNL     1      55.183  39.873  12.196  0.00  0.00    +0.005 A 
ATOM     18  C   UNL     1      55.944  38.626  12.230  0.00  0.00    -0.033 A 
ATOM     28  C   UNL     1      57.393  38.672  12.122  0.00  0.00    +0.005 A 
ATOM     29  C   UNL     1      58.083  39.898  11.990  0.00  0.00    +0.013 A 
BRANCH  18  19
ATOM     19  C   UNL     1      55.282  37.245  12.393  0.00  0.00    +0.119 C 
BRANCH  19  20
ATOM     20  N   UNL     1      56.081  36.179  13.066  0.00  0.00    -0.302 NA
ATOM     21  C   UNL     1      56.184  34.912  12.212  0.00  0.00    +0.066 C 
ATOM     22  C   UNL     1      57.042  33.815  12.921  0.00  0.00    -0.064 C 
ATOM     23  N   UNL     1      56.432  33.498  14.288  0.00  0.00    +0.379 N 
ATOM     24  C   UNL     1      57.203  32.426  14.933  0.00  0.00    -0.096 C 
ATOM     25  H   UNL     1      55.398  33.116  14.116  0.00  0.00    -0.082 HD
ATOM     26  C   UNL     1      56.323  34.753  15.143  0.00  0.00    -0.064 C 
ATOM     27  C   UNL     1      55.493  35.847  14.416  0.00  0.00    +0.066 C 
ENDBRANCH  19  20
ENDBRANCH  18  19
ENDBRANCH  14  15
ENDBRANCH  12  13
TORSDOF 6
ENDMDL
MODEL 2
REMARK VINA RESULT:      -8.8     22.634     24.928
REMARK  Name = C:\Users\Docking\Desktop\test protocol\1iep_ligandH.pdb
REMARK  8 active torsions:
REMARK  status: ('A' for Active; 'I' for Inactive)
REMARK    1  A    between atoms: _5  and  _11
REMARK    2  A    between atoms: _19  and  _21
REMARK    3  A    between atoms: _22  and  _66
REMARK    4  A    between atoms: _27  and  _30
REMARK    5  A    between atoms: _32  and  _33
REMARK    6  A    between atoms: _38  and  _43
REMARK    7  A    between atoms: _43  and  _46
REMARK    8  A    between atoms: _53  and  _55
REMARK                            x       y       z     vdW  Elec       q    Type
REMARK                         _______ _______ _______ _____ _____    ______ ____
ROOT
ATOM     10  C   UNL     1      36.594  54.723   1.999  0.00  0.00    +0.038 A 
ATOM     11  C   UNL     1      36.895  53.885   3.103  0.00  0.00    +0.047 A 
ATOM     12  C   UNL     1      36.207  52.618   3.297  0.00  0.00    +0.035 A 
ATOM     32  C   UNL     1      35.219  52.234   2.344  0.00  0.00    +0.024 A 
ATOM     33  C   UNL     1      34.899  53.073   1.217  0.00  0.00    +0.007 A 
ATOM     34  C   UNL     1      35.573  54.325   1.022  0.00  0.00    -0.029 A 
ATOM     35  C   UNL     1      35.185  55.188  -0.202  0.00  0.00    +0.045 C 
ENDROOT
BRANCH  10   9
ATOM      4  C   UNL     1      37.292  59.348   3.075  0.00  0.00    +0.077 A 
ATOM      5  C   UNL     1      36.168  59.372   3.965  0.00  0.00    +0.048 A 
ATOM      6  C   UNL     1      35.432  58.175   4.113  0.00  0.00    +0.116 A 
ATOM      7  N   UNL     1      35.802  57.044   3.417  0.00  0.00    -0.223 NA
ATOM      8  C   UNL     1      36.891  57.056   2.565  0.00  0.00    +0.220 A 
ATOM      9  N   UNL     1      37.285  55.928   1.862  0.00  0.00    -0.283 N 
ATOM     36  H   UNL     1      38.090  55.980   1.237  0.00  0.00    +0.155 HD
ATOM     37  N   UNL     1      37.609  58.187   2.406  0.00  0.00    -0.214 NA
BRANCH   4   3
ATOM      1  C   UNL     1      40.324  61.819   3.078  0.00  0.00    +0.020 A 
ATOM      2  C   UNL     1      39.517  60.654   3.359  0.00  0.00    +0.013 A 
ATOM      3  C   UNL     1      38.170  60.532   2.815  0.00  0.00    +0.019 A 
ATOM     38  C   UNL     1      37.667  61.615   1.983  0.00  0.00    +0.120 A 
ATOM     39  N   UNL     1      38.466  62.725   1.731  0.00  0.00    -0.263 NA
ATOM     40  C   UNL     1      39.763  62.854   2.250  0.00  0.00    +0.111 A 
ENDBRANCH   4   3
ENDBRANCH  10   9
BRANCH  12  13
ATOM     13  N   UNL     1      36.465  51.731   4.403  0.00  0.00    -0.281 N 
ATOM     14  C   UNL     1      36.056  51.868   5.719  0.00  0.00    +0.248 C 
ATOM     30  O   UNL     1      35.582  52.891   6.192  0.00  0.00    -0.270 OA
ATOM     31  H   UNL     1      37.017  50.900   4.190  0.00  0.00    +0.155 HD
BRANCH  14  15
ATOM     15  C   UNL     1      36.206  50.707   6.648  0.00  0.00    +0.037 A 
ATOM     16  C   UNL     1      36.118  50.879   8.100  0.00  0.00    +0.013 A 
ATOM     17  C   UNL     1      36.284  49.745   8.974  0.00  0.00    +0.005 A 
ATOM     18  C   UNL     1      36.539  48.427   8.397  0.00  0.00    -0.033 A 
ATOM     28  C   UNL     1      36.616  48.284   6.952  0.00  0.00    +0.005 A 
ATOM     29  C   UNL     1      36.455  49.394   6.093  0.00  0.00    +0.013 A 
BRANCH  18  19
ATOM     19  C   UNL     1      36.750  47.165   9.254  0.00  0.00    +0.119 C 
BRANCH  19  20
ATOM     20  N   UNL     1      37.236  47.361  10.652  0.00  0.00    -0.302 NA
ATOM     21  C   UNL     1      38.762  47.272  10.748  0.00  0.00    +0.066 C 
ATOM     22  C   UNL     1      39.254  47.502  12.214  0.00  0.00    -0.064 C 
ATOM     23  N   UNL     1      38.592  46.479  13.138  0.00  0.00    +0.379 N 
ATOM     24  C   UNL     1      39.098  46.655  14.508  0.00  0.00    -0.096 C 
ATOM     25  H   UNL     1      38.899  45.464  12.793  0.00  0.00    -0.082 HD
ATOM     26  C   UNL     1      37.075  46.559  13.047  0.00  0.00    -0.064 C 
ATOM     27  C   UNL     1      36.598  46.358  11.582  0.00  0.00    +0.066 C 
ENDBRANCH  19  20
ENDBRANCH  18  19
ENDBRANCH  14  15
ENDBRANCH  12  13
TORSDOF 6
ENDMDL
MODEL 3
REMARK VINA RESULT:      -8.4      5.113      6.606
REMARK  Name = C:\Users\Docking\Desktop\test protocol\1iep_ligandH.pdb
REMARK  8 active torsions:
REMARK  status: ('A' for Active; 'I' for Inactive)
REMARK    1  A    between atoms: _5  and  _11
REMARK    2  A    between atoms: _19  and  _21
REMARK    3  A    between atoms: _22  and  _66
REMARK    4  A    between atoms: _27  and  _30
REMARK    5  A    between atoms: _32  and  _33
REMARK    6  A    between atoms: _38  and  _43
REMARK    7  A    between atoms: _43  and  _46
REMARK    8  A    between atoms: _53  and  _55
REMARK                            x       y       z     vdW  Elec       q    Type
REMARK                         _______ _______ _______ _____ _____    ______ ____
ROOT
ATOM     10  C   UNL     1      62.070  45.279   6.960  0.00  0.00    +0.038 A 
ATOM     11  C   UNL     1      61.224  44.454   7.745  0.00  0.00    +0.047 A 
ATOM     12  C   UNL     1      60.836  44.840   9.093  0.00  0.00    +0.035 A 
ATOM     32  C   UNL     1      61.326  46.074   9.609  0.00  0.00    +0.024 A 
ATOM     33  C   UNL     1      62.188  46.925   8.826  0.00  0.00    +0.007 A 
ATOM     34  C   UNL     1      62.576  46.548   7.497  0.00  0.00    -0.029 A 
ATOM     35  C   UNL     1      63.507  47.496   6.705  0.00  0.00    +0.045 C 
ENDROOT
BRANCH  10   9
ATOM      4  C   UNL     1      64.988  43.053   3.867  0.00  0.00    +0.077 A 
ATOM      5  C   UNL     1      65.926  42.720   4.900  0.00  0.00    +0.048 A 
ATOM      6  C   UNL     1      65.624  43.147   6.213  0.00  0.00    +0.116 A 
ATOM      7  N   UNL     1      64.467  43.852   6.462  0.00  0.00    -0.223 NA
ATOM      8  C   UNL     1      63.584  44.158   5.443  0.00  0.00    +0.220 A 
ATOM      9  N   UNL     1      62.411  44.860   5.672  0.00  0.00    -0.283 N 
ATOM     36  H   UNL     1      61.789  45.072   4.892  0.00  0.00    +0.155 HD
ATOM     37  N   UNL     1      63.851  43.763   4.180  0.00  0.00    -0.214 NA
BRANCH   4   3
ATOM      1  C   UNL     1      64.488  42.728   0.001  0.00  0.00    +0.020 A 
ATOM      2  C   UNL     1      64.272  43.127   1.373  0.00  0.00    +0.013 A 
ATOM      3  C   UNL     1      65.165  42.669   2.430  0.00  0.00    +0.019 A 
ATOM     38  C   UNL     1      66.275  41.803   2.064  0.00  0.00    +0.120 A 
ATOM     39  N   UNL     1      66.457  41.434   0.734  0.00  0.00    -0.263 NA
ATOM     40  C   UNL     1      65.603  41.867  -0.292  0.00  0.00    +0.111 A 
ENDBRANCH   4   3
ENDBRANCH  10   9
BRANCH  12  13
ATOM     13  N   UNL     1      59.987  44.039   9.939  0.00  0.00    -0.281 N 
ATOM     14  C   UNL     1      58.616  43.860   9.845  0.00  0.00    +0.248 C 
ATOM     30  O   UNL     1      57.878  44.535   9.144  0.00  0.00    -0.270 OA
ATOM     31  H   UNL     1      60.452  43.544  10.700  0.00  0.00    +0.155 HD
BRANCH  14  15
ATOM     15  C   UNL     1      57.971  42.785  10.659  0.00  0.00    +0.037 A 
ATOM     16  C   UNL     1      56.516  42.722  10.817  0.00  0.00    +0.013 A 
ATOM     17  C   UNL     1      55.920  41.685  11.622  0.00  0.00    +0.005 A 
ATOM     18  C   UNL     1      56.781  40.700  12.273  0.00  0.00    -0.033 A 
ATOM     28  C   UNL     1      58.221  40.784  12.095  0.00  0.00    +0.005 A 
ATOM     29  C   UNL     1      58.809  41.799  11.308  0.00  0.00    +0.013 A 
BRANCH  18  19
ATOM     19  C   UNL     1      56.234  39.572  13.167  0.00  0.00    +0.119 C 
BRANCH  19  20
ATOM     20  N   UNL     1      56.538  38.168  12.759  0.00  0.00    -0.302 NA
ATOM     21  C   UNL     1      55.310  37.459  12.180  0.00  0.00    +0.066 C 
ATOM     22  C   UNL     1      55.652  35.999  11.737  0.00  0.00    -0.064 C 
ATOM     23  N   UNL     1      56.211  35.225  12.932  0.00  0.00    +0.379 N 
ATOM     24  C   UNL     1      56.479  33.835  12.534  0.00  0.00    -0.096 C 
ATOM     25  H   UNL     1      55.423  35.205  13.720  0.00  0.00    -0.082 HD
ATOM     26  C   UNL     1      57.431  35.924  13.516  0.00  0.00    -0.064 C 
ATOM     27  C   UNL     1      57.088  37.384  13.925  0.00  0.00    +0.066 C 
ENDBRANCH  19  20
ENDBRANCH  18  19
ENDBRANCH  14  15
ENDBRANCH  12  13
TORSDOF 6
ENDMDL
MODEL 4
REMARK VINA RESULT:      -8.3     28.510     34.390
REMARK  Name = C:\Users\Docking\Desktop\test protocol\1iep_ligandH.pdb
REMARK  8 active torsions:
REMARK  status: ('A' for Active; 'I' for Inactive)
REMARK    1  A    between atoms: _5  and  _11
REMARK    2  A    between atoms: _19  and  _21
REMARK    3  A    between atoms: _22  and  _66
REMARK    4  A    between atoms: _27  and  _30
REMARK    5  A    between atoms: _32  and  _33
REMARK    6  A    between atoms: _38  and  _43
REMARK    7  A    between atoms: _43  and  _46
REMARK    8  A    between atoms: _53  and  _55
REMARK                            x       y       z     vdW  Elec       q    Type
REMARK                         _______ _______ _______ _____ _____    ______ ____
ROOT
ATOM     10  C   UNL     1      36.973  60.023  -0.355  0.00  0.00    +0.038 A 
ATOM     11  C   UNL     1      36.394  60.122  -1.646  0.00  0.00    +0.047 A 
ATOM     12  C   UNL     1      36.261  61.407  -2.314  0.00  0.00    +0.035 A 
ATOM     32  C   UNL     1      36.732  62.571  -1.640  0.00  0.00    +0.024 A 
ATOM     33  C   UNL     1      37.323  62.489  -0.327  0.00  0.00    +0.007 A 
ATOM     34  C   UNL     1      37.454  61.224   0.338  0.00  0.00    -0.029 A 
ATOM     35  C   UNL     1      38.090  61.196   1.747  0.00  0.00    +0.045 C 
ENDROOT
BRANCH  10   9
ATOM      4  C   UNL     1      35.257  56.497   2.412  0.00  0.00    +0.077 A 
ATOM      5  C   UNL     1      34.068  57.237   2.720  0.00  0.00    +0.048 A 
ATOM      6  C   UNL     1      33.939  58.524   2.152  0.00  0.00    +0.116 A 
ATOM      7  N   UNL     1      34.932  59.024   1.338  0.00  0.00    -0.223 NA
ATOM      8  C   UNL     1      36.068  58.284   1.063  0.00  0.00    +0.220 A 
ATOM      9  N   UNL     1      37.076  58.763   0.240  0.00  0.00    -0.283 N 
ATOM     36  H   UNL     1      37.901  58.190   0.068  0.00  0.00    +0.155 HD
ATOM     37  N   UNL     1      36.215  57.053   1.594  0.00  0.00    -0.214 NA
BRANCH   4   3
ATOM      1  C   UNL     1      35.227  53.259   4.607  0.00  0.00    +0.020 A 
ATOM      2  C   UNL     1      34.923  54.594   4.147  0.00  0.00    +0.013 A 
ATOM      3  C   UNL     1      35.537  55.122   2.934  0.00  0.00    +0.019 A 
ATOM     38  C   UNL     1      36.460  54.265   2.205  0.00  0.00    +0.120 A 
ATOM     39  N   UNL     1      36.734  52.984   2.673  0.00  0.00    -0.263 NA
ATOM     40  C   UNL     1      36.151  52.467   3.840  0.00  0.00    +0.111 A 
ENDBRANCH   4   3
ENDBRANCH  10   9
BRANCH  12  13
ATOM     13  N   UNL     1      35.673  61.571  -3.621  0.00  0.00    -0.281 N 
ATOM     14  C   UNL     1      34.483  61.041  -4.092  0.00  0.00    +0.248 C 
ATOM     30  O   UNL     1      33.844  60.167  -3.526  0.00  0.00    -0.270 OA
ATOM     31  H   UNL     1      36.199  62.147  -4.278  0.00  0.00    +0.155 HD
BRANCH  14  15
ATOM     15  C   UNL     1      33.930  61.546  -5.385  0.00  0.00    +0.037 A 
ATOM     16  C   UNL     1      33.425  62.916  -5.513  0.00  0.00    +0.013 A 
ATOM     17  C   UNL     1      32.881  63.372  -6.767  0.00  0.00    +0.005 A 
ATOM     18  C   UNL     1      32.840  62.457  -7.905  0.00  0.00    -0.033 A 
ATOM     28  C   UNL     1      33.352  61.105  -7.752  0.00  0.00    +0.005 A 
ATOM     29  C   UNL     1      33.885  60.654  -6.524  0.00  0.00    +0.013 A 
BRANCH  18  19
ATOM     19  C   UNL     1      32.258  62.852  -9.275  0.00  0.00    +0.119 C 
BRANCH  19  20
ATOM     20  N   UNL     1      33.228  63.165 -10.366  0.00  0.00    -0.302 NA
ATOM     21  C   UNL     1      32.872  64.463 -11.096  0.00  0.00    +0.066 C 
ATOM     22  C   UNL     1      33.911  64.787 -12.220  0.00  0.00    -0.064 C 
ATOM     23  N   UNL     1      33.979  63.615 -13.200  0.00  0.00    +0.379 N 
ATOM     24  C   UNL     1      34.911  63.941 -14.290  0.00  0.00    -0.096 C 
ATOM     25  H   UNL     1      32.966  63.490 -13.648  0.00  0.00    -0.082 HD
ATOM     26  C   UNL     1      34.329  62.320 -12.482  0.00  0.00    -0.064 C 
ATOM     27  C   UNL     1      33.308  62.022 -11.349  0.00  0.00    +0.066 C 
ENDBRANCH  19  20
ENDBRANCH  18  19
ENDBRANCH  14  15
ENDBRANCH  12  13
TORSDOF 6
ENDMDL
MODEL 5
REMARK VINA RESULT:      -8.2     27.756     33.489
REMARK  Name = C:\Users\Docking\Desktop\test protocol\1iep_ligandH.pdb
REMARK  8 active torsions:
REMARK  status: ('A' for Active; 'I' for Inactive)
REMARK    1  A    between atoms: _5  and  _11
REMARK    2  A    between atoms: _19  and  _21
REMARK    3  A    between atoms: _22  and  _66
REMARK    4  A    between atoms: _27  and  _30
REMARK    5  A    between atoms: _32  and  _33
REMARK    6  A    between atoms: _38  and  _43
REMARK    7  A    between atoms: _43  and  _46
REMARK    8  A    between atoms: _53  and  _55
REMARK                            x       y       z     vdW  Elec       q    Type
REMARK                         _______ _______ _______ _____ _____    ______ ____
ROOT
ATOM     10  C   UNL     1      37.102  58.036   0.870  0.00  0.00    +0.038 A 
ATOM     11  C   UNL     1      36.471  58.362  -0.358  0.00  0.00    +0.047 A 
ATOM     12  C   UNL     1      36.455  59.729  -0.856  0.00  0.00    +0.035 A 
ATOM     32  C   UNL     1      37.094  60.739  -0.079  0.00  0.00    +0.024 A 
ATOM     33  C   UNL     1      37.739  60.425   1.172  0.00  0.00    +0.007 A 
ATOM     34  C   UNL     1      37.755  59.080   1.670  0.00  0.00    -0.029 A 
ATOM     35  C   UNL     1      38.456  58.802   3.020  0.00  0.00    +0.045 C 
ENDROOT
BRANCH  10   9
ATOM      4  C   UNL     1      35.132  54.397   3.302  0.00  0.00    +0.077 A 
ATOM      5  C   UNL     1      34.056  55.218   3.776  0.00  0.00    +0.048 A 
ATOM      6  C   UNL     1      34.050  56.574   3.377  0.00  0.00    +0.116 A 
ATOM      7  N   UNL     1      35.050  57.060   2.564  0.00  0.00    -0.223 NA
ATOM      8  C   UNL     1      36.075  56.241   2.126  0.00  0.00    +0.220 A 
ATOM      9  N   UNL     1      37.087  56.708   1.301  0.00  0.00    -0.283 N 
ATOM     36  H   UNL     1      37.829  56.074   1.006  0.00  0.00    +0.155 HD
ATOM     37  N   UNL     1      36.104  54.944   2.494  0.00  0.00    -0.214 NA
BRANCH   4   3
ATOM      1  C   UNL     1      35.112  50.493   3.061  0.00  0.00    +0.020 A 
ATOM      2  C   UNL     1      34.955  51.880   2.691  0.00  0.00    +0.013 A 
ATOM      3  C   UNL     1      35.276  52.944   3.634  0.00  0.00    +0.019 A 
ATOM     38  C   UNL     1      35.757  52.567   4.955  0.00  0.00    +0.120 A 
ATOM     39  N   UNL     1      35.896  51.222   5.284  0.00  0.00    -0.263 NA
ATOM     40  C   UNL     1      35.590  50.190   4.385  0.00  0.00    +0.111 A 
ENDBRANCH   4   3
ENDBRANCH  10   9
BRANCH  12  13
ATOM     13  N   UNL     1      35.823  60.121  -2.091  0.00  0.00    -0.281 N 
ATOM     14  C   UNL     1      34.501  59.946  -2.465  0.00  0.00    +0.248 C 
ATOM     30  O   UNL     1      33.705  59.230  -1.875  0.00  0.00    -0.270 OA
ATOM     31  H   UNL     1      36.424  60.583  -2.774  0.00  0.00    +0.155 HD
BRANCH  14  15
ATOM     15  C   UNL     1      33.993  60.658  -3.677  0.00  0.00    +0.037 A 
ATOM     16  C   UNL     1      34.755  61.745  -4.295  0.00  0.00    +0.013 A 
ATOM     17  C   UNL     1      34.234  62.426  -5.454  0.00  0.00    +0.005 A 
ATOM     18  C   UNL     1      32.942  62.020  -6.002  0.00  0.00    -0.033 A 
ATOM     28  C   UNL     1      32.209  60.935  -5.372  0.00  0.00    +0.005 A 
ATOM     29  C   UNL     1      32.716  60.266  -4.236  0.00  0.00    +0.013 A 
BRANCH  18  19
ATOM     19  C   UNL     1      32.300  62.705  -7.223  0.00  0.00    +0.119 C 
BRANCH  19  20
ATOM     20  N   UNL     1      33.191  63.529  -8.093  0.00  0.00    -0.302 NA
ATOM     21  C   UNL     1      33.114  65.019  -7.747  0.00  0.00    +0.066 C 
ATOM     22  C   UNL     1      34.070  65.863  -8.651  0.00  0.00    -0.064 C 
ATOM     23  N   UNL     1      33.715  65.629 -10.121  0.00  0.00    +0.379 N 
ATOM     24  C   UNL     1      34.574  66.467 -10.972  0.00  0.00    -0.096 C 
ATOM     25  H   UNL     1      32.662  65.962 -10.272  0.00  0.00    -0.082 HD
ATOM     26  C   UNL     1      33.787  64.150 -10.473  0.00  0.00    -0.064 C 
ATOM     27  C   UNL     1      32.856  63.317  -9.549  0.00  0.00    +0.066 C 
ENDBRANCH  19  20
ENDBRANCH  18  19
ENDBRANCH  14  15
ENDBRANCH  12  13
TORSDOF 6
ENDMDL
