MODEL 1
REMARK VINA RESULT:      -8.9      0.000      0.000
REMARK  Name = C:\Users\Docking\Desktop\test protocol\1iep_ligandH.pdb
REMARK  8 active torsions:
REMARK  status: ('A' for Active; 'I' for Inactive)
REMARK    1  A    between atoms: _5  and  _11
REMARK    2  A    between atoms: _19  and  _21
REMARK    3  A    between atoms: _22  and  _66
REMARK    4  A    between atoms: _27  and  _30
REMARK    5  A    between atoms: _32  and  _33
REMARK    6  A    between atoms: _38  and  _43
REMARK    7  A    between atoms: _43  and  _46
REMARK    8  A    between atoms: _53  and  _55
REMARK                            x       y       z     vdW  Elec       q    Type
REMARK                         _______ _______ _______ _____ _____    ______ ____
ROOT
ATOM     10  C   UNL     1      12.756  -2.734 139.765  0.00  0.00    +0.038 A 
ATOM     11  C   UNL     1      13.311  -3.835 139.064  0.00  0.00    +0.047 A 
ATOM     12  C   UNL     1      12.490  -4.971 138.676  0.00  0.00    +0.035 A 
ATOM     32  C   UNL     1      11.106  -4.952 139.017  0.00  0.00    +0.024 A 
ATOM     33  C   UNL     1      10.525  -3.842 139.730  0.00  0.00    +0.007 A 
ATOM     34  C   UNL     1      11.331  -2.719 140.118  0.00  0.00    -0.029 A 
ATOM     35  C   UNL     1      10.657  -1.560 140.887  0.00  0.00    +0.045 C 
ENDROOT
BRANCH  10   9
ATOM      4  C   UNL     1      14.563   1.648 139.010  0.00  0.00    +0.077 A 
ATOM      5  C   UNL     1      13.800   1.820 137.807  0.00  0.00    +0.048 A 
ATOM      6  C   UNL     1      12.960   0.754 137.414  0.00  0.00    +0.116 A 
ATOM      7  N   UNL     1      12.895  -0.393 138.174  0.00  0.00    -0.223 NA
ATOM      8  C   UNL     1      13.646  -0.527 139.328  0.00  0.00    +0.220 A 
ATOM      9  N   UNL     1      13.590  -1.669 140.112  0.00  0.00    -0.283 N 
ATOM     36  H   UNL     1      14.165  -1.732 140.952  0.00  0.00    +0.155 HD
ATOM     37  N   UNL     1      14.456   0.476 139.724  0.00  0.00    -0.214 NA
BRANCH   4   3
ATOM      1  C   UNL     1      17.737   3.441 140.428  0.00  0.00    +0.020 A 
ATOM      2  C   UNL     1      16.880   2.403 139.902  0.00  0.00    +0.013 A 
ATOM      3  C   UNL     1      15.493   2.686 139.558  0.00  0.00    +0.019 A 
ATOM     38  C   UNL     1      14.999   4.040 139.758  0.00  0.00    +0.120 A 
ATOM     39  N   UNL     1      15.847   5.019 140.267  0.00  0.00    -0.263 NA
ATOM     40  C   UNL     1      17.183   4.758 140.604  0.00  0.00    +0.111 A 
ENDBRANCH   4   3
ENDBRANCH  10   9
BRANCH  12  13
ATOM     13  N   UNL     1      12.999  -6.121 137.970  0.00  0.00    -0.281 N 
ATOM     14  C   UNL     1      13.532  -6.168 136.692  0.00  0.00    +0.248 C 
ATOM     30  O   UNL     1      13.454  -5.261 135.877  0.00  0.00    -0.270 OA
ATOM     31  H   UNL     1      12.963  -7.007 138.474  0.00  0.00    +0.155 HD
BRANCH  14  15
ATOM     15  C   UNL     1      14.241  -7.407 136.251  0.00  0.00    +0.037 A 
ATOM     16  C   UNL     1      13.505  -8.639 135.954  0.00  0.00    +0.013 A 
ATOM     17  C   UNL     1      14.215  -9.825 135.546  0.00  0.00    +0.005 A 
ATOM     18  C   UNL     1      15.671  -9.785 135.432  0.00  0.00    -0.033 A 
ATOM     28  C   UNL     1      16.375  -8.548 135.727  0.00  0.00    +0.005 A 
ATOM     29  C   UNL     1      15.683  -7.384 136.128  0.00  0.00    +0.013 A 
BRANCH  18  19
ATOM     19  C   UNL     1      16.512 -11.009 135.024  0.00  0.00    +0.119 C 
BRANCH  19  20
ATOM     20  N   UNL     1      15.853 -12.347 135.098  0.00  0.00    -0.302 NA
ATOM     21  C   UNL     1      15.969 -12.967 136.494  0.00  0.00    +0.066 C 
ATOM     22  C   UNL     1      15.255 -14.356 136.560  0.00  0.00    -0.064 C 
ATOM     23  N   UNL     1      15.854 -15.286 135.503  0.00  0.00    +0.379 N 
ATOM     24  C   UNL     1      15.225 -16.611 135.601  0.00  0.00    -0.096 C 
ATOM     25  H   UNL     1      16.937 -15.407 135.735  0.00  0.00    -0.082 HD
ATOM     26  C   UNL     1      15.746 -14.675 134.113  0.00  0.00    -0.064 C 
ATOM     27  C   UNL     1      16.433 -13.282 134.066  0.00  0.00    +0.066 C 
ENDBRANCH  19  20
ENDBRANCH  18  19
ENDBRANCH  14  15
ENDBRANCH  12  13
TORSDOF 6
ENDMDL
MODEL 2
REMARK VINA RESULT:      -8.5      6.074      7.625
REMARK  Name = C:\Users\Docking\Desktop\test protocol\1iep_ligandH.pdb
REMARK  8 active torsions:
REMARK  status: ('A' for Active; 'I' for Inactive)
REMARK    1  A    between atoms: _5  and  _11
REMARK    2  A    between atoms: _19  and  _21
REMARK    3  A    between atoms: _22  and  _66
REMARK    4  A    between atoms: _27  and  _30
REMARK    5  A    between atoms: _32  and  _33
REMARK    6  A    between atoms: _38  and  _43
REMARK    7  A    between atoms: _43  and  _46
REMARK    8  A    between atoms: _53  and  _55
REMARK                            x       y       z     vdW  Elec       q    Type
REMARK                         _______ _______ _______ _____ _____    ______ ____
ROOT
ATOM     10  C   UNL     1      15.521   0.773 137.826  0.00  0.00    +0.038 A 
ATOM     11  C   UNL     1      14.669  -0.173 138.450  0.00  0.00    +0.047 A 
ATOM     12  C   UNL     1      13.505  -0.709 137.762  0.00  0.00    +0.035 A 
ATOM     32  C   UNL     1      13.239  -0.259 136.435  0.00  0.00    +0.024 A 
ATOM     33  C   UNL     1      14.094   0.703 135.785  0.00  0.00    +0.007 A 
ATOM     34  C   UNL     1      15.242   1.236 136.461  0.00  0.00    -0.029 A 
ATOM     35  C   UNL     1      16.119   2.271 135.718  0.00  0.00    +0.045 C 
ENDROOT
BRANCH  10   9
ATOM      4  C   UNL     1      17.691   4.075 140.550  0.00  0.00    +0.077 A 
ATOM      5  C   UNL     1      16.537   4.928 140.540  0.00  0.00    +0.048 A 
ATOM      6  C   UNL     1      15.408   4.483 139.816  0.00  0.00    +0.116 A 
ATOM      7  N   UNL     1      15.442   3.274 139.156  0.00  0.00    -0.223 NA
ATOM      8  C   UNL     1      16.572   2.477 139.184  0.00  0.00    +0.220 A 
ATOM      9  N   UNL     1      16.625   1.254 138.533  0.00  0.00    -0.283 N 
ATOM     36  H   UNL     1      17.479   0.699 138.572  0.00  0.00    +0.155 HD
ATOM     37  N   UNL     1      17.663   2.880 139.867  0.00  0.00    -0.214 NA
BRANCH   4   3
ATOM      1  C   UNL     1      20.242   5.162 143.310  0.00  0.00    +0.020 A 
ATOM      2  C   UNL     1      18.989   4.857 142.658  0.00  0.00    +0.013 A 
ATOM      3  C   UNL     1      18.960   4.405 141.272  0.00  0.00    +0.019 A 
ATOM     38  C   UNL     1      20.227   4.271 140.569  0.00  0.00    +0.120 A 
ATOM     39  N   UNL     1      21.418   4.574 141.222  0.00  0.00    -0.263 NA
ATOM     40  C   UNL     1      21.458   5.011 142.555  0.00  0.00    +0.111 A 
ENDBRANCH   4   3
ENDBRANCH  10   9
BRANCH  12  13
ATOM     13  N   UNL     1      12.600  -1.666 138.348  0.00  0.00    -0.281 N 
ATOM     14  C   UNL     1      11.768  -1.491 139.442  0.00  0.00    +0.248 C 
ATOM     30  O   UNL     1      11.833  -0.548 140.216  0.00  0.00    -0.270 OA
ATOM     31  H   UNL     1      12.570  -2.583 137.904  0.00  0.00    +0.155 HD
BRANCH  14  15
ATOM     15  C   UNL     1      10.721  -2.521 139.724  0.00  0.00    +0.037 A 
ATOM     16  C   UNL     1      10.954  -3.939 139.440  0.00  0.00    +0.013 A 
ATOM     17  C   UNL     1       9.922  -4.909 139.706  0.00  0.00    +0.005 A 
ATOM     18  C   UNL     1       8.646  -4.463 140.261  0.00  0.00    -0.033 A 
ATOM     28  C   UNL     1       8.444  -3.051 140.538  0.00  0.00    +0.005 A 
ATOM     29  C   UNL     1       9.453  -2.097 140.278  0.00  0.00    +0.013 A 
BRANCH  18  19
ATOM     19  C   UNL     1       7.481  -5.425 140.556  0.00  0.00    +0.119 C 
BRANCH  19  20
ATOM     20  N   UNL     1       7.548  -6.788 139.948  0.00  0.00    -0.302 NA
ATOM     21  C   UNL     1       6.755  -6.872 138.640  0.00  0.00    +0.066 C 
ATOM     22  C   UNL     1       6.855  -8.298 138.006  0.00  0.00    -0.064 C 
ATOM     23  N   UNL     1       6.354  -9.337 139.011  0.00  0.00    +0.379 N 
ATOM     24  C   UNL     1       6.392 -10.672 138.397  0.00  0.00    -0.096 C 
ATOM     25  H   UNL     1       5.289  -9.099 139.240  0.00  0.00    -0.082 HD
ATOM     26  C   UNL     1       7.135  -9.257 140.315  0.00  0.00    -0.064 C 
ATOM     27  C   UNL     1       7.054  -7.829 140.922  0.00  0.00    +0.066 C 
ENDBRANCH  19  20
ENDBRANCH  18  19
ENDBRANCH  14  15
ENDBRANCH  12  13
TORSDOF 6
ENDMDL
MODEL 3
REMARK VINA RESULT:      -8.3      1.754      2.634
REMARK  Name = C:\Users\Docking\Desktop\test protocol\1iep_ligandH.pdb
REMARK  8 active torsions:
REMARK  status: ('A' for Active; 'I' for Inactive)
REMARK    1  A    between atoms: _5  and  _11
REMARK    2  A    between atoms: _19  and  _21
REMARK    3  A    between atoms: _22  and  _66
REMARK    4  A    between atoms: _27  and  _30
REMARK    5  A    between atoms: _32  and  _33
REMARK    6  A    between atoms: _38  and  _43
REMARK    7  A    between atoms: _43  and  _46
REMARK    8  A    between atoms: _53  and  _55
REMARK                            x       y       z     vdW  Elec       q    Type
REMARK                         _______ _______ _______ _____ _____    ______ ____
ROOT
ATOM     10  C   UNL     1      12.650  -2.753 139.786  0.00  0.00    +0.038 A 
ATOM     11  C   UNL     1      13.237  -3.842 139.093  0.00  0.00    +0.047 A 
ATOM     12  C   UNL     1      12.446  -4.998 138.701  0.00  0.00    +0.035 A 
ATOM     32  C   UNL     1      11.059  -5.010 139.028  0.00  0.00    +0.024 A 
ATOM     33  C   UNL     1      10.446  -3.912 139.732  0.00  0.00    +0.007 A 
ATOM     34  C   UNL     1      11.222  -2.770 140.124  0.00  0.00    -0.029 A 
ATOM     35  C   UNL     1      10.514  -1.624 140.883  0.00  0.00    +0.045 C 
ENDROOT
BRANCH  10   9
ATOM      4  C   UNL     1      14.561   1.562 138.910  0.00  0.00    +0.077 A 
ATOM      5  C   UNL     1      13.921   1.651 137.630  0.00  0.00    +0.048 A 
ATOM      6  C   UNL     1      13.113   0.563 137.231  0.00  0.00    +0.116 A 
ATOM      7  N   UNL     1      12.965  -0.529 138.059  0.00  0.00    -0.223 NA
ATOM      8  C   UNL     1      13.598  -0.584 139.287  0.00  0.00    +0.220 A 
ATOM      9  N   UNL     1      13.456  -1.668 140.139  0.00  0.00    -0.283 N 
ATOM     36  H   UNL     1      13.946  -1.674 141.033  0.00  0.00    +0.155 HD
ATOM     37  N   UNL     1      14.376   0.442 139.690  0.00  0.00    -0.214 NA
BRANCH   4   3
ATOM      1  C   UNL     1      15.889   5.004 140.211  0.00  0.00    +0.020 A 
ATOM      2  C   UNL     1      14.998   4.008 139.662  0.00  0.00    +0.013 A 
ATOM      3  C   UNL     1      15.443   2.633 139.473  0.00  0.00    +0.019 A 
ATOM     38  C   UNL     1      16.807   2.296 139.853  0.00  0.00    +0.120 A 
ATOM     39  N   UNL     1      17.643   3.277 140.377  0.00  0.00    -0.263 NA
ATOM     40  C   UNL     1      17.226   4.603 140.562  0.00  0.00    +0.111 A 
ENDBRANCH   4   3
ENDBRANCH  10   9
BRANCH  12  13
ATOM     13  N   UNL     1      12.989  -6.138 138.003  0.00  0.00    -0.281 N 
ATOM     14  C   UNL     1      13.365  -6.222 136.673  0.00  0.00    +0.248 C 
ATOM     30  O   UNL     1      13.090  -5.387 135.823  0.00  0.00    -0.270 OA
ATOM     31  H   UNL     1      13.111  -6.985 138.558  0.00  0.00    +0.155 HD
BRANCH  14  15
ATOM     15  C   UNL     1      14.146  -7.411 136.217  0.00  0.00    +0.037 A 
ATOM     16  C   UNL     1      13.488  -8.688 135.927  0.00  0.00    +0.013 A 
ATOM     17  C   UNL     1      14.267  -9.825 135.506  0.00  0.00    +0.005 A 
ATOM     18  C   UNL     1      15.715  -9.689 135.369  0.00  0.00    -0.033 A 
ATOM     28  C   UNL     1      16.342  -8.410 135.657  0.00  0.00    +0.005 A 
ATOM     29  C   UNL     1      15.581  -7.294 136.072  0.00  0.00    +0.013 A 
BRANCH  18  19
ATOM     19  C   UNL     1      16.628 -10.855 134.945  0.00  0.00    +0.119 C 
BRANCH  19  20
ATOM     20  N   UNL     1      17.322 -10.736 133.628  0.00  0.00    -0.302 NA
ATOM     21  C   UNL     1      17.134 -11.987 132.765  0.00  0.00    +0.066 C 
ATOM     22  C   UNL     1      17.847 -11.836 131.381  0.00  0.00    -0.064 C 
ATOM     23  N   UNL     1      19.333 -11.551 131.605  0.00  0.00    +0.379 N 
ATOM     24  C   UNL     1      20.017 -11.466 130.307  0.00  0.00    -0.096 C 
ATOM     25  H   UNL     1      19.764 -12.417 132.159  0.00  0.00    -0.082 HD
ATOM     26  C   UNL     1      19.529 -10.310 132.465  0.00  0.00    -0.064 C 
ATOM     27  C   UNL     1      18.792 -10.458 133.825  0.00  0.00    +0.066 C 
ENDBRANCH  19  20
ENDBRANCH  18  19
ENDBRANCH  14  15
ENDBRANCH  12  13
TORSDOF 6
ENDMDL
MODEL 4
REMARK VINA RESULT:      -8.3     17.979     21.101
REMARK  Name = C:\Users\Docking\Desktop\test protocol\1iep_ligandH.pdb
REMARK  8 active torsions:
REMARK  status: ('A' for Active; 'I' for Inactive)
REMARK    1  A    between atoms: _5  and  _11
REMARK    2  A    between atoms: _19  and  _21
REMARK    3  A    between atoms: _22  and  _66
REMARK    4  A    between atoms: _27  and  _30
REMARK    5  A    between atoms: _32  and  _33
REMARK    6  A    between atoms: _38  and  _43
REMARK    7  A    between atoms: _43  and  _46
REMARK    8  A    between atoms: _53  and  _55
REMARK                            x       y       z     vdW  Elec       q    Type
REMARK                         _______ _______ _______ _____ _____    ______ ____
ROOT
ATOM     10  C   UNL     1       6.638   9.889 150.501  0.00  0.00    +0.038 A 
ATOM     11  C   UNL     1       6.947   8.699 151.207  0.00  0.00    +0.047 A 
ATOM     12  C   UNL     1       6.681   7.391 150.629  0.00  0.00    +0.035 A 
ATOM     32  C   UNL     1       6.101   7.332 149.328  0.00  0.00    +0.024 A 
ATOM     33  C   UNL     1       5.780   8.532 148.597  0.00  0.00    +0.007 A 
ATOM     34  C   UNL     1       6.038   9.825 149.163  0.00  0.00    -0.029 A 
ATOM     35  C   UNL     1       5.666  11.079 148.337  0.00  0.00    +0.045 C 
ENDROOT
BRANCH  10   9
ATOM      4  C   UNL     1       5.444  13.584 153.323  0.00  0.00    +0.077 A 
ATOM      5  C   UNL     1       4.150  13.032 153.599  0.00  0.00    +0.048 A 
ATOM      6  C   UNL     1       3.827  11.798 152.989  0.00  0.00    +0.116 A 
ATOM      7  N   UNL     1       4.739  11.173 152.167  0.00  0.00    -0.223 NA
ATOM      8  C   UNL     1       5.979  11.734 151.921  0.00  0.00    +0.220 A 
ATOM      9  N   UNL     1       6.915  11.119 151.104  0.00  0.00    -0.283 N 
ATOM     36  H   UNL     1       7.815  11.568 150.941  0.00  0.00    +0.155 HD
ATOM     37  N   UNL     1       6.310  12.912 152.490  0.00  0.00    -0.214 NA
BRANCH   4   3
ATOM      1  C   UNL     1       7.189  16.230 155.616  0.00  0.00    +0.020 A 
ATOM      2  C   UNL     1       6.742  14.954 155.106  0.00  0.00    +0.013 A 
ATOM      3  C   UNL     1       5.933  14.878 153.895  0.00  0.00    +0.019 A 
ATOM     38  C   UNL     1       5.593  16.121 153.219  0.00  0.00    +0.120 A 
ATOM     39  N   UNL     1       6.036  17.335 153.735  0.00  0.00    -0.263 NA
ATOM     40  C   UNL     1       6.813  17.420 154.900  0.00  0.00    +0.111 A 
ENDBRANCH   4   3
ENDBRANCH  10   9
BRANCH  12  13
ATOM     13  N   UNL     1       6.966   6.147 151.302  0.00  0.00    -0.281 N 
ATOM     14  C   UNL     1       6.157   5.452 152.186  0.00  0.00    +0.248 C 
ATOM     30  O   UNL     1       5.144   5.905 152.699  0.00  0.00    -0.270 OA
ATOM     31  H   UNL     1       7.875   5.729 151.103  0.00  0.00    +0.155 HD
BRANCH  14  15
ATOM     15  C   UNL     1       6.534   4.056 152.565  0.00  0.00    +0.037 A 
ATOM     16  C   UNL     1       5.999   2.901 151.839  0.00  0.00    +0.013 A 
ATOM     17  C   UNL     1       6.366   1.565 152.237  0.00  0.00    +0.005 A 
ATOM     18  C   UNL     1       7.274   1.377 153.365  0.00  0.00    -0.033 A 
ATOM     28  C   UNL     1       7.794   2.541 154.064  0.00  0.00    +0.005 A 
ATOM     29  C   UNL     1       7.436   3.852 153.678  0.00  0.00    +0.013 A 
BRANCH  18  19
ATOM     19  C   UNL     1       7.703  -0.013 153.872  0.00  0.00    +0.119 C 
BRANCH  19  20
ATOM     20  N   UNL     1       9.150  -0.212 154.181  0.00  0.00    -0.302 NA
ATOM     21  C   UNL     1       9.700  -1.497 153.557  0.00  0.00    +0.066 C 
ATOM     22  C   UNL     1      11.220  -1.678 153.872  0.00  0.00    -0.064 C 
ATOM     23  N   UNL     1      11.428  -1.680 155.388  0.00  0.00    +0.379 N 
ATOM     24  C   UNL     1      12.849  -1.907 155.688  0.00  0.00    -0.096 C 
ATOM     25  H   UNL     1      10.852  -2.537 155.806  0.00  0.00    -0.082 HD
ATOM     26  C   UNL     1      10.882  -0.406 156.017  0.00  0.00    -0.064 C 
ATOM     27  C   UNL     1       9.377  -0.221 155.673  0.00  0.00    +0.066 C 
ENDBRANCH  19  20
ENDBRANCH  18  19
ENDBRANCH  14  15
ENDBRANCH  12  13
TORSDOF 6
ENDMDL
MODEL 5
REMARK VINA RESULT:      -8.2     16.305     20.439
REMARK  Name = C:\Users\Docking\Desktop\test protocol\1iep_ligandH.pdb
REMARK  8 active torsions:
REMARK  status: ('A' for Active; 'I' for Inactive)
REMARK    1  A    between atoms: _5  and  _11
REMARK    2  A    between atoms: _19  and  _21
REMARK    3  A    between atoms: _22  and  _66
REMARK    4  A    between atoms: _27  and  _30
REMARK    5  A    between atoms: _32  and  _33
REMARK    6  A    between atoms: _38  and  _43
REMARK    7  A    between atoms: _43  and  _46
REMARK    8  A    between atoms: _53  and  _55
REMARK                            x       y       z     vdW  Elec       q    Type
REMARK                         _______ _______ _______ _____ _____    ______ ____
ROOT
ATOM     10  C   UNL     1       6.502   9.623 150.110  0.00  0.00    +0.038 A 
ATOM     11  C   UNL     1       6.751   8.372 150.730  0.00  0.00    +0.047 A 
ATOM     12  C   UNL     1       6.455   7.122 150.048  0.00  0.00    +0.035 A 
ATOM     32  C   UNL     1       5.907   7.182 148.734  0.00  0.00    +0.024 A 
ATOM     33  C   UNL     1       5.646   8.445 148.089  0.00  0.00    +0.007 A 
ATOM     34  C   UNL     1       5.934   9.682 148.757  0.00  0.00    -0.029 A 
ATOM     35  C   UNL     1       5.628  11.006 148.020  0.00  0.00    +0.045 C 
ENDROOT
BRANCH  10   9
ATOM      4  C   UNL     1       5.354  13.154 153.151  0.00  0.00    +0.077 A 
ATOM      5  C   UNL     1       4.027  12.641 153.339  0.00  0.00    +0.048 A 
ATOM      6  C   UNL     1       3.678  11.470 152.630  0.00  0.00    +0.116 A 
ATOM      7  N   UNL     1       4.595  10.866 151.797  0.00  0.00    -0.223 NA
ATOM      8  C   UNL     1       5.865  11.388 151.636  0.00  0.00    +0.220 A 
ATOM      9  N   UNL     1       6.805  10.792 150.810  0.00  0.00    -0.283 N 
ATOM     36  H   UNL     1       7.729  11.213 150.713  0.00  0.00    +0.155 HD
ATOM     37  N   UNL     1       6.223  12.506 152.302  0.00  0.00    -0.214 NA
BRANCH   4   3
ATOM      1  C   UNL     1       6.035  16.883 154.118  0.00  0.00    +0.020 A 
ATOM      2  C   UNL     1       5.505  15.731 153.424  0.00  0.00    +0.013 A 
ATOM      3  C   UNL     1       5.873  14.381 153.833  0.00  0.00    +0.019 A 
ATOM     38  C   UNL     1       6.785  14.230 154.957  0.00  0.00    +0.120 A 
ATOM     39  N   UNL     1       7.281  15.358 155.604  0.00  0.00    -0.263 NA
ATOM     40  C   UNL     1       6.935  16.662 155.219  0.00  0.00    +0.111 A 
ENDBRANCH   4   3
ENDBRANCH  10   9
BRANCH  12  13
ATOM     13  N   UNL     1       6.679   5.822 150.631  0.00  0.00    -0.281 N 
ATOM     14  C   UNL     1       6.823   5.503 151.971  0.00  0.00    +0.248 C 
ATOM     30  O   UNL     1       6.994   6.322 152.862  0.00  0.00    -0.270 OA
ATOM     31  H   UNL     1       6.739   5.043 149.975  0.00  0.00    +0.155 HD
BRANCH  14  15
ATOM     15  C   UNL     1       6.786   4.065 152.379  0.00  0.00    +0.037 A 
ATOM     16  C   UNL     1       7.466   3.602 153.591  0.00  0.00    +0.013 A 
ATOM     17  C   UNL     1       7.429   2.207 153.952  0.00  0.00    +0.005 A 
ATOM     18  C   UNL     1       6.706   1.265 153.100  0.00  0.00    -0.033 A 
ATOM     28  C   UNL     1       6.036   1.753 151.907  0.00  0.00    +0.005 A 
ATOM     29  C   UNL     1       6.071   3.120 151.548  0.00  0.00    +0.013 A 
BRANCH  18  19
ATOM     19  C   UNL     1       6.632  -0.244 153.397  0.00  0.00    +0.119 C 
BRANCH  19  20
ATOM     20  N   UNL     1       7.718  -1.105 152.842  0.00  0.00    -0.302 NA
ATOM     21  C   UNL     1       7.163  -2.337 152.121  0.00  0.00    +0.066 C 
ATOM     22  C   UNL     1       8.312  -3.215 151.527  0.00  0.00    -0.064 C 
ATOM     23  N   UNL     1       9.267  -3.628 152.648  0.00  0.00    +0.379 N 
ATOM     24  C   UNL     1      10.316  -4.501 152.102  0.00  0.00    -0.096 C 
ATOM     25  H   UNL     1       8.683  -4.223 153.388  0.00  0.00    -0.082 HD
ATOM     26  C   UNL     1       9.822  -2.409 153.371  0.00  0.00    -0.064 C 
ATOM     27  C   UNL     1       8.670  -1.528 153.933  0.00  0.00    +0.066 C 
ENDBRANCH  19  20
ENDBRANCH  18  19
ENDBRANCH  14  15
ENDBRANCH  12  13
TORSDOF 6
ENDMDL
