MODEL 1
REMARK VINA RESULT:      -8.8      0.000      0.000
REMARK  Name = C:\Users\Docking\Desktop\test protocol\1iep_ligandH.pdb
REMARK  8 active torsions:
REMARK  status: ('A' for Active; 'I' for Inactive)
REMARK    1  A    between atoms: _5  and  _11
REMARK    2  A    between atoms: _19  and  _21
REMARK    3  A    between atoms: _22  and  _66
REMARK    4  A    between atoms: _27  and  _30
REMARK    5  A    between atoms: _32  and  _33
REMARK    6  A    between atoms: _38  and  _43
REMARK    7  A    between atoms: _43  and  _46
REMARK    8  A    between atoms: _53  and  _55
REMARK                            x       y       z     vdW  Elec       q    Type
REMARK                         _______ _______ _______ _____ _____    ______ ____
ROOT
ATOM     10  C   UNL     1      16.558  21.871  33.527  0.00  0.00    +0.038 A 
ATOM     11  C   UNL     1      17.159  22.329  32.326  0.00  0.00    +0.047 A 
ATOM     12  C   UNL     1      18.235  21.584  31.691  0.00  0.00    +0.035 A 
ATOM     32  C   UNL     1      18.674  20.375  32.306  0.00  0.00    +0.024 A 
ATOM     33  C   UNL     1      18.076  19.895  33.527  0.00  0.00    +0.007 A 
ATOM     34  C   UNL     1      17.015  20.627  34.159  0.00  0.00    -0.029 A 
ATOM     35  C   UNL     1      16.415  20.069  35.470  0.00  0.00    +0.045 C 
ENDROOT
BRANCH  10   9
ATOM      4  C   UNL     1      14.879  24.964  36.790  0.00  0.00    +0.077 A 
ATOM      5  C   UNL     1      16.155  25.064  37.438  0.00  0.00    +0.048 A 
ATOM      6  C   UNL     1      17.216  24.298  36.905  0.00  0.00    +0.116 A 
ATOM      7  N   UNL     1      17.005  23.495  35.805  0.00  0.00    -0.223 NA
ATOM      8  C   UNL     1      15.762  23.420  35.205  0.00  0.00    +0.220 A 
ATOM      9  N   UNL     1      15.529  22.625  34.093  0.00  0.00    -0.283 N 
ATOM     36  H   UNL     1      14.595  22.592  33.684  0.00  0.00    +0.155 HD
ATOM     37  N   UNL     1      14.732  24.141  35.696  0.00  0.00    -0.214 NA
BRANCH   4   3
ATOM      1  C   UNL     1      12.495  27.789  38.070  0.00  0.00    +0.020 A 
ATOM      2  C   UNL     1      13.700  27.110  37.651  0.00  0.00    +0.013 A 
ATOM      3  C   UNL     1      13.662  25.714  37.234  0.00  0.00    +0.019 A 
ATOM     38  C   UNL     1      12.379  25.028  37.253  0.00  0.00    +0.120 A 
ATOM     39  N   UNL     1      11.236  25.706  37.664  0.00  0.00    -0.263 NA
ATOM     40  C   UNL     1      11.260  27.049  38.068  0.00  0.00    +0.111 A 
ENDBRANCH   4   3
ENDBRANCH  10   9
BRANCH  12  13
ATOM     13  N   UNL     1      18.888  22.004  30.476  0.00  0.00    -0.281 N 
ATOM     14  C   UNL     1      20.047  22.751  30.347  0.00  0.00    +0.248 C 
ATOM     30  O   UNL     1      20.584  23.357  31.262  0.00  0.00    -0.270 OA
ATOM     31  H   UNL     1      18.441  21.715  29.606  0.00  0.00    +0.155 HD
BRANCH  14  15
ATOM     15  C   UNL     1      20.695  22.853  29.003  0.00  0.00    +0.037 A 
ATOM     16  C   UNL     1      20.143  23.717  27.957  0.00  0.00    +0.013 A 
ATOM     17  C   UNL     1      20.778  23.783  26.664  0.00  0.00    +0.005 A 
ATOM     18  C   UNL     1      21.973  22.982  26.412  0.00  0.00    -0.033 A 
ATOM     28  C   UNL     1      22.502  22.138  27.470  0.00  0.00    +0.005 A 
ATOM     29  C   UNL     1      21.882  22.070  28.738  0.00  0.00    +0.013 A 
BRANCH  18  19
ATOM     19  C   UNL     1      22.704  22.975  25.056  0.00  0.00    +0.119 C 
BRANCH  19  20
ATOM     20  N   UNL     1      21.910  23.357  23.850  0.00  0.00    -0.302 NA
ATOM     21  C   UNL     1      22.034  22.321  22.729  0.00  0.00    +0.066 C 
ATOM     22  C   UNL     1      21.180  22.726  21.483  0.00  0.00    -0.064 C 
ATOM     23  N   UNL     1      21.618  24.107  20.995  0.00  0.00    +0.379 N 
ATOM     24  C   UNL     1      20.857  24.465  19.789  0.00  0.00    -0.096 C 
ATOM     25  H   UNL     1      22.694  24.039  20.708  0.00  0.00    -0.082 HD
ATOM     26  C   UNL     1      21.501  25.143  22.104  0.00  0.00    -0.064 C 
ATOM     27  C   UNL     1      22.330  24.717  23.348  0.00  0.00    +0.066 C 
ENDBRANCH  19  20
ENDBRANCH  18  19
ENDBRANCH  14  15
ENDBRANCH  12  13
TORSDOF 6
ENDMDL
MODEL 2
REMARK VINA RESULT:      -8.3      1.814      2.701
REMARK  Name = C:\Users\Docking\Desktop\test protocol\1iep_ligandH.pdb
REMARK  8 active torsions:
REMARK  status: ('A' for Active; 'I' for Inactive)
REMARK    1  A    between atoms: _5  and  _11
REMARK    2  A    between atoms: _19  and  _21
REMARK    3  A    between atoms: _22  and  _66
REMARK    4  A    between atoms: _27  and  _30
REMARK    5  A    between atoms: _32  and  _33
REMARK    6  A    between atoms: _38  and  _43
REMARK    7  A    between atoms: _43  and  _46
REMARK    8  A    between atoms: _53  and  _55
REMARK                            x       y       z     vdW  Elec       q    Type
REMARK                         _______ _______ _______ _____ _____    ______ ____
ROOT
ATOM     10  C   UNL     1      18.763  24.574  34.522  0.00  0.00    +0.038 A 
ATOM     11  C   UNL     1      19.017  24.138  33.197  0.00  0.00    +0.047 A 
ATOM     12  C   UNL     1      20.368  23.844  32.747  0.00  0.00    +0.035 A 
ATOM     32  C   UNL     1      21.438  24.002  33.676  0.00  0.00    +0.024 A 
ATOM     33  C   UNL     1      21.198  24.445  35.027  0.00  0.00    +0.007 A 
ATOM     34  C   UNL     1      19.867  24.739  35.475  0.00  0.00    -0.029 A 
ATOM     35  C   UNL     1      19.669  25.217  36.932  0.00  0.00    +0.045 C 
ENDROOT
BRANCH  10   9
ATOM      4  C   UNL     1      14.696  23.431  36.801  0.00  0.00    +0.077 A 
ATOM      5  C   UNL     1      15.233  22.180  37.255  0.00  0.00    +0.048 A 
ATOM      6  C   UNL     1      16.557  21.866  36.875  0.00  0.00    +0.116 A 
ATOM      7  N   UNL     1      17.281  22.744  36.098  0.00  0.00    -0.223 NA
ATOM      8  C   UNL     1      16.733  23.941  35.675  0.00  0.00    +0.220 A 
ATOM      9  N   UNL     1      17.445  24.843  34.900  0.00  0.00    -0.283 N 
ATOM     36  H   UNL     1      17.002  25.712  34.603  0.00  0.00    +0.155 HD
ATOM     37  N   UNL     1      15.470  24.264  36.024  0.00  0.00    -0.214 NA
BRANCH   4   3
ATOM      1  C   UNL     1      10.921  23.516  37.823  0.00  0.00    +0.020 A 
ATOM      2  C   UNL     1      12.239  23.006  37.522  0.00  0.00    +0.013 A 
ATOM      3  C   UNL     1      13.314  23.906  37.124  0.00  0.00    +0.019 A 
ATOM     38  C   UNL     1      13.020  25.329  37.040  0.00  0.00    +0.120 A 
ATOM     39  N   UNL     1      11.741  25.791  37.334  0.00  0.00    -0.263 NA
ATOM     40  C   UNL     1      10.699  24.934  37.717  0.00  0.00    +0.111 A 
ENDBRANCH   4   3
ENDBRANCH  10   9
BRANCH  12  13
ATOM     13  N   UNL     1      20.688  23.406  31.411  0.00  0.00    -0.281 N 
ATOM     14  C   UNL     1      20.017  23.699  30.235  0.00  0.00    +0.248 C 
ATOM     30  O   UNL     1      18.909  24.211  30.181  0.00  0.00    -0.270 OA
ATOM     31  H   UNL     1      21.509  22.807  31.322  0.00  0.00    +0.155 HD
BRANCH  14  15
ATOM     15  C   UNL     1      20.664  23.360  28.931  0.00  0.00    +0.037 A 
ATOM     16  C   UNL     1      21.834  22.480  28.869  0.00  0.00    +0.013 A 
ATOM     17  C   UNL     1      22.449  22.184  27.599  0.00  0.00    +0.005 A 
ATOM     18  C   UNL     1      21.893  22.767  26.381  0.00  0.00    -0.033 A 
ATOM     28  C   UNL     1      20.729  23.633  26.471  0.00  0.00    +0.005 A 
ATOM     29  C   UNL     1      20.124  23.926  27.713  0.00  0.00    +0.013 A 
BRANCH  18  19
ATOM     19  C   UNL     1      22.498  22.522  24.985  0.00  0.00    +0.119 C 
BRANCH  19  20
ATOM     20  N   UNL     1      21.748  23.062  23.812  0.00  0.00    -0.302 NA
ATOM     21  C   UNL     1      21.793  22.108  22.614  0.00  0.00    +0.066 C 
ATOM     22  C   UNL     1      20.986  22.677  21.403  0.00  0.00    -0.064 C 
ATOM     23  N   UNL     1      21.542  24.051  21.023  0.00  0.00    +0.379 N 
ATOM     24  C   UNL     1      20.823  24.563  19.847  0.00  0.00    -0.096 C 
ATOM     25  H   UNL     1      22.610  23.914  20.733  0.00  0.00    -0.082 HD
ATOM     26  C   UNL     1      21.504  25.004  22.208  0.00  0.00    -0.064 C 
ATOM     27  C   UNL     1      22.284  24.416  23.417  0.00  0.00    +0.066 C 
ENDBRANCH  19  20
ENDBRANCH  18  19
ENDBRANCH  14  15
ENDBRANCH  12  13
TORSDOF 6
ENDMDL
MODEL 3
REMARK VINA RESULT:      -7.9      7.059     12.728
REMARK  Name = C:\Users\Docking\Desktop\test protocol\1iep_ligandH.pdb
REMARK  8 active torsions:
REMARK  status: ('A' for Active; 'I' for Inactive)
REMARK    1  A    between atoms: _5  and  _11
REMARK    2  A    between atoms: _19  and  _21
REMARK    3  A    between atoms: _22  and  _66
REMARK    4  A    between atoms: _27  and  _30
REMARK    5  A    between atoms: _32  and  _33
REMARK    6  A    between atoms: _38  and  _43
REMARK    7  A    between atoms: _43  and  _46
REMARK    8  A    between atoms: _53  and  _55
REMARK                            x       y       z     vdW  Elec       q    Type
REMARK                         _______ _______ _______ _____ _____    ______ ____
ROOT
ATOM     10  C   UNL     1      21.163  23.822  29.396  0.00  0.00    +0.038 A 
ATOM     11  C   UNL     1      22.495  24.005  29.849  0.00  0.00    +0.047 A 
ATOM     12  C   UNL     1      22.840  23.844  31.253  0.00  0.00    +0.035 A 
ATOM     32  C   UNL     1      21.805  23.494  32.168  0.00  0.00    +0.024 A 
ATOM     33  C   UNL     1      20.446  23.306  31.724  0.00  0.00    +0.007 A 
ATOM     34  C   UNL     1      20.099  23.466  30.341  0.00  0.00    -0.029 A 
ATOM     35  C   UNL     1      18.624  23.258  29.924  0.00  0.00    +0.045 C 
ENDROOT
BRANCH  10   9
ATOM      4  C   UNL     1      22.130  23.064  24.756  0.00  0.00    +0.077 A 
ATOM      5  C   UNL     1      23.299  22.292  25.065  0.00  0.00    +0.048 A 
ATOM      6  C   UNL     1      23.621  22.120  26.430  0.00  0.00    +0.116 A 
ATOM      7  N   UNL     1      22.826  22.681  27.405  0.00  0.00    -0.223 NA
ATOM      8  C   UNL     1      21.706  23.422  27.073  0.00  0.00    +0.220 A 
ATOM      9  N   UNL     1      20.887  23.989  28.037  0.00  0.00    -0.283 N 
ATOM     36  H   UNL     1      20.075  24.535  27.751  0.00  0.00    +0.155 HD
ATOM     37  N   UNL     1      21.378  23.602  25.776  0.00  0.00    -0.214 NA
BRANCH   4   3
ATOM      1  C   UNL     1      20.921  24.877  21.508  0.00  0.00    +0.020 A 
ATOM      2  C   UNL     1      21.374  24.673  22.865  0.00  0.00    +0.013 A 
ATOM      3  C   UNL     1      21.658  23.332  23.361  0.00  0.00    +0.019 A 
ATOM     38  C   UNL     1      21.472  22.211  22.452  0.00  0.00    +0.120 A 
ATOM     39  N   UNL     1      21.033  22.439  21.151  0.00  0.00    -0.263 NA
ATOM     40  C   UNL     1      20.755  23.724  20.663  0.00  0.00    +0.111 A 
ENDBRANCH   4   3
ENDBRANCH  10   9
BRANCH  12  13
ATOM     13  N   UNL     1      24.173  24.024  31.772  0.00  0.00    -0.281 N 
ATOM     14  C   UNL     1      25.288  23.233  31.551  0.00  0.00    +0.248 C 
ATOM     30  O   UNL     1      25.257  22.123  31.040  0.00  0.00    -0.270 OA
ATOM     31  H   UNL     1      24.312  24.834  32.377  0.00  0.00    +0.155 HD
BRANCH  14  15
ATOM     15  C   UNL     1      26.630  23.741  31.970  0.00  0.00    +0.037 A 
ATOM     16  C   UNL     1      27.856  23.008  31.644  0.00  0.00    +0.013 A 
ATOM     17  C   UNL     1      29.136  23.512  32.075  0.00  0.00    +0.005 A 
ATOM     18  C   UNL     1      29.196  24.758  32.836  0.00  0.00    -0.033 A 
ATOM     28  C   UNL     1      27.964  25.467  33.141  0.00  0.00    +0.005 A 
ATOM     29  C   UNL     1      26.708  24.976  32.721  0.00  0.00    +0.013 A 
BRANCH  18  19
ATOM     19  C   UNL     1      30.516  25.358  33.354  0.00  0.00    +0.119 C 
BRANCH  19  20
ATOM     20  N   UNL     1      30.429  26.318  34.496  0.00  0.00    -0.302 NA
ATOM     21  C   UNL     1      31.499  27.410  34.411  0.00  0.00    +0.066 C 
ATOM     22  C   UNL     1      31.379  28.417  35.600  0.00  0.00    -0.064 C 
ATOM     23  N   UNL     1      31.485  27.656  36.923  0.00  0.00    +0.379 N 
ATOM     24  C   UNL     1      31.431  28.608  38.042  0.00  0.00    -0.096 C 
ATOM     25  H   UNL     1      32.483  27.160  36.948  0.00  0.00    -0.082 HD
ATOM     26  C   UNL     1      30.426  26.567  37.014  0.00  0.00    -0.064 C 
ATOM     27  C   UNL     1      30.535  25.588  35.812  0.00  0.00    +0.066 C 
ENDBRANCH  19  20
ENDBRANCH  18  19
ENDBRANCH  14  15
ENDBRANCH  12  13
TORSDOF 6
ENDMDL
MODEL 4
REMARK VINA RESULT:      -7.9      4.188     12.466
REMARK  Name = C:\Users\Docking\Desktop\test protocol\1iep_ligandH.pdb
REMARK  8 active torsions:
REMARK  status: ('A' for Active; 'I' for Inactive)
REMARK    1  A    between atoms: _5  and  _11
REMARK    2  A    between atoms: _19  and  _21
REMARK    3  A    between atoms: _22  and  _66
REMARK    4  A    between atoms: _27  and  _30
REMARK    5  A    between atoms: _32  and  _33
REMARK    6  A    between atoms: _38  and  _43
REMARK    7  A    between atoms: _43  and  _46
REMARK    8  A    between atoms: _53  and  _55
REMARK                            x       y       z     vdW  Elec       q    Type
REMARK                         _______ _______ _______ _____ _____    ______ ____
ROOT
ATOM     10  C   UNL     1      20.260  23.270  30.188  0.00  0.00    +0.038 A 
ATOM     11  C   UNL     1      19.121  22.538  30.610  0.00  0.00    +0.047 A 
ATOM     12  C   UNL     1      18.976  22.102  31.990  0.00  0.00    +0.035 A 
ATOM     32  C   UNL     1      20.008  22.432  32.915  0.00  0.00    +0.024 A 
ATOM     33  C   UNL     1      21.173  23.175  32.504  0.00  0.00    +0.007 A 
ATOM     34  C   UNL     1      21.323  23.606  31.143  0.00  0.00    -0.029 A 
ATOM     35  C   UNL     1      22.596  24.394  30.756  0.00  0.00    +0.045 C 
ENDROOT
BRANCH  10   9
ATOM      4  C   UNL     1      22.096  22.873  25.772  0.00  0.00    +0.077 A 
ATOM      5  C   UNL     1      22.973  21.810  26.168  0.00  0.00    +0.048 A 
ATOM      6  C   UNL     1      22.926  21.399  27.519  0.00  0.00    +0.116 A 
ATOM      7  N   UNL     1      22.062  22.013  28.399  0.00  0.00    -0.223 NA
ATOM      8  C   UNL     1      21.230  23.037  27.985  0.00  0.00    +0.220 A 
ATOM      9  N   UNL     1      20.348  23.664  28.851  0.00  0.00    -0.283 N 
ATOM     36  H   UNL     1      19.756  24.420  28.508  0.00  0.00    +0.155 HD
ATOM     37  N   UNL     1      21.257  23.449  26.700  0.00  0.00    -0.214 NA
BRANCH   4   3
ATOM      1  C   UNL     1      22.260  25.275  22.688  0.00  0.00    +0.020 A 
ATOM      2  C   UNL     1      22.342  24.801  24.051  0.00  0.00    +0.013 A 
ATOM      3  C   UNL     1      22.027  23.416  24.378  0.00  0.00    +0.019 A 
ATOM     38  C   UNL     1      21.630  22.529  23.295  0.00  0.00    +0.120 A 
ATOM     39  N   UNL     1      21.558  23.014  21.993  0.00  0.00    -0.263 NA
ATOM     40  C   UNL     1      21.858  24.345  21.666  0.00  0.00    +0.111 A 
ENDBRANCH   4   3
ENDBRANCH  10   9
BRANCH  12  13
ATOM     13  N   UNL     1      17.846  21.348  32.475  0.00  0.00    -0.281 N 
ATOM     14  C   UNL     1      16.695  21.830  33.076  0.00  0.00    +0.248 C 
ATOM     30  O   UNL     1      16.556  22.974  33.484  0.00  0.00    -0.270 OA
ATOM     31  H   UNL     1      17.901  20.336  32.360  0.00  0.00    +0.155 HD
BRANCH  14  15
ATOM     15  C   UNL     1      15.536  20.905  33.264  0.00  0.00    +0.037 A 
ATOM     16  C   UNL     1      14.983  20.142  32.142  0.00  0.00    +0.013 A 
ATOM     17  C   UNL     1      13.854  19.270  32.348  0.00  0.00    +0.005 A 
ATOM     18  C   UNL     1      13.272  19.154  33.683  0.00  0.00    -0.033 A 
ATOM     28  C   UNL     1      13.844  19.918  34.779  0.00  0.00    +0.005 A 
ATOM     29  C   UNL     1      14.950  20.775  34.581  0.00  0.00    +0.013 A 
BRANCH  18  19
ATOM     19  C   UNL     1      12.053  18.264  33.990  0.00  0.00    +0.119 C 
BRANCH  19  20
ATOM     20  N   UNL     1      11.540  17.402  32.883  0.00  0.00    -0.302 NA
ATOM     21  C   UNL     1      10.141  17.825  32.428  0.00  0.00    +0.066 C 
ATOM     22  C   UNL     1       9.628  16.928  31.255  0.00  0.00    -0.064 C 
ATOM     23  N   UNL     1       9.634  15.463  31.696  0.00  0.00    +0.379 N 
ATOM     24  C   UNL     1       9.098  14.623  30.616  0.00  0.00    -0.096 C 
ATOM     25  H   UNL     1       8.947  15.371  32.570  0.00  0.00    -0.082 HD
ATOM     26  C   UNL     1      11.022  15.035  32.153  0.00  0.00    -0.064 C 
ATOM     27  C   UNL     1      11.534  15.952  33.299  0.00  0.00    +0.066 C 
ENDBRANCH  19  20
ENDBRANCH  18  19
ENDBRANCH  14  15
ENDBRANCH  12  13
TORSDOF 6
ENDMDL
MODEL 5
REMARK VINA RESULT:      -7.9      3.316     13.226
REMARK  Name = C:\Users\Docking\Desktop\test protocol\1iep_ligandH.pdb
REMARK  8 active torsions:
REMARK  status: ('A' for Active; 'I' for Inactive)
REMARK    1  A    between atoms: _5  and  _11
REMARK    2  A    between atoms: _19  and  _21
REMARK    3  A    between atoms: _22  and  _66
REMARK    4  A    between atoms: _27  and  _30
REMARK    5  A    between atoms: _32  and  _33
REMARK    6  A    between atoms: _38  and  _43
REMARK    7  A    between atoms: _43  and  _46
REMARK    8  A    between atoms: _53  and  _55
REMARK                            x       y       z     vdW  Elec       q    Type
REMARK                         _______ _______ _______ _____ _____    ______ ____
ROOT
ATOM     10  C   UNL     1      20.081  23.657  29.991  0.00  0.00    +0.038 A 
ATOM     11  C   UNL     1      18.828  23.113  30.373  0.00  0.00    +0.047 A 
ATOM     12  C   UNL     1      18.570  22.710  31.747  0.00  0.00    +0.035 A 
ATOM     32  C   UNL     1      19.609  22.879  32.707  0.00  0.00    +0.024 A 
ATOM     33  C   UNL     1      20.889  23.430  32.336  0.00  0.00    +0.007 A 
ATOM     34  C   UNL     1      21.151  23.826  30.982  0.00  0.00    -0.029 A 
ATOM     35  C   UNL     1      22.543  24.405  30.640  0.00  0.00    +0.045 C 
ENDROOT
BRANCH  10   9
ATOM      4  C   UNL     1      21.907  22.913  25.615  0.00  0.00    +0.077 A 
ATOM      5  C   UNL     1      22.551  21.699  26.026  0.00  0.00    +0.048 A 
ATOM      6  C   UNL     1      22.394  21.305  27.374  0.00  0.00    +0.116 A 
ATOM      7  N   UNL     1      21.646  22.075  28.237  0.00  0.00    -0.223 NA
ATOM      8  C   UNL     1      21.039  23.241  27.809  0.00  0.00    +0.220 A 
ATOM      9  N   UNL     1      20.275  24.027  28.658  0.00  0.00    -0.283 N 
ATOM     36  H   UNL     1      19.849  24.884  28.306  0.00  0.00    +0.155 HD
ATOM     37  N   UNL     1      21.175  23.640  26.527  0.00  0.00    -0.214 NA
BRANCH   4   3
ATOM      1  C   UNL     1      22.398  25.317  22.569  0.00  0.00    +0.020 A 
ATOM      2  C   UNL     1      22.345  24.839  23.931  0.00  0.00    +0.013 A 
ATOM      3  C   UNL     1      21.977  23.459  24.223  0.00  0.00    +0.019 A 
ATOM     38  C   UNL     1      21.667  22.581  23.105  0.00  0.00    +0.120 A 
ATOM     39  N   UNL     1      21.725  23.070  21.803  0.00  0.00    -0.263 NA
ATOM     40  C   UNL     1      22.076  24.396  21.510  0.00  0.00    +0.111 A 
ENDBRANCH   4   3
ENDBRANCH  10   9
BRANCH  12  13
ATOM     13  N   UNL     1      17.320  22.144  32.191  0.00  0.00    -0.281 N 
ATOM     14  C   UNL     1      16.769  20.921  31.846  0.00  0.00    +0.248 C 
ATOM     30  O   UNL     1      17.168  20.216  30.931  0.00  0.00    -0.270 OA
ATOM     31  H   UNL     1      16.776  22.714  32.839  0.00  0.00    +0.155 HD
BRANCH  14  15
ATOM     15  C   UNL     1      15.595  20.414  32.621  0.00  0.00    +0.037 A 
ATOM     16  C   UNL     1      14.595  19.541  32.000  0.00  0.00    +0.013 A 
ATOM     17  C   UNL     1      13.464  19.080  32.765  0.00  0.00    +0.005 A 
ATOM     18  C   UNL     1      13.327  19.490  34.160  0.00  0.00    -0.033 A 
ATOM     28  C   UNL     1      14.337  20.352  34.752  0.00  0.00    +0.005 A 
ATOM     29  C   UNL     1      15.447  20.807  34.006  0.00  0.00    +0.013 A 
BRANCH  18  19
ATOM     19  C   UNL     1      12.142  19.063  35.045  0.00  0.00    +0.119 C 
BRANCH  19  20
ATOM     20  N   UNL     1      12.119  19.570  36.450  0.00  0.00    -0.302 NA
ATOM     21  C   UNL     1      11.854  18.451  37.461  0.00  0.00    +0.066 C 
ATOM     22  C   UNL     1      11.856  18.995  38.926  0.00  0.00    -0.064 C 
ATOM     23  N   UNL     1      10.809  20.103  39.058  0.00  0.00    +0.379 N 
ATOM     24  C   UNL     1      10.769  20.577  40.449  0.00  0.00    -0.096 C 
ATOM     25  H   UNL     1       9.815  19.658  38.823  0.00  0.00    -0.082 HD
ATOM     26  C   UNL     1      11.064  21.219  38.054  0.00  0.00    -0.064 C 
ATOM     27  C   UNL     1      11.089  20.662  36.603  0.00  0.00    +0.066 C 
ENDBRANCH  19  20
ENDBRANCH  18  19
ENDBRANCH  14  15
ENDBRANCH  12  13
TORSDOF 6
ENDMDL
