MODEL 1
REMARK VINA RESULT:     -11.4      0.000      0.000
REMARK  Name = C:\Users\Docking\Desktop\test protocol\1iep_ligandH.pdb
REMARK  8 active torsions:
REMARK  status: ('A' for Active; 'I' for Inactive)
REMARK    1  A    between atoms: _5  and  _11
REMARK    2  A    between atoms: _19  and  _21
REMARK    3  A    between atoms: _22  and  _66
REMARK    4  A    between atoms: _27  and  _30
REMARK    5  A    between atoms: _32  and  _33
REMARK    6  A    between atoms: _38  and  _43
REMARK    7  A    between atoms: _43  and  _46
REMARK    8  A    between atoms: _53  and  _55
REMARK                            x       y       z     vdW  Elec       q    Type
REMARK                         _______ _______ _______ _____ _____    ______ ____
ROOT
ATOM     10  C   UNL     1      35.382  37.469  22.484  0.00  0.00    +0.038 A 
ATOM     11  C   UNL     1      35.508  36.614  23.609  0.00  0.00    +0.047 A 
ATOM     12  C   UNL     1      36.785  36.441  24.283  0.00  0.00    +0.035 A 
ATOM     32  C   UNL     1      37.914  37.156  23.787  0.00  0.00    +0.024 A 
ATOM     33  C   UNL     1      37.804  38.028  22.644  0.00  0.00    +0.007 A 
ATOM     34  C   UNL     1      36.548  38.201  21.973  0.00  0.00    -0.029 A 
ATOM     35  C   UNL     1      36.490  39.144  20.749  0.00  0.00    +0.045 C 
ENDROOT
BRANCH  10   9
ATOM      4  C   UNL     1      30.944  39.284  22.275  0.00  0.00    +0.077 A 
ATOM      5  C   UNL     1      31.121  40.015  23.497  0.00  0.00    +0.048 A 
ATOM      6  C   UNL     1      32.367  39.891  24.152  0.00  0.00    +0.116 A 
ATOM      7  N   UNL     1      33.355  39.093  23.616  0.00  0.00    -0.223 NA
ATOM      8  C   UNL     1      33.150  38.400  22.437  0.00  0.00    +0.220 A 
ATOM      9  N   UNL     1      34.132  37.599  21.875  0.00  0.00    -0.283 N 
ATOM     36  H   UNL     1      33.939  37.098  21.008  0.00  0.00    +0.155 HD
ATOM     37  N   UNL     1      31.969  38.501  21.793  0.00  0.00    -0.214 NA
BRANCH   4   3
ATOM      1  C   UNL     1      28.437  39.343  19.274  0.00  0.00    +0.020 A 
ATOM      2  C   UNL     1      29.680  39.313  20.008  0.00  0.00    +0.013 A 
ATOM      3  C   UNL     1      29.685  39.315  21.465  0.00  0.00    +0.019 A 
ATOM     38  C   UNL     1      28.404  39.347  22.155  0.00  0.00    +0.120 A 
ATOM     39  N   UNL     1      27.222  39.377  21.421  0.00  0.00    -0.263 NA
ATOM     40  C   UNL     1      27.205  39.377  20.018  0.00  0.00    +0.111 A 
ENDBRANCH   4   3
ENDBRANCH  10   9
BRANCH  12  13
ATOM     13  N   UNL     1      36.975  35.580  25.425  0.00  0.00    -0.281 N 
ATOM     14  C   UNL     1      36.013  34.874  26.128  0.00  0.00    +0.248 C 
ATOM     30  O   UNL     1      34.809  35.044  26.012  0.00  0.00    -0.270 OA
ATOM     31  H   UNL     1      37.935  35.480  25.754  0.00  0.00    +0.155 HD
BRANCH  14  15
ATOM     15  C   UNL     1      36.453  33.838  27.112  0.00  0.00    +0.037 A 
ATOM     16  C   UNL     1      37.202  34.205  28.317  0.00  0.00    +0.013 A 
ATOM     17  C   UNL     1      37.629  33.185  29.241  0.00  0.00    +0.005 A 
ATOM     18  C   UNL     1      37.307  31.787  28.964  0.00  0.00    -0.033 A 
ATOM     28  C   UNL     1      36.560  31.452  27.764  0.00  0.00    +0.005 A 
ATOM     29  C   UNL     1      36.140  32.449  26.855  0.00  0.00    +0.013 A 
BRANCH  18  19
ATOM     19  C   UNL     1      37.742  30.630  29.884  0.00  0.00    +0.119 C 
BRANCH  19  20
ATOM     20  N   UNL     1      38.836  30.908  30.862  0.00  0.00    -0.302 NA
ATOM     21  C   UNL     1      39.616  29.642  31.225  0.00  0.00    +0.066 C 
ATOM     22  C   UNL     1      40.771  29.955  32.232  0.00  0.00    -0.064 C 
ATOM     23  N   UNL     1      40.188  30.610  33.485  0.00  0.00    +0.379 N 
ATOM     24  C   UNL     1      41.264  30.853  34.457  0.00  0.00    -0.096 C 
ATOM     25  H   UNL     1      39.474  29.888  33.943  0.00  0.00    -0.082 HD
ATOM     26  C   UNL     1      39.408  31.869  33.132  0.00  0.00    -0.064 C 
ATOM     27  C   UNL     1      38.282  31.552  32.109  0.00  0.00    +0.066 C 
ENDBRANCH  19  20
ENDBRANCH  18  19
ENDBRANCH  14  15
ENDBRANCH  12  13
TORSDOF 6
ENDMDL
MODEL 2
REMARK VINA RESULT:     -11.3      3.665     11.944
REMARK  Name = C:\Users\Docking\Desktop\test protocol\1iep_ligandH.pdb
REMARK  8 active torsions:
REMARK  status: ('A' for Active; 'I' for Inactive)
REMARK    1  A    between atoms: _5  and  _11
REMARK    2  A    between atoms: _19  and  _21
REMARK    3  A    between atoms: _22  and  _66
REMARK    4  A    between atoms: _27  and  _30
REMARK    5  A    between atoms: _32  and  _33
REMARK    6  A    between atoms: _38  and  _43
REMARK    7  A    between atoms: _43  and  _46
REMARK    8  A    between atoms: _53  and  _55
REMARK                            x       y       z     vdW  Elec       q    Type
REMARK                         _______ _______ _______ _____ _____    ______ ____
ROOT
ATOM     10  C   UNL     1      35.583  36.378  24.652  0.00  0.00    +0.038 A 
ATOM     11  C   UNL     1      34.259  36.859  24.813  0.00  0.00    +0.047 A 
ATOM     12  C   UNL     1      33.499  37.364  23.680  0.00  0.00    +0.035 A 
ATOM     32  C   UNL     1      34.119  37.361  22.396  0.00  0.00    +0.024 A 
ATOM     33  C   UNL     1      35.465  36.877  22.215  0.00  0.00    +0.007 A 
ATOM     34  C   UNL     1      36.220  36.380  23.330  0.00  0.00    -0.029 A 
ATOM     35  C   UNL     1      37.661  35.879  23.078  0.00  0.00    +0.045 C 
ENDROOT
BRANCH  10   9
ATOM      4  C   UNL     1      36.669  32.921  27.800  0.00  0.00    +0.077 A 
ATOM      5  C   UNL     1      35.780  31.987  27.171  0.00  0.00    +0.048 A 
ATOM      6  C   UNL     1      35.056  32.438  26.045  0.00  0.00    +0.116 A 
ATOM      7  N   UNL     1      35.218  33.729  25.590  0.00  0.00    -0.223 NA
ATOM      8  C   UNL     1      36.082  34.604  26.220  0.00  0.00    +0.220 A 
ATOM      9  N   UNL     1      36.266  35.904  25.775  0.00  0.00    -0.283 N 
ATOM     36  H   UNL     1      36.908  36.521  26.272  0.00  0.00    +0.155 HD
ATOM     37  N   UNL     1      36.784  34.198  27.299  0.00  0.00    -0.214 NA
BRANCH   4   3
ATOM      1  C   UNL     1      38.654  30.964  30.545  0.00  0.00    +0.020 A 
ATOM      2  C   UNL     1      37.842  31.227  29.379  0.00  0.00    +0.013 A 
ATOM      3  C   UNL     1      37.505  32.593  28.998  0.00  0.00    +0.019 A 
ATOM     38  C   UNL     1      38.009  33.679  29.825  0.00  0.00    +0.120 A 
ATOM     39  N   UNL     1      38.787  33.395  30.943  0.00  0.00    -0.263 NA
ATOM     40  C   UNL     1      39.117  32.085  31.320  0.00  0.00    +0.111 A 
ENDBRANCH   4   3
ENDBRANCH  10   9
BRANCH  12  13
ATOM     13  N   UNL     1      32.154  37.872  23.783  0.00  0.00    -0.281 N 
ATOM     14  C   UNL     1      31.060  37.272  24.385  0.00  0.00    +0.248 C 
ATOM     30  O   UNL     1      31.023  36.104  24.742  0.00  0.00    -0.270 OA
ATOM     31  H   UNL     1      31.988  38.786  23.361  0.00  0.00    +0.155 HD
BRANCH  14  15
ATOM     15  C   UNL     1      29.825  38.082  24.610  0.00  0.00    +0.037 A 
ATOM     16  C   UNL     1      29.749  39.067  25.693  0.00  0.00    +0.013 A 
ATOM     17  C   UNL     1      28.539  39.823  25.899  0.00  0.00    +0.005 A 
ATOM     18  C   UNL     1      27.395  39.598  25.018  0.00  0.00    -0.033 A 
ATOM     28  C   UNL     1      27.500  38.620  23.949  0.00  0.00    +0.005 A 
ATOM     29  C   UNL     1      28.684  37.876  23.744  0.00  0.00    +0.013 A 
BRANCH  18  19
ATOM     19  C   UNL     1      26.058  40.345  25.178  0.00  0.00    +0.119 C 
BRANCH  19  20
ATOM     20  N   UNL     1      25.221  40.002  26.366  0.00  0.00    -0.302 NA
ATOM     21  C   UNL     1      25.157  41.152  27.375  0.00  0.00    +0.066 C 
ATOM     22  C   UNL     1      24.259  40.785  28.601  0.00  0.00    -0.064 C 
ATOM     23  N   UNL     1      24.798  39.515  29.261  0.00  0.00    +0.379 N 
ATOM     24  C   UNL     1      23.990  39.199  30.449  0.00  0.00    -0.096 C 
ATOM     25  H   UNL     1      25.837  39.727  29.605  0.00  0.00    -0.082 HD
ATOM     26  C   UNL     1      24.867  38.366  28.264  0.00  0.00    -0.064 C 
ATOM     27  C   UNL     1      25.737  38.753  27.036  0.00  0.00    +0.066 C 
ENDBRANCH  19  20
ENDBRANCH  18  19
ENDBRANCH  14  15
ENDBRANCH  12  13
TORSDOF 6
ENDMDL
MODEL 3
REMARK VINA RESULT:     -11.0      2.917     12.650
REMARK  Name = C:\Users\Docking\Desktop\test protocol\1iep_ligandH.pdb
REMARK  8 active torsions:
REMARK  status: ('A' for Active; 'I' for Inactive)
REMARK    1  A    between atoms: _5  and  _11
REMARK    2  A    between atoms: _19  and  _21
REMARK    3  A    between atoms: _22  and  _66
REMARK    4  A    between atoms: _27  and  _30
REMARK    5  A    between atoms: _32  and  _33
REMARK    6  A    between atoms: _38  and  _43
REMARK    7  A    between atoms: _43  and  _46
REMARK    8  A    between atoms: _53  and  _55
REMARK                            x       y       z     vdW  Elec       q    Type
REMARK                         _______ _______ _______ _____ _____    ______ ____
ROOT
ATOM     10  C   UNL     1      35.977  36.025  24.639  0.00  0.00    +0.038 A 
ATOM     11  C   UNL     1      34.582  36.277  24.615  0.00  0.00    +0.047 A 
ATOM     12  C   UNL     1      33.905  36.642  23.380  0.00  0.00    +0.035 A 
ATOM     32  C   UNL     1      34.679  36.738  22.188  0.00  0.00    +0.024 A 
ATOM     33  C   UNL     1      36.099  36.486  22.195  0.00  0.00    +0.007 A 
ATOM     34  C   UNL     1      36.773  36.128  23.410  0.00  0.00    -0.029 A 
ATOM     35  C   UNL     1      38.298  35.875  23.360  0.00  0.00    +0.045 C 
ENDROOT
BRANCH  10   9
ATOM      4  C   UNL     1      36.877  32.908  28.177  0.00  0.00    +0.077 A 
ATOM      5  C   UNL     1      36.064  31.894  27.570  0.00  0.00    +0.048 A 
ATOM      6  C   UNL     1      35.426  32.217  26.352  0.00  0.00    +0.116 A 
ATOM      7  N   UNL     1      35.595  33.464  25.791  0.00  0.00    -0.223 NA
ATOM      8  C   UNL     1      36.385  34.420  26.403  0.00  0.00    +0.220 A 
ATOM      9  N   UNL     1      36.576  35.678  25.853  0.00  0.00    -0.283 N 
ATOM     36  H   UNL     1      37.160  36.357  26.339  0.00  0.00    +0.155 HD
ATOM     37  N   UNL     1      37.004  34.136  27.568  0.00  0.00    -0.214 NA
BRANCH   4   3
ATOM      1  C   UNL     1      38.548  31.280  31.317  0.00  0.00    +0.020 A 
ATOM      2  C   UNL     1      37.824  31.409  30.073  0.00  0.00    +0.013 A 
ATOM      3  C   UNL     1      37.619  32.717  29.463  0.00  0.00    +0.019 A 
ATOM     38  C   UNL     1      38.163  33.883  30.143  0.00  0.00    +0.120 A 
ATOM     39  N   UNL     1      38.855  33.728  31.340  0.00  0.00    -0.263 NA
ATOM     40  C   UNL     1      39.057  32.475  31.937  0.00  0.00    +0.111 A 
ENDBRANCH   4   3
ENDBRANCH  10   9
BRANCH  12  13
ATOM     13  N   UNL     1      32.492  36.918  23.296  0.00  0.00    -0.281 N 
ATOM     14  C   UNL     1      31.672  37.470  24.267  0.00  0.00    +0.248 C 
ATOM     30  O   UNL     1      31.990  37.615  25.438  0.00  0.00    -0.270 OA
ATOM     31  H   UNL     1      32.041  36.676  22.413  0.00  0.00    +0.155 HD
BRANCH  14  15
ATOM     15  C   UNL     1      30.297  37.913  23.884  0.00  0.00    +0.037 A 
ATOM     16  C   UNL     1      30.061  38.694  22.667  0.00  0.00    +0.013 A 
ATOM     17  C   UNL     1      28.726  39.122  22.331  0.00  0.00    +0.005 A 
ATOM     18  C   UNL     1      27.617  38.768  23.213  0.00  0.00    -0.033 A 
ATOM     28  C   UNL     1      27.879  37.988  24.411  0.00  0.00    +0.005 A 
ATOM     29  C   UNL     1      29.185  37.567  24.744  0.00  0.00    +0.013 A 
BRANCH  18  19
ATOM     19  C   UNL     1      26.163  39.201  22.943  0.00  0.00    +0.119 C 
BRANCH  19  20
ATOM     20  N   UNL     1      25.352  39.642  24.117  0.00  0.00    -0.302 NA
ATOM     21  C   UNL     1      23.865  39.321  23.941  0.00  0.00    +0.066 C 
ATOM     22  C   UNL     1      23.035  39.769  25.188  0.00  0.00    -0.064 C 
ATOM     23  N   UNL     1      23.241  41.266  25.423  0.00  0.00    +0.379 N 
ATOM     24  C   UNL     1      22.417  41.703  26.560  0.00  0.00    -0.096 C 
ATOM     25  H   UNL     1      22.879  41.804  24.516  0.00  0.00    -0.082 HD
ATOM     26  C   UNL     1      24.718  41.595  25.596  0.00  0.00    -0.064 C 
ATOM     27  C   UNL     1      25.538  41.119  24.365  0.00  0.00    +0.066 C 
ENDBRANCH  19  20
ENDBRANCH  18  19
ENDBRANCH  14  15
ENDBRANCH  12  13
TORSDOF 6
ENDMDL
MODEL 4
REMARK VINA RESULT:     -10.9      2.876      3.879
REMARK  Name = C:\Users\Docking\Desktop\test protocol\1iep_ligandH.pdb
REMARK  8 active torsions:
REMARK  status: ('A' for Active; 'I' for Inactive)
REMARK    1  A    between atoms: _5  and  _11
REMARK    2  A    between atoms: _19  and  _21
REMARK    3  A    between atoms: _22  and  _66
REMARK    4  A    between atoms: _27  and  _30
REMARK    5  A    between atoms: _32  and  _33
REMARK    6  A    between atoms: _38  and  _43
REMARK    7  A    between atoms: _43  and  _46
REMARK    8  A    between atoms: _53  and  _55
REMARK                            x       y       z     vdW  Elec       q    Type
REMARK                         _______ _______ _______ _____ _____    ______ ____
ROOT
ATOM     10  C   UNL     1      32.911  37.501  24.433  0.00  0.00    +0.038 A 
ATOM     11  C   UNL     1      33.531  36.541  25.273  0.00  0.00    +0.047 A 
ATOM     12  C   UNL     1      34.381  35.496  24.722  0.00  0.00    +0.035 A 
ATOM     32  C   UNL     1      34.580  35.461  23.311  0.00  0.00    +0.024 A 
ATOM     33  C   UNL     1      33.957  36.429  22.442  0.00  0.00    +0.007 A 
ATOM     34  C   UNL     1      33.115  37.459  22.980  0.00  0.00    -0.029 A 
ATOM     35  C   UNL     1      32.467  38.466  22.001  0.00  0.00    +0.045 C 
ENDROOT
BRANCH  10   9
ATOM      4  C   UNL     1      28.642  39.186  25.838  0.00  0.00    +0.077 A 
ATOM      5  C   UNL     1      27.956  38.025  25.347  0.00  0.00    +0.048 A 
ATOM      6  C   UNL     1      28.738  37.021  24.733  0.00  0.00    +0.116 A 
ATOM      7  N   UNL     1      30.103  37.176  24.624  0.00  0.00    -0.223 NA
ATOM      8  C   UNL     1      30.733  38.308  25.107  0.00  0.00    +0.220 A 
ATOM      9  N   UNL     1      32.105  38.482  25.015  0.00  0.00    -0.283 N 
ATOM     36  H   UNL     1      32.531  39.335  25.377  0.00  0.00    +0.155 HD
ATOM     37  N   UNL     1      30.009  39.283  25.696  0.00  0.00    -0.214 NA
BRANCH   4   3
ATOM      1  C   UNL     1      26.014  41.356  27.758  0.00  0.00    +0.020 A 
ATOM      2  C   UNL     1      26.633  40.219  27.116  0.00  0.00    +0.013 A 
ATOM      3  C   UNL     1      27.955  40.331  26.515  0.00  0.00    +0.019 A 
ATOM     38  C   UNL     1      28.631  41.619  26.580  0.00  0.00    +0.120 A 
ATOM     39  N   UNL     1      28.009  42.697  27.203  0.00  0.00    -0.263 NA
ATOM     40  C   UNL     1      26.736  42.600  27.784  0.00  0.00    +0.111 A 
ENDBRANCH   4   3
ENDBRANCH  10   9
BRANCH  12  13
ATOM     13  N   UNL     1      35.030  34.489  25.524  0.00  0.00    -0.281 N 
ATOM     14  C   UNL     1      36.202  34.606  26.253  0.00  0.00    +0.248 C 
ATOM     30  O   UNL     1      36.988  35.537  26.153  0.00  0.00    -0.270 OA
ATOM     31  H   UNL     1      34.570  33.580  25.559  0.00  0.00    +0.155 HD
BRANCH  14  15
ATOM     15  C   UNL     1      36.561  33.527  27.223  0.00  0.00    +0.037 A 
ATOM     16  C   UNL     1      36.205  32.129  26.969  0.00  0.00    +0.013 A 
ATOM     17  C   UNL     1      36.548  31.109  27.929  0.00  0.00    +0.005 A 
ATOM     18  C   UNL     1      37.252  31.485  29.152  0.00  0.00    -0.033 A 
ATOM     28  C   UNL     1      37.597  32.879  29.376  0.00  0.00    +0.005 A 
ATOM     29  C   UNL     1      37.262  33.881  28.438  0.00  0.00    +0.013 A 
BRANCH  18  19
ATOM     19  C   UNL     1      37.638  30.467  30.241  0.00  0.00    +0.119 C 
BRANCH  19  20
ATOM     20  N   UNL     1      38.805  30.805  31.110  0.00  0.00    -0.302 NA
ATOM     21  C   UNL     1      39.448  29.556  31.720  0.00  0.00    +0.066 C 
ATOM     22  C   UNL     1      40.681  29.926  32.607  0.00  0.00    -0.064 C 
ATOM     23  N   UNL     1      40.243  30.900  33.703  0.00  0.00    +0.379 N 
ATOM     24  C   UNL     1      41.388  31.205  34.574  0.00  0.00    -0.096 C 
ATOM     25  H   UNL     1      39.473  30.387  34.323  0.00  0.00    -0.082 HD
ATOM     26  C   UNL     1      39.601  32.144  33.105  0.00  0.00    -0.064 C 
ATOM     27  C   UNL     1      38.395  31.763  32.201  0.00  0.00    +0.066 C 
ENDBRANCH  19  20
ENDBRANCH  18  19
ENDBRANCH  14  15
ENDBRANCH  12  13
TORSDOF 6
ENDMDL
MODEL 5
REMARK VINA RESULT:     -10.6      4.075      5.588
REMARK  Name = C:\Users\Docking\Desktop\test protocol\1iep_ligandH.pdb
REMARK  8 active torsions:
REMARK  status: ('A' for Active; 'I' for Inactive)
REMARK    1  A    between atoms: _5  and  _11
REMARK    2  A    between atoms: _19  and  _21
REMARK    3  A    between atoms: _22  and  _66
REMARK    4  A    between atoms: _27  and  _30
REMARK    5  A    between atoms: _32  and  _33
REMARK    6  A    between atoms: _38  and  _43
REMARK    7  A    between atoms: _43  and  _46
REMARK    8  A    between atoms: _53  and  _55
REMARK                            x       y       z     vdW  Elec       q    Type
REMARK                         _______ _______ _______ _____ _____    ______ ____
ROOT
ATOM     10  C   UNL     1      29.788  37.805  24.383  0.00  0.00    +0.038 A 
ATOM     11  C   UNL     1      30.769  36.919  24.896  0.00  0.00    +0.047 A 
ATOM     12  C   UNL     1      32.000  36.655  24.167  0.00  0.00    +0.035 A 
ATOM     32  C   UNL     1      32.200  37.313  22.919  0.00  0.00    +0.024 A 
ATOM     33  C   UNL     1      31.213  38.216  22.381  0.00  0.00    +0.007 A 
ATOM     34  C   UNL     1      29.996  38.478  23.095  0.00  0.00    -0.029 A 
ATOM     35  C   UNL     1      28.969  39.450  22.468  0.00  0.00    +0.045 C 
ENDROOT
BRANCH  10   9
ATOM      4  C   UNL     1      27.214  40.276  27.593  0.00  0.00    +0.077 A 
ATOM      5  C   UNL     1      28.287  41.197  27.832  0.00  0.00    +0.048 A 
ATOM      6  C   UNL     1      29.487  40.996  27.114  0.00  0.00    +0.116 A 
ATOM      7  N   UNL     1      29.595  39.949  26.225  0.00  0.00    -0.223 NA
ATOM      8  C   UNL     1      28.541  39.077  26.019  0.00  0.00    +0.220 A 
ATOM      9  N   UNL     1      28.625  38.022  25.124  0.00  0.00    -0.283 N 
ATOM     36  H   UNL     1      27.828  37.396  25.006  0.00  0.00    +0.155 HD
ATOM     37  N   UNL     1      27.385  39.247  26.694  0.00  0.00    -0.214 NA
BRANCH   4   3
ATOM      1  C   UNL     1      24.243  39.686  30.068  0.00  0.00    +0.020 A 
ATOM      2  C   UNL     1      25.543  39.568  29.449  0.00  0.00    +0.013 A 
ATOM      3  C   UNL     1      25.883  40.358  28.272  0.00  0.00    +0.019 A 
ATOM     38  C   UNL     1      24.876  41.266  27.743  0.00  0.00    +0.120 A 
ATOM     39  N   UNL     1      23.632  41.357  28.359  0.00  0.00    -0.263 NA
ATOM     40  C   UNL     1      23.293  40.600  29.491  0.00  0.00    +0.111 A 
ENDBRANCH   4   3
ENDBRANCH  10   9
BRANCH  12  13
ATOM     13  N   UNL     1      33.029  35.759  24.635  0.00  0.00    -0.281 N 
ATOM     14  C   UNL     1      34.124  36.060  25.428  0.00  0.00    +0.248 C 
ATOM     30  O   UNL     1      34.504  37.194  25.681  0.00  0.00    -0.270 OA
ATOM     31  H   UNL     1      32.939  34.785  24.346  0.00  0.00    +0.155 HD
BRANCH  14  15
ATOM     15  C   UNL     1      34.921  34.940  26.013  0.00  0.00    +0.037 A 
ATOM     16  C   UNL     1      34.659  33.546  25.643  0.00  0.00    +0.013 A 
ATOM     17  C   UNL     1      35.432  32.483  26.235  0.00  0.00    +0.005 A 
ATOM     18  C   UNL     1      36.476  32.810  27.204  0.00  0.00    -0.033 A 
ATOM     28  C   UNL     1      36.718  34.201  27.549  0.00  0.00    +0.005 A 
ATOM     29  C   UNL     1      35.962  35.246  26.971  0.00  0.00    +0.013 A 
BRANCH  18  19
ATOM     19  C   UNL     1      37.334  31.739  27.902  0.00  0.00    +0.119 C 
BRANCH  19  20
ATOM     20  N   UNL     1      37.617  31.929  29.356  0.00  0.00    -0.302 NA
ATOM     21  C   UNL     1      38.810  32.860  29.592  0.00  0.00    +0.066 C 
ATOM     22  C   UNL     1      39.078  33.066  31.118  0.00  0.00    -0.064 C 
ATOM     23  N   UNL     1      39.311  31.707  31.780  0.00  0.00    +0.379 N 
ATOM     24  C   UNL     1      39.620  31.902  33.204  0.00  0.00    -0.096 C 
ATOM     25  H   UNL     1      40.205  31.246  31.300  0.00  0.00    -0.082 HD
ATOM     26  C   UNL     1      38.131  30.774  31.548  0.00  0.00    -0.064 C 
ATOM     27  C   UNL     1      37.855  30.600  30.028  0.00  0.00    +0.066 C 
ENDBRANCH  19  20
ENDBRANCH  18  19
ENDBRANCH  14  15
ENDBRANCH  12  13
TORSDOF 6
ENDMDL
