MODEL 1
REMARK VINA RESULT:      -8.1      0.000      0.000
REMARK  Name = C:\Users\Docking\Desktop\test protocol\1iep_ligandH.pdb
REMARK  8 active torsions:
REMARK  status: ('A' for Active; 'I' for Inactive)
REMARK    1  A    between atoms: _5  and  _11
REMARK    2  A    between atoms: _19  and  _21
REMARK    3  A    between atoms: _22  and  _66
REMARK    4  A    between atoms: _27  and  _30
REMARK    5  A    between atoms: _32  and  _33
REMARK    6  A    between atoms: _38  and  _43
REMARK    7  A    between atoms: _43  and  _46
REMARK    8  A    between atoms: _53  and  _55
REMARK                            x       y       z     vdW  Elec       q    Type
REMARK                         _______ _______ _______ _____ _____    ______ ____
ROOT
ATOM     10  C   UNL     1       2.627  -2.796  13.362  0.00  0.00    +0.038 A 
ATOM     11  C   UNL     1       3.011  -2.555  14.706  0.00  0.00    +0.047 A 
ATOM     12  C   UNL     1       2.879  -3.586  15.723  0.00  0.00    +0.035 A 
ATOM     32  C   UNL     1       2.353  -4.853  15.337  0.00  0.00    +0.024 A 
ATOM     33  C   UNL     1       1.957  -5.116  13.975  0.00  0.00    +0.007 A 
ATOM     34  C   UNL     1       2.083  -4.102  12.968  0.00  0.00    -0.029 A 
ATOM     35  C   UNL     1       1.636  -4.437  11.526  0.00  0.00    +0.045 C 
ENDROOT
BRANCH  10   9
ATOM      4  C   UNL     1       1.146   1.248  11.244  0.00  0.00    +0.077 A 
ATOM      5  C   UNL     1      -0.038   1.307  12.052  0.00  0.00    +0.048 A 
ATOM      6  C   UNL     1      -0.232   0.274  12.995  0.00  0.00    +0.116 A 
ATOM      7  N   UNL     1       0.695  -0.738  13.114  0.00  0.00    -0.223 NA
ATOM      8  C   UNL     1       1.826  -0.767  12.318  0.00  0.00    +0.220 A 
ATOM      9  N   UNL     1       2.776  -1.771  12.426  0.00  0.00    -0.283 N 
ATOM     36  H   UNL     1       3.592  -1.760  11.816  0.00  0.00    +0.155 HD
ATOM     37  N   UNL     1       2.033   0.208  11.408  0.00  0.00    -0.214 NA
BRANCH   4   3
ATOM      1  C   UNL     1       1.008   3.569   8.099  0.00  0.00    +0.020 A 
ATOM      2  C   UNL     1       0.625   2.575   9.074  0.00  0.00    +0.013 A 
ATOM      3  C   UNL     1       1.493   2.268  10.204  0.00  0.00    +0.019 A 
ATOM     38  C   UNL     1       2.750   2.992  10.319  0.00  0.00    +0.120 A 
ATOM     39  N   UNL     1       3.093   3.943   9.364  0.00  0.00    -0.263 NA
ATOM     40  C   UNL     1       2.266   4.245   8.271  0.00  0.00    +0.111 A 
ENDBRANCH   4   3
ENDBRANCH  10   9
BRANCH  12  13
ATOM     13  N   UNL     1       3.244  -3.396  17.105  0.00  0.00    -0.281 N 
ATOM     14  C   UNL     1       4.424  -3.763  17.732  0.00  0.00    +0.248 C 
ATOM     30  O   UNL     1       5.263  -4.507  17.245  0.00  0.00    -0.270 OA
ATOM     31  H   UNL     1       2.549  -2.935  17.692  0.00  0.00    +0.155 HD
BRANCH  14  15
ATOM     15  C   UNL     1       4.706  -3.240  19.104  0.00  0.00    +0.037 A 
ATOM     16  C   UNL     1       4.937  -4.148  20.230  0.00  0.00    +0.013 A 
ATOM     17  C   UNL     1       5.190  -3.618  21.546  0.00  0.00    +0.005 A 
ATOM     18  C   UNL     1       5.214  -2.170  21.742  0.00  0.00    -0.033 A 
ATOM     28  C   UNL     1       4.987  -1.292  20.606  0.00  0.00    +0.005 A 
ATOM     29  C   UNL     1       4.738  -1.809  19.315  0.00  0.00    +0.013 A 
BRANCH  18  19
ATOM     19  C   UNL     1       5.455  -1.516  23.116  0.00  0.00    +0.119 C 
BRANCH  19  20
ATOM     20  N   UNL     1       6.135  -0.187  23.130  0.00  0.00    -0.302 NA
ATOM     21  C   UNL     1       7.144  -0.070  24.277  0.00  0.00    +0.066 C 
ATOM     22  C   UNL     1       7.862   1.319  24.263  0.00  0.00    -0.064 C 
ATOM     23  N   UNL     1       6.816   2.432  24.346  0.00  0.00    +0.379 N 
ATOM     24  C   UNL     1       7.492   3.737  24.392  0.00  0.00    -0.096 C 
ATOM     25  H   UNL     1       6.262   2.304  25.304  0.00  0.00    -0.082 HD
ATOM     26  C   UNL     1       5.808   2.322  23.211  0.00  0.00    -0.064 C 
ATOM     27  C   UNL     1       5.121   0.927  23.216  0.00  0.00    +0.066 C 
ENDBRANCH  19  20
ENDBRANCH  18  19
ENDBRANCH  14  15
ENDBRANCH  12  13
TORSDOF 6
ENDMDL
MODEL 2
REMARK VINA RESULT:      -8.0      1.224      1.747
REMARK  Name = C:\Users\Docking\Desktop\test protocol\1iep_ligandH.pdb
REMARK  8 active torsions:
REMARK  status: ('A' for Active; 'I' for Inactive)
REMARK    1  A    between atoms: _5  and  _11
REMARK    2  A    between atoms: _19  and  _21
REMARK    3  A    between atoms: _22  and  _66
REMARK    4  A    between atoms: _27  and  _30
REMARK    5  A    between atoms: _32  and  _33
REMARK    6  A    between atoms: _38  and  _43
REMARK    7  A    between atoms: _43  and  _46
REMARK    8  A    between atoms: _53  and  _55
REMARK                            x       y       z     vdW  Elec       q    Type
REMARK                         _______ _______ _______ _____ _____    ______ ____
ROOT
ATOM     10  C   UNL     1       2.709  -2.748  13.454  0.00  0.00    +0.038 A 
ATOM     11  C   UNL     1       3.084  -2.521  14.803  0.00  0.00    +0.047 A 
ATOM     12  C   UNL     1       2.938  -3.561  15.810  0.00  0.00    +0.035 A 
ATOM     32  C   UNL     1       2.408  -4.821  15.407  0.00  0.00    +0.024 A 
ATOM     33  C   UNL     1       2.020  -5.069  14.041  0.00  0.00    +0.007 A 
ATOM     34  C   UNL     1       2.160  -4.046  13.044  0.00  0.00    -0.029 A 
ATOM     35  C   UNL     1       1.722  -4.365  11.595  0.00  0.00    +0.045 C 
ENDROOT
BRANCH  10   9
ATOM      4  C   UNL     1       1.227   1.279  11.303  0.00  0.00    +0.077 A 
ATOM      5  C   UNL     1       0.015   1.312  12.069  0.00  0.00    +0.048 A 
ATOM      6  C   UNL     1      -0.193   0.270  13.001  0.00  0.00    +0.116 A 
ATOM      7  N   UNL     1       0.749  -0.725  13.148  0.00  0.00    -0.223 NA
ATOM      8  C   UNL     1       1.907  -0.728  12.392  0.00  0.00    +0.220 A 
ATOM      9  N   UNL     1       2.871  -1.715  12.529  0.00  0.00    -0.283 N 
ATOM     36  H   UNL     1       3.708  -1.686  11.947  0.00  0.00    +0.155 HD
ATOM     37  N   UNL     1       2.128   0.255  11.494  0.00  0.00    -0.214 NA
BRANCH   4   3
ATOM      1  C   UNL     1       1.106   3.692   8.228  0.00  0.00    +0.020 A 
ATOM      2  C   UNL     1       0.706   2.690   9.188  0.00  0.00    +0.013 A 
ATOM      3  C   UNL     1       1.591   2.311  10.282  0.00  0.00    +0.019 A 
ATOM     38  C   UNL     1       2.884   2.971  10.377  0.00  0.00    +0.120 A 
ATOM     39  N   UNL     1       3.243   3.932   9.437  0.00  0.00    -0.263 NA
ATOM     40  C   UNL     1       2.400   4.304   8.379  0.00  0.00    +0.111 A 
ENDBRANCH   4   3
ENDBRANCH  10   9
BRANCH  12  13
ATOM     13  N   UNL     1       3.294  -3.386  17.196  0.00  0.00    -0.281 N 
ATOM     14  C   UNL     1       4.488  -3.715  17.816  0.00  0.00    +0.248 C 
ATOM     30  O   UNL     1       5.359  -4.410  17.315  0.00  0.00    -0.270 OA
ATOM     31  H   UNL     1       2.579  -2.968  17.792  0.00  0.00    +0.155 HD
BRANCH  14  15
ATOM     15  C   UNL     1       4.746  -3.211  19.199  0.00  0.00    +0.037 A 
ATOM     16  C   UNL     1       4.966  -4.134  20.316  0.00  0.00    +0.013 A 
ATOM     17  C   UNL     1       5.196  -3.621  21.644  0.00  0.00    +0.005 A 
ATOM     18  C   UNL     1       5.209  -2.177  21.861  0.00  0.00    -0.033 A 
ATOM     28  C   UNL     1       4.993  -1.284  20.735  0.00  0.00    +0.005 A 
ATOM     29  C   UNL     1       4.767  -1.782  19.432  0.00  0.00    +0.013 A 
BRANCH  18  19
ATOM     19  C   UNL     1       5.425  -1.542  23.247  0.00  0.00    +0.119 C 
BRANCH  19  20
ATOM     20  N   UNL     1       6.823  -1.505  23.772  0.00  0.00    -0.302 NA
ATOM     21  C   UNL     1       7.167  -2.761  24.578  0.00  0.00    +0.066 C 
ATOM     22  C   UNL     1       8.640  -2.717  25.100  0.00  0.00    -0.064 C 
ATOM     23  N   UNL     1       8.840  -1.459  25.947  0.00  0.00    +0.379 N 
ATOM     24  C   UNL     1      10.207  -1.443  26.487  0.00  0.00    -0.096 C 
ATOM     25  H   UNL     1       8.136  -1.516  26.809  0.00  0.00    -0.082 HD
ATOM     26  C   UNL     1       8.498  -0.205  25.154  0.00  0.00    -0.064 C 
ATOM     27  C   UNL     1       7.041  -0.273  24.615  0.00  0.00    +0.066 C 
ENDBRANCH  19  20
ENDBRANCH  18  19
ENDBRANCH  14  15
ENDBRANCH  12  13
TORSDOF 6
ENDMDL
MODEL 3
REMARK VINA RESULT:      -8.0      2.648     12.062
REMARK  Name = C:\Users\Docking\Desktop\test protocol\1iep_ligandH.pdb
REMARK  8 active torsions:
REMARK  status: ('A' for Active; 'I' for Inactive)
REMARK    1  A    between atoms: _5  and  _11
REMARK    2  A    between atoms: _19  and  _21
REMARK    3  A    between atoms: _22  and  _66
REMARK    4  A    between atoms: _27  and  _30
REMARK    5  A    between atoms: _32  and  _33
REMARK    6  A    between atoms: _38  and  _43
REMARK    7  A    between atoms: _43  and  _46
REMARK    8  A    between atoms: _53  and  _55
REMARK                            x       y       z     vdW  Elec       q    Type
REMARK                         _______ _______ _______ _____ _____    ______ ____
ROOT
ATOM     10  C   UNL     1       5.363  -0.560  22.255  0.00  0.00    +0.038 A 
ATOM     11  C   UNL     1       5.048  -0.541  20.873  0.00  0.00    +0.047 A 
ATOM     12  C   UNL     1       5.785  -1.357  19.921  0.00  0.00    +0.035 A 
ATOM     32  C   UNL     1       6.837  -2.184  20.413  0.00  0.00    +0.024 A 
ATOM     33  C   UNL     1       7.172  -2.214  21.815  0.00  0.00    +0.007 A 
ATOM     34  C   UNL     1       6.449  -1.409  22.758  0.00  0.00    -0.029 A 
ATOM     35  C   UNL     1       6.856  -1.477  24.249  0.00  0.00    +0.045 C 
ENDROOT
BRANCH  10   9
ATOM      4  C   UNL     1       4.755   3.437  24.842  0.00  0.00    +0.077 A 
ATOM      5  C   UNL     1       6.034   3.956  24.451  0.00  0.00    +0.048 A 
ATOM      6  C   UNL     1       6.821   3.160  23.588  0.00  0.00    +0.116 A 
ATOM      7  N   UNL     1       6.353   1.938  23.155  0.00  0.00    -0.223 NA
ATOM      8  C   UNL     1       5.115   1.466  23.553  0.00  0.00    +0.220 A 
ATOM      9  N   UNL     1       4.622   0.244  23.124  0.00  0.00    -0.283 N 
ATOM     36  H   UNL     1       3.707  -0.072  23.446  0.00  0.00    +0.155 HD
ATOM     37  N   UNL     1       4.346   2.207  24.378  0.00  0.00    -0.214 NA
BRANCH   4   3
ATOM      1  C   UNL     1       1.932   4.224  27.432  0.00  0.00    +0.020 A 
ATOM      2  C   UNL     1       2.824   3.477  26.576  0.00  0.00    +0.013 A 
ATOM      3  C   UNL     1       3.807   4.162  25.747  0.00  0.00    +0.019 A 
ATOM     38  C   UNL     1       3.864   5.615  25.809  0.00  0.00    +0.120 A 
ATOM     39  N   UNL     1       2.992   6.308  26.642  0.00  0.00    -0.263 NA
ATOM     40  C   UNL     1       2.039   5.660  27.443  0.00  0.00    +0.111 A 
ENDBRANCH   4   3
ENDBRANCH  10   9
BRANCH  12  13
ATOM     13  N   UNL     1       5.516  -1.373  18.505  0.00  0.00    -0.281 N 
ATOM     14  C   UNL     1       4.759  -2.289  17.792  0.00  0.00    +0.248 C 
ATOM     30  O   UNL     1       4.373  -3.361  18.236  0.00  0.00    -0.270 OA
ATOM     31  H   UNL     1       5.933  -0.617  17.961  0.00  0.00    +0.155 HD
BRANCH  14  15
ATOM     15  C   UNL     1       4.390  -1.977  16.378  0.00  0.00    +0.037 A 
ATOM     16  C   UNL     1       5.089  -0.933  15.623  0.00  0.00    +0.013 A 
ATOM     17  C   UNL     1       4.702  -0.640  14.266  0.00  0.00    +0.005 A 
ATOM     18  C   UNL     1       3.610  -1.393  13.654  0.00  0.00    -0.033 A 
ATOM     28  C   UNL     1       2.937  -2.427  14.424  0.00  0.00    +0.005 A 
ATOM     29  C   UNL     1       3.314  -2.716  15.755  0.00  0.00    +0.013 A 
BRANCH  18  19
ATOM     19  C   UNL     1       3.116  -1.133  12.219  0.00  0.00    +0.119 C 
BRANCH  19  20
ATOM     20  N   UNL     1       2.547   0.216  11.925  0.00  0.00    -0.302 NA
ATOM     21  C   UNL     1       1.348   0.140  10.976  0.00  0.00    +0.066 C 
ATOM     22  C   UNL     1       0.752   1.558  10.698  0.00  0.00    -0.064 C 
ATOM     23  N   UNL     1       1.842   2.463  10.121  0.00  0.00    +0.379 N 
ATOM     24  C   UNL     1       1.271   3.780   9.804  0.00  0.00    -0.096 C 
ATOM     25  H   UNL     1       2.190   2.006   9.166  0.00  0.00    -0.082 HD
ATOM     26  C   UNL     1       3.040   2.542  11.058  0.00  0.00    -0.064 C 
ATOM     27  C   UNL     1       3.607   1.125  11.351  0.00  0.00    +0.066 C 
ENDBRANCH  19  20
ENDBRANCH  18  19
ENDBRANCH  14  15
ENDBRANCH  12  13
TORSDOF 6
ENDMDL
MODEL 4
REMARK VINA RESULT:      -7.9      2.442     12.399
REMARK  Name = C:\Users\Docking\Desktop\test protocol\1iep_ligandH.pdb
REMARK  8 active torsions:
REMARK  status: ('A' for Active; 'I' for Inactive)
REMARK    1  A    between atoms: _5  and  _11
REMARK    2  A    between atoms: _19  and  _21
REMARK    3  A    between atoms: _22  and  _66
REMARK    4  A    between atoms: _27  and  _30
REMARK    5  A    between atoms: _32  and  _33
REMARK    6  A    between atoms: _38  and  _43
REMARK    7  A    between atoms: _43  and  _46
REMARK    8  A    between atoms: _53  and  _55
REMARK                            x       y       z     vdW  Elec       q    Type
REMARK                         _______ _______ _______ _____ _____    ______ ____
ROOT
ATOM     10  C   UNL     1       2.829  -2.986  15.549  0.00  0.00    +0.038 A 
ATOM     11  C   UNL     1       2.596  -1.914  14.650  0.00  0.00    +0.047 A 
ATOM     12  C   UNL     1       2.347  -2.156  13.238  0.00  0.00    +0.035 A 
ATOM     32  C   UNL     1       2.340  -3.504  12.775  0.00  0.00    +0.024 A 
ATOM     33  C   UNL     1       2.576  -4.606  13.674  0.00  0.00    +0.007 A 
ATOM     34  C   UNL     1       2.825  -4.373  15.068  0.00  0.00    -0.029 A 
ATOM     35  C   UNL     1       3.078  -5.592  15.985  0.00  0.00    +0.045 C 
ENDROOT
BRANCH  10   9
ATOM      4  C   UNL     1       5.706  -1.671  19.158  0.00  0.00    +0.077 A 
ATOM      5  C   UNL     1       6.847  -1.579  18.294  0.00  0.00    +0.048 A 
ATOM      6  C   UNL     1       6.653  -1.886  16.928  0.00  0.00    +0.116 A 
ATOM      7  N   UNL     1       5.406  -2.255  16.472  0.00  0.00    -0.223 NA
ATOM      8  C   UNL     1       4.327  -2.335  17.333  0.00  0.00    +0.220 A 
ATOM      9  N   UNL     1       3.062  -2.696  16.895  0.00  0.00    -0.283 N 
ATOM     36  H   UNL     1       2.294  -2.750  17.563  0.00  0.00    +0.155 HD
ATOM     37  N   UNL     1       4.487  -2.048  18.642  0.00  0.00    -0.214 NA
BRANCH   4   3
ATOM      1  C   UNL     1       4.771  -0.418  22.744  0.00  0.00    +0.020 A 
ATOM      2  C   UNL     1       4.679  -0.679  21.326  0.00  0.00    +0.013 A 
ATOM      3  C   UNL     1       5.751  -1.374  20.625  0.00  0.00    +0.019 A 
ATOM     38  C   UNL     1       6.912  -1.797  21.394  0.00  0.00    +0.120 A 
ATOM     39  N   UNL     1       6.974  -1.531  22.759  0.00  0.00    -0.263 NA
ATOM     40  C   UNL     1       5.949  -0.861  23.444  0.00  0.00    +0.111 A 
ENDBRANCH   4   3
ENDBRANCH  10   9
BRANCH  12  13
ATOM     13  N   UNL     1       2.112  -1.107  12.277  0.00  0.00    -0.281 N 
ATOM     14  C   UNL     1       1.230  -0.043  12.376  0.00  0.00    +0.248 C 
ATOM     30  O   UNL     1       0.350   0.048  13.219  0.00  0.00    -0.270 OA
ATOM     31  H   UNL     1       2.663  -1.153  11.420  0.00  0.00    +0.155 HD
BRANCH  14  15
ATOM     15  C   UNL     1       1.331   1.073  11.387  0.00  0.00    +0.037 A 
ATOM     16  C   UNL     1       2.504   1.949  11.347  0.00  0.00    +0.013 A 
ATOM     17  C   UNL     1       2.569   3.029  10.394  0.00  0.00    +0.005 A 
ATOM     18  C   UNL     1       1.455   3.238   9.472  0.00  0.00    -0.033 A 
ATOM     28  C   UNL     1       0.305   2.350   9.530  0.00  0.00    +0.005 A 
ATOM     29  C   UNL     1       0.238   1.291  10.463  0.00  0.00    +0.013 A 
BRANCH  18  19
ATOM     19  C   UNL     1       1.429   4.378   8.437  0.00  0.00    +0.119 C 
BRANCH  19  20
ATOM     20  N   UNL     1       1.115   4.011   7.023  0.00  0.00    -0.302 NA
ATOM     21  C   UNL     1       2.376   3.932   6.158  0.00  0.00    +0.066 C 
ATOM     22  C   UNL     1       2.032   3.525   4.688  0.00  0.00    -0.064 C 
ATOM     23  N   UNL     1       1.036   4.527   4.103  0.00  0.00    +0.379 N 
ATOM     24  C   UNL     1       0.755   4.181   2.702  0.00  0.00    -0.096 C 
ATOM     25  H   UNL     1       1.522   5.531   4.113  0.00  0.00    -0.082 HD
ATOM     26  C   UNL     1      -0.219   4.614   4.960  0.00  0.00    -0.064 C 
ATOM     27  C   UNL     1       0.136   4.991   6.425  0.00  0.00    +0.066 C 
ENDBRANCH  19  20
ENDBRANCH  18  19
ENDBRANCH  14  15
ENDBRANCH  12  13
TORSDOF 6
ENDMDL
MODEL 5
REMARK VINA RESULT:      -7.6     15.270     18.599
REMARK  Name = C:\Users\Docking\Desktop\test protocol\1iep_ligandH.pdb
REMARK  8 active torsions:
REMARK  status: ('A' for Active; 'I' for Inactive)
REMARK    1  A    between atoms: _5  and  _11
REMARK    2  A    between atoms: _19  and  _21
REMARK    3  A    between atoms: _22  and  _66
REMARK    4  A    between atoms: _27  and  _30
REMARK    5  A    between atoms: _32  and  _33
REMARK    6  A    between atoms: _38  and  _43
REMARK    7  A    between atoms: _43  and  _46
REMARK    8  A    between atoms: _53  and  _55
REMARK                            x       y       z     vdW  Elec       q    Type
REMARK                         _______ _______ _______ _____ _____    ______ ____
ROOT
ATOM     10  C   UNL     1      -2.602   9.236  29.235  0.00  0.00    +0.038 A 
ATOM     11  C   UNL     1      -1.220   8.953  29.379  0.00  0.00    +0.047 A 
ATOM     12  C   UNL     1      -0.745   7.590  29.562  0.00  0.00    +0.035 A 
ATOM     32  C   UNL     1      -1.707   6.538  29.591  0.00  0.00    +0.024 A 
ATOM     33  C   UNL     1      -3.116   6.808  29.447  0.00  0.00    +0.007 A 
ATOM     34  C   UNL     1      -3.590   8.150  29.269  0.00  0.00    -0.029 A 
ATOM     35  C   UNL     1      -5.112   8.381  29.126  0.00  0.00    +0.045 C 
ENDROOT
BRANCH  10   9
ATOM      4  C   UNL     1      -3.837  13.543  30.954  0.00  0.00    +0.077 A 
ATOM      5  C   UNL     1      -3.700  13.105  32.314  0.00  0.00    +0.048 A 
ATOM      6  C   UNL     1      -3.317  11.762  32.527  0.00  0.00    +0.116 A 
ATOM      7  N   UNL     1      -3.090  10.928  31.454  0.00  0.00    -0.223 NA
ATOM      8  C   UNL     1      -3.233  11.382  30.156  0.00  0.00    +0.220 A 
ATOM      9  N   UNL     1      -3.002  10.563  29.061  0.00  0.00    -0.283 N 
ATOM     36  H   UNL     1      -3.125  10.933  28.119  0.00  0.00    +0.155 HD
ATOM     37  N   UNL     1      -3.599  12.660  29.925  0.00  0.00    -0.214 NA
BRANCH   4   3
ATOM      1  C   UNL     1      -4.935  17.294  31.115  0.00  0.00    +0.020 A 
ATOM      2  C   UNL     1      -4.560  15.966  31.542  0.00  0.00    +0.013 A 
ATOM      3  C   UNL     1      -4.232  14.934  30.567  0.00  0.00    +0.019 A 
ATOM     38  C   UNL     1      -4.292  15.282  29.155  0.00  0.00    +0.120 A 
ATOM     39  N   UNL     1      -4.657  16.569  28.773  0.00  0.00    -0.263 NA
ATOM     40  C   UNL     1      -4.977  17.570  29.703  0.00  0.00    +0.111 A 
ENDBRANCH   4   3
ENDBRANCH  10   9
BRANCH  12  13
ATOM     13  N   UNL     1       0.645   7.243  29.722  0.00  0.00    -0.281 N 
ATOM     14  C   UNL     1       1.394   6.356  28.966  0.00  0.00    +0.248 C 
ATOM     30  O   UNL     1       0.923   5.561  28.166  0.00  0.00    -0.270 OA
ATOM     31  H   UNL     1       1.137   7.708  30.484  0.00  0.00    +0.155 HD
BRANCH  14  15
ATOM     15  C   UNL     1       2.879   6.339  29.133  0.00  0.00    +0.037 A 
ATOM     16  C   UNL     1       3.551   7.266  30.047  0.00  0.00    +0.013 A 
ATOM     17  C   UNL     1       4.987   7.240  30.177  0.00  0.00    +0.005 A 
ATOM     18  C   UNL     1       5.759   6.281  29.391  0.00  0.00    -0.033 A 
ATOM     28  C   UNL     1       5.066   5.369  28.496  0.00  0.00    +0.005 A 
ATOM     29  C   UNL     1       3.660   5.392  28.365  0.00  0.00    +0.013 A 
BRANCH  18  19
ATOM     19  C   UNL     1       7.296   6.197  29.450  0.00  0.00    +0.119 C 
BRANCH  19  20
ATOM     20  N   UNL     1       7.890   5.125  30.304  0.00  0.00    -0.302 NA
ATOM     21  C   UNL     1       7.575   5.333  31.788  0.00  0.00    +0.066 C 
ATOM     22  C   UNL     1       8.185   4.191  32.665  0.00  0.00    -0.064 C 
ATOM     23  N   UNL     1       9.696   4.127  32.435  0.00  0.00    +0.379 N 
ATOM     24  C   UNL     1      10.280   3.093  33.301  0.00  0.00    -0.096 C 
ATOM     25  H   UNL     1      10.126   5.109  32.742  0.00  0.00    -0.082 HD
ATOM     26  C   UNL     1      10.018   3.923  30.961  0.00  0.00    -0.064 C 
ATOM     27  C   UNL     1       9.383   5.048  30.096  0.00  0.00    +0.066 C 
ENDBRANCH  19  20
ENDBRANCH  18  19
ENDBRANCH  14  15
ENDBRANCH  12  13
TORSDOF 6
ENDMDL
