MODEL 1
REMARK VINA RESULT:      -9.2      0.000      0.000
REMARK  Name = C:\Users\Docking\Desktop\test protocol\1iep_ligandH.pdb
REMARK  8 active torsions:
REMARK  status: ('A' for Active; 'I' for Inactive)
REMARK    1  A    between atoms: _5  and  _11
REMARK    2  A    between atoms: _19  and  _21
REMARK    3  A    between atoms: _22  and  _66
REMARK    4  A    between atoms: _27  and  _30
REMARK    5  A    between atoms: _32  and  _33
REMARK    6  A    between atoms: _38  and  _43
REMARK    7  A    between atoms: _43  and  _46
REMARK    8  A    between atoms: _53  and  _55
REMARK                            x       y       z     vdW  Elec       q    Type
REMARK                         _______ _______ _______ _____ _____    ______ ____
ROOT
ATOM     10  C   UNL     1      34.745  73.955  76.624  0.00  0.00    +0.038 A 
ATOM     11  C   UNL     1      34.386  75.304  76.372  0.00  0.00    +0.047 A 
ATOM     12  C   UNL     1      34.455  76.309  77.422  0.00  0.00    +0.035 A 
ATOM     32  C   UNL     1      34.896  75.906  78.715  0.00  0.00    +0.024 A 
ATOM     33  C   UNL     1      35.264  74.539  78.989  0.00  0.00    +0.007 A 
ATOM     34  C   UNL     1      35.196  73.543  77.958  0.00  0.00    -0.029 A 
ATOM     35  C   UNL     1      35.596  72.091  78.310  0.00  0.00    +0.045 C 
ENDROOT
BRANCH  10   9
ATOM      4  C   UNL     1      36.282  72.113  72.467  0.00  0.00    +0.077 A 
ATOM      5  C   UNL     1      37.327  73.090  72.352  0.00  0.00    +0.048 A 
ATOM      6  C   UNL     1      37.430  74.054  73.381  0.00  0.00    +0.116 A 
ATOM      7  N   UNL     1      36.549  74.032  74.440  0.00  0.00    -0.223 NA
ATOM      8  C   UNL     1      35.552  73.077  74.519  0.00  0.00    +0.220 A 
ATOM      9  N   UNL     1      34.660  73.032  75.579  0.00  0.00    -0.283 N 
ATOM     36  H   UNL     1      33.934  72.316  75.597  0.00  0.00    +0.155 HD
ATOM     37  N   UNL     1      35.432  72.147  73.549  0.00  0.00    -0.214 NA
BRANCH   4   3
ATOM      1  C   UNL     1      36.595  69.801  69.327  0.00  0.00    +0.020 A 
ATOM      2  C   UNL     1      36.864  70.866  70.266  0.00  0.00    +0.013 A 
ATOM      3  C   UNL     1      36.047  71.029  71.462  0.00  0.00    +0.019 A 
ATOM     38  C   UNL     1      34.958  70.088  71.681  0.00  0.00    +0.120 A 
ATOM     39  N   UNL     1      34.722  69.074  70.759  0.00  0.00    -0.263 NA
ATOM     40  C   UNL     1      35.500  68.909  69.604  0.00  0.00    +0.111 A 
ENDBRANCH   4   3
ENDBRANCH  10   9
BRANCH  12  13
ATOM     13  N   UNL     1      34.095  77.692  77.227  0.00  0.00    -0.281 N 
ATOM     14  C   UNL     1      34.941  78.776  77.060  0.00  0.00    +0.248 C 
ATOM     30  O   UNL     1      36.145  78.752  77.265  0.00  0.00    -0.270 OA
ATOM     31  H   UNL     1      33.096  77.897  77.212  0.00  0.00    +0.155 HD
BRANCH  14  15
ATOM     15  C   UNL     1      34.363  80.080  76.612  0.00  0.00    +0.037 A 
ATOM     16  C   UNL     1      34.614  81.317  77.356  0.00  0.00    +0.013 A 
ATOM     17  C   UNL     1      34.031  82.559  76.912  0.00  0.00    +0.005 A 
ATOM     18  C   UNL     1      33.191  82.569  75.717  0.00  0.00    -0.033 A 
ATOM     28  C   UNL     1      32.963  81.328  74.995  0.00  0.00    +0.005 A 
ATOM     29  C   UNL     1      33.533  80.109  75.427  0.00  0.00    +0.013 A 
BRANCH  18  19
ATOM     19  C   UNL     1      32.511  83.843  75.183  0.00  0.00    +0.119 C 
BRANCH  19  20
ATOM     20  N   UNL     1      33.391  85.009  74.872  0.00  0.00    -0.302 NA
ATOM     21  C   UNL     1      32.616  86.156  74.218  0.00  0.00    +0.066 C 
ATOM     22  C   UNL     1      33.547  87.376  73.921  0.00  0.00    -0.064 C 
ATOM     23  N   UNL     1      34.704  86.925  73.027  0.00  0.00    +0.379 N 
ATOM     24  C   UNL     1      35.550  88.082  72.698  0.00  0.00    -0.096 C 
ATOM     25  H   UNL     1      34.267  86.544  72.075  0.00  0.00    -0.082 HD
ATOM     26  C   UNL     1      35.479  85.783  73.669  0.00  0.00    -0.064 C 
ATOM     27  C   UNL     1      34.538  84.587  73.987  0.00  0.00    +0.066 C 
ENDBRANCH  19  20
ENDBRANCH  18  19
ENDBRANCH  14  15
ENDBRANCH  12  13
TORSDOF 6
ENDMDL
MODEL 2
REMARK VINA RESULT:      -9.1      1.485      2.137
REMARK  Name = C:\Users\Docking\Desktop\test protocol\1iep_ligandH.pdb
REMARK  8 active torsions:
REMARK  status: ('A' for Active; 'I' for Inactive)
REMARK    1  A    between atoms: _5  and  _11
REMARK    2  A    between atoms: _19  and  _21
REMARK    3  A    between atoms: _22  and  _66
REMARK    4  A    between atoms: _27  and  _30
REMARK    5  A    between atoms: _32  and  _33
REMARK    6  A    between atoms: _38  and  _43
REMARK    7  A    between atoms: _43  and  _46
REMARK    8  A    between atoms: _53  and  _55
REMARK                            x       y       z     vdW  Elec       q    Type
REMARK                         _______ _______ _______ _____ _____    ______ ____
ROOT
ATOM     10  C   UNL     1      35.062  73.646  77.125  0.00  0.00    +0.038 A 
ATOM     11  C   UNL     1      34.883  75.035  76.899  0.00  0.00    +0.047 A 
ATOM     12  C   UNL     1      34.971  75.992  77.991  0.00  0.00    +0.035 A 
ATOM     32  C   UNL     1      35.245  75.500  79.301  0.00  0.00    +0.024 A 
ATOM     33  C   UNL     1      35.429  74.091  79.548  0.00  0.00    +0.007 A 
ATOM     34  C   UNL     1      35.341  73.142  78.475  0.00  0.00    -0.029 A 
ATOM     35  C   UNL     1      35.540  71.643  78.799  0.00  0.00    +0.045 C 
ENDROOT
BRANCH  10   9
ATOM      4  C   UNL     1      36.249  72.268  72.683  0.00  0.00    +0.077 A 
ATOM      5  C   UNL     1      37.111  73.400  72.498  0.00  0.00    +0.048 A 
ATOM      6  C   UNL     1      37.215  74.318  73.568  0.00  0.00    +0.116 A 
ATOM      7  N   UNL     1      36.506  74.108  74.731  0.00  0.00    -0.223 NA
ATOM      8  C   UNL     1      35.683  73.007  74.876  0.00  0.00    +0.220 A 
ATOM      9  N   UNL     1      34.967  72.772  76.040  0.00  0.00    -0.283 N 
ATOM     36  H   UNL     1      34.365  71.952  76.104  0.00  0.00    +0.155 HD
ATOM     37  N   UNL     1      35.565  72.117  73.868  0.00  0.00    -0.214 NA
BRANCH   4   3
ATOM      1  C   UNL     1      36.582  70.084  69.455  0.00  0.00    +0.020 A 
ATOM      2  C   UNL     1      36.827  71.127  70.424  0.00  0.00    +0.013 A 
ATOM      3  C   UNL     1      36.037  71.209  71.646  0.00  0.00    +0.019 A 
ATOM     38  C   UNL     1      34.998  70.213  71.859  0.00  0.00    +0.120 A 
ATOM     39  N   UNL     1      34.784  69.221  70.907  0.00  0.00    -0.263 NA
ATOM     40  C   UNL     1      35.537  69.133  69.726  0.00  0.00    +0.111 A 
ENDBRANCH   4   3
ENDBRANCH  10   9
BRANCH  12  13
ATOM     13  N   UNL     1      34.790  77.413  77.824  0.00  0.00    -0.281 N 
ATOM     14  C   UNL     1      35.767  78.393  77.756  0.00  0.00    +0.248 C 
ATOM     30  O   UNL     1      36.942  78.219  78.044  0.00  0.00    -0.270 OA
ATOM     31  H   UNL     1      33.826  77.735  77.747  0.00  0.00    +0.155 HD
BRANCH  14  15
ATOM     15  C   UNL     1      35.379  79.769  77.319  0.00  0.00    +0.037 A 
ATOM     16  C   UNL     1      34.401  80.558  78.071  0.00  0.00    +0.013 A 
ATOM     17  C   UNL     1      34.032  81.876  77.618  0.00  0.00    +0.005 A 
ATOM     18  C   UNL     1      34.645  82.413  76.405  0.00  0.00    -0.033 A 
ATOM     28  C   UNL     1      35.616  81.611  75.681  0.00  0.00    +0.005 A 
ATOM     29  C   UNL     1      35.979  80.318  76.122  0.00  0.00    +0.013 A 
BRANCH  18  19
ATOM     19  C   UNL     1      34.295  83.801  75.836  0.00  0.00    +0.119 C 
BRANCH  19  20
ATOM     20  N   UNL     1      32.874  84.043  75.446  0.00  0.00    -0.302 NA
ATOM     21  C   UNL     1      32.261  82.835  74.732  0.00  0.00    +0.066 C 
ATOM     22  C   UNL     1      30.767  83.096  74.352  0.00  0.00    -0.064 C 
ATOM     23  N   UNL     1      30.678  84.346  73.475  0.00  0.00    +0.379 N 
ATOM     24  C   UNL     1      29.282  84.562  73.068  0.00  0.00    -0.096 C 
ATOM     25  H   UNL     1      31.274  84.155  72.553  0.00  0.00    -0.082 HD
ATOM     26  C   UNL     1      31.288  85.552  74.177  0.00  0.00    -0.064 C 
ATOM     27  C   UNL     1      32.763  85.271  74.577  0.00  0.00    +0.066 C 
ENDBRANCH  19  20
ENDBRANCH  18  19
ENDBRANCH  14  15
ENDBRANCH  12  13
TORSDOF 6
ENDMDL
MODEL 3
REMARK VINA RESULT:      -8.9     28.214     30.029
REMARK  Name = C:\Users\Docking\Desktop\test protocol\1iep_ligandH.pdb
REMARK  8 active torsions:
REMARK  status: ('A' for Active; 'I' for Inactive)
REMARK    1  A    between atoms: _5  and  _11
REMARK    2  A    between atoms: _19  and  _21
REMARK    3  A    between atoms: _22  and  _66
REMARK    4  A    between atoms: _27  and  _30
REMARK    5  A    between atoms: _32  and  _33
REMARK    6  A    between atoms: _38  and  _43
REMARK    7  A    between atoms: _43  and  _46
REMARK    8  A    between atoms: _53  and  _55
REMARK                            x       y       z     vdW  Elec       q    Type
REMARK                         _______ _______ _______ _____ _____    ______ ____
ROOT
ATOM     10  C   UNL     1      34.357  49.923  84.104  0.00  0.00    +0.038 A 
ATOM     11  C   UNL     1      33.124  50.344  84.664  0.00  0.00    +0.047 A 
ATOM     12  C   UNL     1      31.884  49.644  84.366  0.00  0.00    +0.035 A 
ATOM     32  C   UNL     1      31.937  48.517  83.495  0.00  0.00    +0.024 A 
ATOM     33  C   UNL     1      33.182  48.076  82.916  0.00  0.00    +0.007 A 
ATOM     34  C   UNL     1      34.408  48.764  83.204  0.00  0.00    -0.029 A 
ATOM     35  C   UNL     1      35.712  48.251  82.550  0.00  0.00    +0.045 C 
ENDROOT
BRANCH  10   9
ATOM      4  C   UNL     1      38.152  50.783  86.914  0.00  0.00    +0.077 A 
ATOM      5  C   UNL     1      37.778  49.750  87.836  0.00  0.00    +0.048 A 
ATOM      6  C   UNL     1      36.598  49.026  87.555  0.00  0.00    +0.116 A 
ATOM      7  N   UNL     1      35.856  49.320  86.432  0.00  0.00    -0.223 NA
ATOM      8  C   UNL     1      36.244  50.324  85.563  0.00  0.00    +0.220 A 
ATOM      9  N   UNL     1      35.518  50.632  84.424  0.00  0.00    -0.283 N 
ATOM     36  H   UNL     1      35.834  51.384  83.812  0.00  0.00    +0.155 HD
ATOM     37  N   UNL     1      37.366  51.031  85.810  0.00  0.00    -0.214 NA
BRANCH   4   3
ATOM      1  C   UNL     1      40.581  53.848  87.006  0.00  0.00    +0.020 A 
ATOM      2  C   UNL     1      39.374  53.072  86.839  0.00  0.00    +0.013 A 
ATOM      3  C   UNL     1      39.374  51.633  87.072  0.00  0.00    +0.019 A 
ATOM     38  C   UNL     1      40.623  51.005  87.477  0.00  0.00    +0.120 A 
ATOM     39  N   UNL     1      41.770  51.777  87.629  0.00  0.00    -0.263 NA
ATOM     40  C   UNL     1      41.782  53.162  87.406  0.00  0.00    +0.111 A 
ENDBRANCH   4   3
ENDBRANCH  10   9
BRANCH  12  13
ATOM     13  N   UNL     1      30.602  50.031  84.898  0.00  0.00    -0.281 N 
ATOM     14  C   UNL     1      29.961  49.533  86.021  0.00  0.00    +0.248 C 
ATOM     30  O   UNL     1      30.300  48.524  86.620  0.00  0.00    -0.270 OA
ATOM     31  H   UNL     1      30.106  50.760  84.385  0.00  0.00    +0.155 HD
BRANCH  14  15
ATOM     15  C   UNL     1      28.761  50.253  86.546  0.00  0.00    +0.037 A 
ATOM     16  C   UNL     1      27.596  49.521  87.050  0.00  0.00    +0.013 A 
ATOM     17  C   UNL     1      26.444  50.240  87.535  0.00  0.00    +0.005 A 
ATOM     18  C   UNL     1      26.453  51.701  87.519  0.00  0.00    -0.033 A 
ATOM     28  C   UNL     1      27.624  52.401  87.019  0.00  0.00    +0.005 A 
ATOM     29  C   UNL     1      28.754  51.700  86.542  0.00  0.00    +0.013 A 
BRANCH  18  19
ATOM     19  C   UNL     1      25.260  52.549  87.998  0.00  0.00    +0.119 C 
BRANCH  19  20
ATOM     20  N   UNL     1      24.416  53.196  86.948  0.00  0.00    -0.302 NA
ATOM     21  C   UNL     1      23.339  54.100  87.554  0.00  0.00    +0.066 C 
ATOM     22  C   UNL     1      22.481  54.786  86.442  0.00  0.00    -0.064 C 
ATOM     23  N   UNL     1      21.850  53.712  85.553  0.00  0.00    +0.379 N 
ATOM     24  C   UNL     1      20.995  54.352  84.542  0.00  0.00    -0.096 C 
ATOM     25  H   UNL     1      21.196  53.081  86.199  0.00  0.00    -0.082 HD
ATOM     26  C   UNL     1      22.914  52.807  84.949  0.00  0.00    -0.064 C 
ATOM     27  C   UNL     1      23.780  52.153  86.062  0.00  0.00    +0.066 C 
ENDBRANCH  19  20
ENDBRANCH  18  19
ENDBRANCH  14  15
ENDBRANCH  12  13
TORSDOF 6
ENDMDL
MODEL 4
REMARK VINA RESULT:      -8.8      1.530      2.206
REMARK  Name = C:\Users\Docking\Desktop\test protocol\1iep_ligandH.pdb
REMARK  8 active torsions:
REMARK  status: ('A' for Active; 'I' for Inactive)
REMARK    1  A    between atoms: _5  and  _11
REMARK    2  A    between atoms: _19  and  _21
REMARK    3  A    between atoms: _22  and  _66
REMARK    4  A    between atoms: _27  and  _30
REMARK    5  A    between atoms: _32  and  _33
REMARK    6  A    between atoms: _38  and  _43
REMARK    7  A    between atoms: _43  and  _46
REMARK    8  A    between atoms: _53  and  _55
REMARK                            x       y       z     vdW  Elec       q    Type
REMARK                         _______ _______ _______ _____ _____    ______ ____
ROOT
ATOM     10  C   UNL     1      35.277  75.126  75.697  0.00  0.00    +0.038 A 
ATOM     11  C   UNL     1      34.977  76.436  75.242  0.00  0.00    +0.047 A 
ATOM     12  C   UNL     1      35.232  77.599  76.077  0.00  0.00    +0.035 A 
ATOM     32  C   UNL     1      35.795  77.393  77.370  0.00  0.00    +0.024 A 
ATOM     33  C   UNL     1      36.104  76.069  77.849  0.00  0.00    +0.007 A 
ATOM     34  C   UNL     1      35.853  74.917  77.031  0.00  0.00    -0.029 A 
ATOM     35  C   UNL     1      36.199  73.521  77.599  0.00  0.00    +0.045 C 
ENDROOT
BRANCH  10   9
ATOM      4  C   UNL     1      36.493  72.125  72.155  0.00  0.00    +0.077 A 
ATOM      5  C   UNL     1      37.751  72.783  71.949  0.00  0.00    +0.048 A 
ATOM      6  C   UNL     1      38.043  73.895  72.770  0.00  0.00    +0.116 A 
ATOM      7  N   UNL     1      37.138  74.308  73.724  0.00  0.00    -0.223 NA
ATOM      8  C   UNL     1      35.934  73.652  73.896  0.00  0.00    +0.220 A 
ATOM      9  N   UNL     1      35.012  74.045  74.854  0.00  0.00    -0.283 N 
ATOM     36  H   UNL     1      34.132  73.539  74.944  0.00  0.00    +0.155 HD
ATOM     37  N   UNL     1      35.630  72.588  73.123  0.00  0.00    -0.214 NA
BRANCH   4   3
ATOM      1  C   UNL     1      34.567  68.918  71.010  0.00  0.00    +0.020 A 
ATOM      2  C   UNL     1      34.965  70.055  71.808  0.00  0.00    +0.013 A 
ATOM      3  C   UNL     1      36.041  70.934  71.368  0.00  0.00    +0.019 A 
ATOM     38  C   UNL     1      36.699  70.632  70.105  0.00  0.00    +0.120 A 
ATOM     39  N   UNL     1      36.295  69.529  69.359  0.00  0.00    -0.263 NA
ATOM     40  C   UNL     1      35.262  68.676  69.774  0.00  0.00    +0.111 A 
ENDBRANCH   4   3
ENDBRANCH  10   9
BRANCH  12  13
ATOM     13  N   UNL     1      34.941  78.952  75.671  0.00  0.00    -0.281 N 
ATOM     14  C   UNL     1      34.114  79.870  76.297  0.00  0.00    +0.248 C 
ATOM     30  O   UNL     1      33.327  79.594  77.191  0.00  0.00    -0.270 OA
ATOM     31  H   UNL     1      35.400  79.272  74.818  0.00  0.00    +0.155 HD
BRANCH  14  15
ATOM     15  C   UNL     1      34.156  81.298  75.858  0.00  0.00    +0.037 A 
ATOM     16  C   UNL     1      34.356  81.655  74.451  0.00  0.00    +0.013 A 
ATOM     17  C   UNL     1      34.409  83.040  74.057  0.00  0.00    +0.005 A 
ATOM     18  C   UNL     1      34.262  84.080  75.073  0.00  0.00    -0.033 A 
ATOM     28  C   UNL     1      34.060  83.698  76.460  0.00  0.00    +0.005 A 
ATOM     29  C   UNL     1      34.008  82.341  76.851  0.00  0.00    +0.013 A 
BRANCH  18  19
ATOM     19  C   UNL     1      34.328  85.584  74.746  0.00  0.00    +0.119 C 
BRANCH  19  20
ATOM     20  N   UNL     1      35.596  86.099  74.149  0.00  0.00    -0.302 NA
ATOM     21  C   UNL     1      36.057  87.399  74.813  0.00  0.00    +0.066 C 
ATOM     22  C   UNL     1      37.397  87.912  74.192  0.00  0.00    -0.064 C 
ATOM     23  N   UNL     1      37.216  88.108  72.686  0.00  0.00    +0.379 N 
ATOM     24  C   UNL     1      38.456  88.645  72.108  0.00  0.00    -0.096 C 
ATOM     25  H   UNL     1      36.416  88.870  72.538  0.00  0.00    -0.082 HD
ATOM     26  C   UNL     1      36.755  86.820  72.018  0.00  0.00    -0.064 C 
ATOM     27  C   UNL     1      35.439  86.303  72.662  0.00  0.00    +0.066 C 
ENDBRANCH  19  20
ENDBRANCH  18  19
ENDBRANCH  14  15
ENDBRANCH  12  13
TORSDOF 6
ENDMDL
MODEL 5
REMARK VINA RESULT:      -8.8      7.498     12.597
REMARK  Name = C:\Users\Docking\Desktop\test protocol\1iep_ligandH.pdb
REMARK  8 active torsions:
REMARK  status: ('A' for Active; 'I' for Inactive)
REMARK    1  A    between atoms: _5  and  _11
REMARK    2  A    between atoms: _19  and  _21
REMARK    3  A    between atoms: _22  and  _66
REMARK    4  A    between atoms: _27  and  _30
REMARK    5  A    between atoms: _32  and  _33
REMARK    6  A    between atoms: _38  and  _43
REMARK    7  A    between atoms: _43  and  _46
REMARK    8  A    between atoms: _53  and  _55
REMARK                            x       y       z     vdW  Elec       q    Type
REMARK                         _______ _______ _______ _____ _____    ______ ____
ROOT
ATOM     10  C   UNL     1      44.175  76.514  70.842  0.00  0.00    +0.038 A 
ATOM     11  C   UNL     1      43.048  76.256  71.663  0.00  0.00    +0.047 A 
ATOM     12  C   UNL     1      42.100  75.203  71.331  0.00  0.00    +0.035 A 
ATOM     32  C   UNL     1      42.333  74.431  70.156  0.00  0.00    +0.024 A 
ATOM     33  C   UNL     1      43.473  74.680  69.309  0.00  0.00    +0.007 A 
ATOM     34  C   UNL     1      44.410  75.719  69.630  0.00  0.00    -0.029 A 
ATOM     35  C   UNL     1      45.611  75.946  68.683  0.00  0.00    +0.045 C 
ENDROOT
BRANCH  10   9
ATOM      4  C   UNL     1      45.170  81.127  71.717  0.00  0.00    +0.077 A 
ATOM      5  C   UNL     1      43.834  81.538  71.391  0.00  0.00    +0.048 A 
ATOM      6  C   UNL     1      42.924  80.532  70.996  0.00  0.00    +0.116 A 
ATOM      7  N   UNL     1      43.330  79.217  70.935  0.00  0.00    -0.223 NA
ATOM      8  C   UNL     1      44.626  78.855  71.255  0.00  0.00    +0.220 A 
ATOM      9  N   UNL     1      45.053  77.537  71.208  0.00  0.00    -0.283 N 
ATOM     36  H   UNL     1      46.019  77.311  71.444  0.00  0.00    +0.155 HD
ATOM     37  N   UNL     1      45.514  79.797  71.634  0.00  0.00    -0.214 NA
BRANCH   4   3
ATOM      1  C   UNL     1      47.050  84.318  72.975  0.00  0.00    +0.020 A 
ATOM      2  C   UNL     1      45.976  83.446  72.560  0.00  0.00    +0.013 A 
ATOM      3  C   UNL     1      46.245  82.072  72.155  0.00  0.00    +0.019 A 
ATOM     38  C   UNL     1      47.624  81.608  72.182  0.00  0.00    +0.120 A 
ATOM     39  N   UNL     1      48.639  82.471  72.584  0.00  0.00    -0.263 NA
ATOM     40  C   UNL     1      48.391  83.795  72.975  0.00  0.00    +0.111 A 
ENDBRANCH   4   3
ENDBRANCH  10   9
BRANCH  12  13
ATOM     13  N   UNL     1      40.934  74.900  72.123  0.00  0.00    -0.281 N 
ATOM     14  C   UNL     1      39.713  75.555  72.124  0.00  0.00    +0.248 C 
ATOM     30  O   UNL     1      39.508  76.638  71.597  0.00  0.00    -0.270 OA
ATOM     31  H   UNL     1      41.018  74.108  72.759  0.00  0.00    +0.155 HD
BRANCH  14  15
ATOM     15  C   UNL     1      38.555  74.921  72.825  0.00  0.00    +0.037 A 
ATOM     16  C   UNL     1      38.266  73.492  72.676  0.00  0.00    +0.013 A 
ATOM     17  C   UNL     1      37.133  72.909  73.350  0.00  0.00    +0.005 A 
ATOM     18  C   UNL     1      36.280  73.756  74.181  0.00  0.00    -0.033 A 
ATOM     28  C   UNL     1      36.593  75.169  74.316  0.00  0.00    +0.005 A 
ATOM     29  C   UNL     1      37.702  75.744  73.656  0.00  0.00    +0.013 A 
BRANCH  18  19
ATOM     19  C   UNL     1      35.038  73.224  74.920  0.00  0.00    +0.119 C 
BRANCH  19  20
ATOM     20  N   UNL     1      34.883  73.601  76.356  0.00  0.00    -0.302 NA
ATOM     21  C   UNL     1      36.094  73.182  77.195  0.00  0.00    +0.066 C 
ATOM     22  C   UNL     1      35.924  73.605  78.690  0.00  0.00    -0.064 C 
ATOM     23  N   UNL     1      34.640  72.990  79.249  0.00  0.00    +0.379 N 
ATOM     24  C   UNL     1      34.507  73.338  80.671  0.00  0.00    -0.096 C 
ATOM     25  H   UNL     1      34.738  71.882  79.179  0.00  0.00    -0.082 HD
ATOM     26  C   UNL     1      33.431  73.399  78.419  0.00  0.00    -0.064 C 
ATOM     27  C   UNL     1      33.622  73.001  76.929  0.00  0.00    +0.066 C 
ENDBRANCH  19  20
ENDBRANCH  18  19
ENDBRANCH  14  15
ENDBRANCH  12  13
TORSDOF 6
ENDMDL
