MODEL 1
REMARK VINA RESULT:      -7.6      0.000      0.000
REMARK  Name = C:\Users\Docking\Desktop\test protocol\1iep_ligandH.pdb
REMARK  8 active torsions:
REMARK  status: ('A' for Active; 'I' for Inactive)
REMARK    1  A    between atoms: _5  and  _11
REMARK    2  A    between atoms: _19  and  _21
REMARK    3  A    between atoms: _22  and  _66
REMARK    4  A    between atoms: _27  and  _30
REMARK    5  A    between atoms: _32  and  _33
REMARK    6  A    between atoms: _38  and  _43
REMARK    7  A    between atoms: _43  and  _46
REMARK    8  A    between atoms: _53  and  _55
REMARK                            x       y       z     vdW  Elec       q    Type
REMARK                         _______ _______ _______ _____ _____    ______ ____
ROOT
ATOM     10  C   UNL     1      30.343 102.300  68.966  0.00  0.00    +0.038 A 
ATOM     11  C   UNL     1      31.613 102.843  69.289  0.00  0.00    +0.047 A 
ATOM     12  C   UNL     1      32.267 103.800  68.412  0.00  0.00    +0.035 A 
ATOM     32  C   UNL     1      31.598 104.185  67.214  0.00  0.00    +0.024 A 
ATOM     33  C   UNL     1      30.308 103.643  66.869  0.00  0.00    +0.007 A 
ATOM     34  C   UNL     1      29.659 102.695  67.729  0.00  0.00    -0.029 A 
ATOM     35  C   UNL     1      28.278 102.141  67.306  0.00  0.00    +0.045 C 
ENDROOT
BRANCH  10   9
ATOM      4  C   UNL     1      27.595 101.226  72.752  0.00  0.00    +0.077 A 
ATOM      5  C   UNL     1      27.318 102.608  73.018  0.00  0.00    +0.048 A 
ATOM      6  C   UNL     1      27.908 103.564  72.161  0.00  0.00    +0.116 A 
ATOM      7  N   UNL     1      28.713 103.157  71.119  0.00  0.00    -0.223 NA
ATOM      8  C   UNL     1      28.961 101.816  70.891  0.00  0.00    +0.220 A 
ATOM      9  N   UNL     1      29.760 101.384  69.845  0.00  0.00    -0.283 N 
ATOM     36  H   UNL     1      29.925 100.386  69.715  0.00  0.00    +0.155 HD
ATOM     37  N   UNL     1      28.410 100.883  71.696  0.00  0.00    -0.214 NA
BRANCH   4   3
ATOM      1  C   UNL     1      26.746  97.645  74.078  0.00  0.00    +0.020 A 
ATOM      2  C   UNL     1      27.304  98.697  73.259  0.00  0.00    +0.013 A 
ATOM      3  C   UNL     1      27.042 100.098  73.566  0.00  0.00    +0.019 A 
ATOM     38  C   UNL     1      26.207 100.403  74.718  0.00  0.00    +0.120 A 
ATOM     39  N   UNL     1      25.683  99.369  75.488  0.00  0.00    -0.263 NA
ATOM     40  C   UNL     1      25.926  98.017  75.201  0.00  0.00    +0.111 A 
ENDBRANCH   4   3
ENDBRANCH  10   9
BRANCH  12  13
ATOM     13  N   UNL     1      33.559 104.379  68.684  0.00  0.00    -0.281 N 
ATOM     14  C   UNL     1      34.737 104.204  67.976  0.00  0.00    +0.248 C 
ATOM     30  O   UNL     1      34.908 103.349  67.120  0.00  0.00    -0.270 OA
ATOM     31  H   UNL     1      33.612 104.993  69.498  0.00  0.00    +0.155 HD
BRANCH  14  15
ATOM     15  C   UNL     1      35.897 105.099  68.272  0.00  0.00    +0.037 A 
ATOM     16  C   UNL     1      35.717 106.367  68.984  0.00  0.00    +0.013 A 
ATOM     17  C   UNL     1      36.850 107.220  69.241  0.00  0.00    +0.005 A 
ATOM     18  C   UNL     1      38.176 106.806  68.787  0.00  0.00    -0.033 A 
ATOM     28  C   UNL     1      38.327 105.541  68.087  0.00  0.00    +0.005 A 
ATOM     29  C   UNL     1      37.218 104.703  67.832  0.00  0.00    +0.013 A 
BRANCH  18  19
ATOM     19  C   UNL     1      39.438 107.662  68.999  0.00  0.00    +0.119 C 
BRANCH  19  20
ATOM     20  N   UNL     1      39.718 108.729  67.992  0.00  0.00    -0.302 NA
ATOM     21  C   UNL     1      40.960 108.415  67.153  0.00  0.00    +0.066 C 
ATOM     22  C   UNL     1      41.225 109.530  66.089  0.00  0.00    -0.064 C 
ATOM     23  N   UNL     1      41.374 110.879  66.795  0.00  0.00    +0.379 N 
ATOM     24  C   UNL     1      41.681 111.920  65.804  0.00  0.00    -0.096 C 
ATOM     25  H   UNL     1      42.245 110.803  67.487  0.00  0.00    -0.082 HD
ATOM     26  C   UNL     1      40.145 111.197  67.634  0.00  0.00    -0.064 C 
ATOM     27  C   UNL     1      39.873 110.069  68.668  0.00  0.00    +0.066 C 
ENDBRANCH  19  20
ENDBRANCH  18  19
ENDBRANCH  14  15
ENDBRANCH  12  13
TORSDOF 6
ENDMDL
MODEL 2
REMARK VINA RESULT:      -7.3     21.610     23.180
REMARK  Name = C:\Users\Docking\Desktop\test protocol\1iep_ligandH.pdb
REMARK  8 active torsions:
REMARK  status: ('A' for Active; 'I' for Inactive)
REMARK    1  A    between atoms: _5  and  _11
REMARK    2  A    between atoms: _19  and  _21
REMARK    3  A    between atoms: _22  and  _66
REMARK    4  A    between atoms: _27  and  _30
REMARK    5  A    between atoms: _32  and  _33
REMARK    6  A    between atoms: _38  and  _43
REMARK    7  A    between atoms: _43  and  _46
REMARK    8  A    between atoms: _53  and  _55
REMARK                            x       y       z     vdW  Elec       q    Type
REMARK                         _______ _______ _______ _____ _____    ______ ____
ROOT
ATOM     10  C   UNL     1      40.411 100.925  92.437  0.00  0.00    +0.038 A 
ATOM     11  C   UNL     1      41.001 101.305  91.205  0.00  0.00    +0.047 A 
ATOM     12  C   UNL     1      41.039 102.698  90.786  0.00  0.00    +0.035 A 
ATOM     32  C   UNL     1      40.467 103.678  91.649  0.00  0.00    +0.024 A 
ATOM     33  C   UNL     1      39.861 103.309  92.904  0.00  0.00    +0.007 A 
ATOM     34  C   UNL     1      39.819 101.937  93.321  0.00  0.00    -0.029 A 
ATOM     35  C   UNL     1      39.152 101.599  94.675  0.00  0.00    +0.045 C 
ENDROOT
BRANCH  10   9
ATOM      4  C   UNL     1      42.386  97.086  94.533  0.00  0.00    +0.077 A 
ATOM      5  C   UNL     1      43.545  97.829  94.936  0.00  0.00    +0.048 A 
ATOM      6  C   UNL     1      43.597  99.194  94.578  0.00  0.00    +0.116 A 
ATOM      7  N   UNL     1      42.562  99.765  93.870  0.00  0.00    -0.223 NA
ATOM      8  C   UNL     1      41.459  99.019  93.495  0.00  0.00    +0.220 A 
ATOM      9  N   UNL     1      40.402  99.574  92.790  0.00  0.00    -0.283 N 
ATOM     36  H   UNL     1      39.610  98.989  92.525  0.00  0.00    +0.155 HD
ATOM     37  N   UNL     1      41.386  97.712  93.823  0.00  0.00    -0.214 NA
BRANCH   4   3
ATOM      1  C   UNL     1      42.254  93.188  94.224  0.00  0.00    +0.020 A 
ATOM      2  C   UNL     1      42.467  94.575  93.878  0.00  0.00    +0.013 A 
ATOM      3  C   UNL     1      42.183  95.634  94.838  0.00  0.00    +0.019 A 
ATOM     38  C   UNL     1      41.682  95.254  96.150  0.00  0.00    +0.120 A 
ATOM     39  N   UNL     1      41.485  93.910  96.454  0.00  0.00    -0.263 NA
ATOM     40  C   UNL     1      41.753  92.882  95.538  0.00  0.00    +0.111 A 
ENDBRANCH   4   3
ENDBRANCH  10   9
BRANCH  12  13
ATOM     13  N   UNL     1      41.618 103.142  89.543  0.00  0.00    -0.281 N 
ATOM     14  C   UNL     1      40.959 103.540  88.391  0.00  0.00    +0.248 C 
ATOM     30  O   UNL     1      39.767 103.369  88.182  0.00  0.00    -0.270 OA
ATOM     31  H   UNL     1      42.637 103.167  89.508  0.00  0.00    +0.155 HD
BRANCH  14  15
ATOM     15  C   UNL     1      41.740 104.211  87.308  0.00  0.00    +0.037 A 
ATOM     16  C   UNL     1      42.942 104.992  87.610  0.00  0.00    +0.013 A 
ATOM     17  C   UNL     1      43.668 105.644  86.548  0.00  0.00    +0.005 A 
ATOM     18  C   UNL     1      43.193 105.515  85.173  0.00  0.00    -0.033 A 
ATOM     28  C   UNL     1      42.000 104.730  84.900  0.00  0.00    +0.005 A 
ATOM     29  C   UNL     1      41.286 104.091  85.939  0.00  0.00    +0.013 A 
BRANCH  18  19
ATOM     19  C   UNL     1      43.892 106.194  83.980  0.00  0.00    +0.119 C 
BRANCH  19  20
ATOM     20  N   UNL     1      45.293 105.774  83.679  0.00  0.00    -0.302 NA
ATOM     21  C   UNL     1      46.239 106.972  83.563  0.00  0.00    +0.066 C 
ATOM     22  C   UNL     1      47.705 106.513  83.271  0.00  0.00    -0.064 C 
ATOM     23  N   UNL     1      47.729 105.678  81.990  0.00  0.00    +0.379 N 
ATOM     24  C   UNL     1      49.114 105.293  81.681  0.00  0.00    -0.096 C 
ATOM     25  H   UNL     1      47.363 106.324  81.158  0.00  0.00    -0.082 HD
ATOM     26  C   UNL     1      46.789 104.485  82.096  0.00  0.00    -0.064 C 
ATOM     27  C   UNL     1      45.341 104.951  82.415  0.00  0.00    +0.066 C 
ENDBRANCH  19  20
ENDBRANCH  18  19
ENDBRANCH  14  15
ENDBRANCH  12  13
TORSDOF 6
ENDMDL
MODEL 3
REMARK VINA RESULT:      -7.3      2.290     13.452
REMARK  Name = C:\Users\Docking\Desktop\test protocol\1iep_ligandH.pdb
REMARK  8 active torsions:
REMARK  status: ('A' for Active; 'I' for Inactive)
REMARK    1  A    between atoms: _5  and  _11
REMARK    2  A    between atoms: _19  and  _21
REMARK    3  A    between atoms: _22  and  _66
REMARK    4  A    between atoms: _27  and  _30
REMARK    5  A    between atoms: _32  and  _33
REMARK    6  A    between atoms: _38  and  _43
REMARK    7  A    between atoms: _43  and  _46
REMARK    8  A    between atoms: _53  and  _55
REMARK                            x       y       z     vdW  Elec       q    Type
REMARK                         _______ _______ _______ _____ _____    ______ ____
ROOT
ATOM     10  C   UNL     1      32.099 103.051  67.903  0.00  0.00    +0.038 A 
ATOM     11  C   UNL     1      31.533 102.482  69.072  0.00  0.00    +0.047 A 
ATOM     12  C   UNL     1      30.178 101.952  69.071  0.00  0.00    +0.035 A 
ATOM     32  C   UNL     1      29.428 102.016  67.860  0.00  0.00    +0.024 A 
ATOM     33  C   UNL     1      29.988 102.592  66.663  0.00  0.00    +0.007 A 
ATOM     34  C   UNL     1      31.323 103.119  66.658  0.00  0.00    -0.029 A 
ATOM     35  C   UNL     1      31.869 103.731  65.348  0.00  0.00    +0.045 C 
ENDROOT
BRANCH  10   9
ATOM      4  C   UNL     1      35.259 106.579  68.677  0.00  0.00    +0.077 A 
ATOM      5  C   UNL     1      34.221 107.526  68.966  0.00  0.00    +0.048 A 
ATOM      6  C   UNL     1      32.887 107.067  68.897  0.00  0.00    +0.116 A 
ATOM      7  N   UNL     1      32.622 105.756  68.564  0.00  0.00    -0.223 NA
ATOM      8  C   UNL     1      33.647 104.869  68.290  0.00  0.00    +0.220 A 
ATOM      9  N   UNL     1      33.404 103.545  67.960  0.00  0.00    -0.283 N 
ATOM     36  H   UNL     1      34.187 102.924  67.757  0.00  0.00    +0.155 HD
ATOM     37  N   UNL     1      34.929 105.284  68.347  0.00  0.00    -0.214 NA
BRANCH   4   3
ATOM      1  C   UNL     1      39.098 106.464  69.420  0.00  0.00    +0.020 A 
ATOM      2  C   UNL     1      37.700 106.098  69.418  0.00  0.00    +0.013 A 
ATOM      3  C   UNL     1      36.719 106.912  68.712  0.00  0.00    +0.019 A 
ATOM     38  C   UNL     1      37.188 108.097  68.011  0.00  0.00    +0.120 A 
ATOM     39  N   UNL     1      38.540 108.425  68.031  0.00  0.00    -0.263 NA
ATOM     40  C   UNL     1      39.494 107.651  68.709  0.00  0.00    +0.111 A 
ENDBRANCH   4   3
ENDBRANCH  10   9
BRANCH  12  13
ATOM     13  N   UNL     1      29.548 101.369  70.229  0.00  0.00    -0.281 N 
ATOM     14  C   UNL     1      28.833 102.015  71.225  0.00  0.00    +0.248 C 
ATOM     30  O   UNL     1      28.808 103.226  71.383  0.00  0.00    -0.270 OA
ATOM     31  H   UNL     1      29.640 100.358  70.328  0.00  0.00    +0.155 HD
BRANCH  14  15
ATOM     15  C   UNL     1      28.042 101.195  72.193  0.00  0.00    +0.037 A 
ATOM     16  C   UNL     1      28.396  99.802  72.476  0.00  0.00    +0.013 A 
ATOM     17  C   UNL     1      27.606  99.029  73.401  0.00  0.00    +0.005 A 
ATOM     18  C   UNL     1      26.455  99.649  74.052  0.00  0.00    -0.033 A 
ATOM     28  C   UNL     1      26.129 101.035  73.758  0.00  0.00    +0.005 A 
ATOM     29  C   UNL     1      26.901 101.795  72.850  0.00  0.00    +0.013 A 
BRANCH  18  19
ATOM     19  C   UNL     1      25.543  98.893  75.038  0.00  0.00    +0.119 C 
BRANCH  19  20
ATOM     20  N   UNL     1      25.605  99.298  76.474  0.00  0.00    -0.302 NA
ATOM     21  C   UNL     1      25.944  98.117  77.389  0.00  0.00    +0.066 C 
ATOM     22  C   UNL     1      26.027  98.562  78.885  0.00  0.00    -0.064 C 
ATOM     23  N   UNL     1      24.701  99.204  79.298  0.00  0.00    +0.379 N 
ATOM     24  C   UNL     1      24.756  99.571  80.720  0.00  0.00    -0.096 C 
ATOM     25  H   UNL     1      23.902  98.436  79.177  0.00  0.00    -0.082 HD
ATOM     26  C   UNL     1      24.355 100.377  78.392  0.00  0.00    -0.064 C 
ATOM     27  C   UNL     1      24.304  99.930  76.904  0.00  0.00    +0.066 C 
ENDBRANCH  19  20
ENDBRANCH  18  19
ENDBRANCH  14  15
ENDBRANCH  12  13
TORSDOF 6
ENDMDL
MODEL 4
REMARK VINA RESULT:      -7.2     22.810     25.787
REMARK  Name = C:\Users\Docking\Desktop\test protocol\1iep_ligandH.pdb
REMARK  8 active torsions:
REMARK  status: ('A' for Active; 'I' for Inactive)
REMARK    1  A    between atoms: _5  and  _11
REMARK    2  A    between atoms: _19  and  _21
REMARK    3  A    between atoms: _22  and  _66
REMARK    4  A    between atoms: _27  and  _30
REMARK    5  A    between atoms: _32  and  _33
REMARK    6  A    between atoms: _38  and  _43
REMARK    7  A    between atoms: _43  and  _46
REMARK    8  A    between atoms: _53  and  _55
REMARK                            x       y       z     vdW  Elec       q    Type
REMARK                         _______ _______ _______ _____ _____    ______ ____
ROOT
ATOM     10  C   UNL     1      39.069 102.290  90.906  0.00  0.00    +0.038 A 
ATOM     11  C   UNL     1      39.865 101.164  91.240  0.00  0.00    +0.047 A 
ATOM     12  C   UNL     1      39.974 100.703  92.615  0.00  0.00    +0.035 A 
ATOM     32  C   UNL     1      39.257 101.409  93.625  0.00  0.00    +0.024 A 
ATOM     33  C   UNL     1      38.445 102.556  93.302  0.00  0.00    +0.007 A 
ATOM     34  C   UNL     1      38.335 103.017  91.948  0.00  0.00    -0.029 A 
ATOM     35  C   UNL     1      37.454 104.256  91.661  0.00  0.00    +0.045 C 
ENDROOT
BRANCH  10   9
ATOM      4  C   UNL     1      41.018 104.172  86.944  0.00  0.00    +0.077 A 
ATOM      5  C   UNL     1      42.272 104.404  87.600  0.00  0.00    +0.048 A 
ATOM      6  C   UNL     1      42.373 104.031  88.959  0.00  0.00    +0.116 A 
ATOM      7  N   UNL     1      41.292 103.468  89.604  0.00  0.00    -0.223 NA
ATOM      8  C   UNL     1      40.096 103.261  88.942  0.00  0.00    +0.220 A 
ATOM      9  N   UNL     1      38.999 102.689  89.569  0.00  0.00    -0.283 N 
ATOM     36  H   UNL     1      38.132 102.560  89.049  0.00  0.00    +0.155 HD
ATOM     37  N   UNL     1      39.974 103.610  87.645  0.00  0.00    -0.214 NA
BRANCH   4   3
ATOM      1  C   UNL     1      41.471 104.738  83.100  0.00  0.00    +0.020 A 
ATOM      2  C   UNL     1      41.775 104.400  84.472  0.00  0.00    +0.013 A 
ATOM      3  C   UNL     1      40.757 104.510  85.509  0.00  0.00    +0.019 A 
ATOM     38  C   UNL     1      39.431 104.968  85.122  0.00  0.00    +0.120 A 
ATOM     39  N   UNL     1      39.168 105.288  83.794  0.00  0.00    -0.263 NA
ATOM     40  C   UNL     1      40.140 105.188  82.787  0.00  0.00    +0.111 A 
ENDBRANCH   4   3
ENDBRANCH  10   9
BRANCH  12  13
ATOM     13  N   UNL     1      40.773  99.571  93.017  0.00  0.00    -0.281 N 
ATOM     14  C   UNL     1      42.017  99.581  93.626  0.00  0.00    +0.248 C 
ATOM     30  O   UNL     1      42.730 100.568  93.727  0.00  0.00    -0.270 OA
ATOM     31  H   UNL     1      40.373  98.652  92.828  0.00  0.00    +0.155 HD
BRANCH  14  15
ATOM     15  C   UNL     1      42.552  98.306  94.194  0.00  0.00    +0.037 A 
ATOM     16  C   UNL     1      43.871  98.252  94.831  0.00  0.00    +0.013 A 
ATOM     17  C   UNL     1      44.371  97.006  95.355  0.00  0.00    +0.005 A 
ATOM     18  C   UNL     1      43.550  95.803  95.246  0.00  0.00    -0.033 A 
ATOM     28  C   UNL     1      42.243  95.885  94.614  0.00  0.00    +0.005 A 
ATOM     29  C   UNL     1      41.750  97.105  94.098  0.00  0.00    +0.013 A 
BRANCH  18  19
ATOM     19  C   UNL     1      44.012  94.426  95.759  0.00  0.00    +0.119 C 
BRANCH  19  20
ATOM     20  N   UNL     1      44.520  93.454  94.745  0.00  0.00    -0.302 NA
ATOM     21  C   UNL     1      45.715  94.009  93.965  0.00  0.00    +0.066 C 
ATOM     22  C   UNL     1      46.248  92.971  92.925  0.00  0.00    -0.064 C 
ATOM     23  N   UNL     1      45.116  92.579  91.974  0.00  0.00    +0.379 N 
ATOM     24  C   UNL     1      45.629  91.648  90.959  0.00  0.00    -0.096 C 
ATOM     25  H   UNL     1      44.782  93.503  91.447  0.00  0.00    -0.082 HD
ATOM     26  C   UNL     1      43.923  92.028  92.741  0.00  0.00    -0.064 C 
ATOM     27  C   UNL     1      43.419  93.056  93.792  0.00  0.00    +0.066 C 
ENDBRANCH  19  20
ENDBRANCH  18  19
ENDBRANCH  14  15
ENDBRANCH  12  13
TORSDOF 6
ENDMDL
MODEL 5
REMARK VINA RESULT:      -7.1     18.623     19.854
REMARK  Name = C:\Users\Docking\Desktop\test protocol\1iep_ligandH.pdb
REMARK  8 active torsions:
REMARK  status: ('A' for Active; 'I' for Inactive)
REMARK    1  A    between atoms: _5  and  _11
REMARK    2  A    between atoms: _19  and  _21
REMARK    3  A    between atoms: _22  and  _66
REMARK    4  A    between atoms: _27  and  _30
REMARK    5  A    between atoms: _32  and  _33
REMARK    6  A    between atoms: _38  and  _43
REMARK    7  A    between atoms: _43  and  _46
REMARK    8  A    between atoms: _53  and  _55
REMARK                            x       y       z     vdW  Elec       q    Type
REMARK                         _______ _______ _______ _____ _____    ______ ____
ROOT
ATOM     10  C   UNL     1      39.888 104.014  86.198  0.00  0.00    +0.038 A 
ATOM     11  C   UNL     1      41.159 104.104  85.576  0.00  0.00    +0.047 A 
ATOM     12  C   UNL     1      41.389 105.010  84.461  0.00  0.00    +0.035 A 
ATOM     32  C   UNL     1      40.302 105.812  84.008  0.00  0.00    +0.024 A 
ATOM     33  C   UNL     1      39.002 105.732  84.628  0.00  0.00    +0.007 A 
ATOM     34  C   UNL     1      38.769 104.839  85.726  0.00  0.00    -0.029 A 
ATOM     35  C   UNL     1      37.354 104.790  86.348  0.00  0.00    +0.045 C 
ENDROOT
BRANCH  10   9
ATOM      4  C   UNL     1      40.262 102.863  90.843  0.00  0.00    +0.077 A 
ATOM      5  C   UNL     1      40.860 104.126  91.168  0.00  0.00    +0.048 A 
ATOM      6  C   UNL     1      41.061 105.041  90.110  0.00  0.00    +0.116 A 
ATOM      7  N   UNL     1      40.687 104.707  88.827  0.00  0.00    -0.223 NA
ATOM      8  C   UNL     1      40.114 103.480  88.547  0.00  0.00    +0.220 A 
ATOM      9  N   UNL     1      39.723 103.127  87.264  0.00  0.00    -0.283 N 
ATOM     36  H   UNL     1      39.311 102.209  87.098  0.00  0.00    +0.155 HD
ATOM     37  N   UNL     1      39.913 102.589  89.539  0.00  0.00    -0.214 NA
BRANCH   4   3
ATOM      1  C   UNL     1      40.616  99.730  93.158  0.00  0.00    +0.020 A 
ATOM      2  C   UNL     1      40.936 100.740  92.175  0.00  0.00    +0.013 A 
ATOM      3  C   UNL     1      39.982 101.793  91.852  0.00  0.00    +0.019 A 
ATOM     38  C   UNL     1      38.704 101.797  92.548  0.00  0.00    +0.120 A 
ATOM     39  N   UNL     1      38.423 100.811  93.488  0.00  0.00    -0.263 NA
ATOM     40  C   UNL     1      39.333  99.791  93.806  0.00  0.00    +0.111 A 
ENDBRANCH   4   3
ENDBRANCH  10   9
BRANCH  12  13
ATOM     13  N   UNL     1      42.656 105.139  83.785  0.00  0.00    -0.281 N 
ATOM     14  C   UNL     1      43.615 106.125  83.953  0.00  0.00    +0.248 C 
ATOM     30  O   UNL     1      43.433 107.169  84.561  0.00  0.00    -0.270 OA
ATOM     31  H   UNL     1      42.872 104.415  83.099  0.00  0.00    +0.155 HD
BRANCH  14  15
ATOM     15  C   UNL     1      44.966 105.928  83.346  0.00  0.00    +0.037 A 
ATOM     16  C   UNL     1      45.245 104.793  82.462  0.00  0.00    +0.013 A 
ATOM     17  C   UNL     1      46.562 104.618  81.904  0.00  0.00    +0.005 A 
ATOM     18  C   UNL     1      47.612 105.581  82.228  0.00  0.00    -0.033 A 
ATOM     28  C   UNL     1      47.307 106.700  83.104  0.00  0.00    +0.005 A 
ATOM     29  C   UNL     1      46.017 106.875  83.653  0.00  0.00    +0.013 A 
BRANCH  18  19
ATOM     19  C   UNL     1      49.051 105.460  81.694  0.00  0.00    +0.119 C 
BRANCH  19  20
ATOM     20  N   UNL     1      50.026 106.511  82.114  0.00  0.00    -0.302 NA
ATOM     21  C   UNL     1      50.229 107.573  81.030  0.00  0.00    +0.066 C 
ATOM     22  C   UNL     1      51.235 108.676  81.495  0.00  0.00    -0.064 C 
ATOM     23  N   UNL     1      52.567 108.022  81.869  0.00  0.00    +0.379 N 
ATOM     24  C   UNL     1      53.533 109.062  82.251  0.00  0.00    -0.096 C 
ATOM     25  H   UNL     1      52.961 107.513  80.959  0.00  0.00    -0.082 HD
ATOM     26  C   UNL     1      52.374 106.963  82.945  0.00  0.00    -0.064 C 
ATOM     27  C   UNL     1      51.350 105.888  82.484  0.00  0.00    +0.066 C 
ENDBRANCH  19  20
ENDBRANCH  18  19
ENDBRANCH  14  15
ENDBRANCH  12  13
TORSDOF 6
ENDMDL
