MODEL 1
REMARK VINA RESULT:      -8.2      0.000      0.000
REMARK  Name = C:\Users\Docking\Desktop\test protocol\1iep_ligandH.pdb
REMARK  8 active torsions:
REMARK  status: ('A' for Active; 'I' for Inactive)
REMARK    1  A    between atoms: _5  and  _11
REMARK    2  A    between atoms: _19  and  _21
REMARK    3  A    between atoms: _22  and  _66
REMARK    4  A    between atoms: _27  and  _30
REMARK    5  A    between atoms: _32  and  _33
REMARK    6  A    between atoms: _38  and  _43
REMARK    7  A    between atoms: _43  and  _46
REMARK    8  A    between atoms: _53  and  _55
REMARK                            x       y       z     vdW  Elec       q    Type
REMARK                         _______ _______ _______ _____ _____    ______ ____
ROOT
ATOM     10  C   UNL     1       9.678  25.637   8.726  0.00  0.00    +0.038 A 
ATOM     11  C   UNL     1       8.316  25.977   8.526  0.00  0.00    +0.047 A 
ATOM     12  C   UNL     1       7.892  27.366   8.441  0.00  0.00    +0.035 A 
ATOM     32  C   UNL     1       8.883  28.384   8.562  0.00  0.00    +0.024 A 
ATOM     33  C   UNL     1      10.272  28.055   8.767  0.00  0.00    +0.007 A 
ATOM     34  C   UNL     1      10.695  26.687   8.854  0.00  0.00    -0.029 A 
ATOM     35  C   UNL     1      12.197  26.394   9.081  0.00  0.00    +0.045 C 
ENDROOT
BRANCH  10   9
ATOM      4  C   UNL     1      11.016  21.740  11.188  0.00  0.00    +0.077 A 
ATOM      5  C   UNL     1      11.043  22.460  12.428  0.00  0.00    +0.048 A 
ATOM      6  C   UNL     1      10.714  23.834  12.388  0.00  0.00    +0.116 A 
ATOM      7  N   UNL     1      10.382  24.431  11.192  0.00  0.00    -0.223 NA
ATOM      8  C   UNL     1      10.367  23.708  10.014  0.00  0.00    +0.220 A 
ATOM      9  N   UNL     1      10.029  24.287   8.800  0.00  0.00    -0.283 N 
ATOM     36  H   UNL     1      10.037  23.721   7.952  0.00  0.00    +0.155 HD
ATOM     37  N   UNL     1      10.679  22.396  10.025  0.00  0.00    -0.214 NA
BRANCH   4   3
ATOM      1  C   UNL     1      12.945  18.366  10.746  0.00  0.00    +0.020 A 
ATOM      2  C   UNL     1      12.689  19.784  10.855  0.00  0.00    +0.013 A 
ATOM      3  C   UNL     1      11.336  20.282  11.068  0.00  0.00    +0.019 A 
ATOM     38  C   UNL     1      10.256  19.312  11.167  0.00  0.00    +0.120 A 
ATOM     39  N   UNL     1      10.532  17.953  11.057  0.00  0.00    -0.263 NA
ATOM     40  C   UNL     1      11.830  17.462  10.851  0.00  0.00    +0.111 A 
ENDBRANCH   4   3
ENDBRANCH  10   9
BRANCH  12  13
ATOM     13  N   UNL     1       6.522  27.773   8.247  0.00  0.00    -0.281 N 
ATOM     14  C   UNL     1       5.863  28.002   7.050  0.00  0.00    +0.248 C 
ATOM     30  O   UNL     1       6.416  28.099   5.965  0.00  0.00    -0.270 OA
ATOM     31  H   UNL     1       5.971  27.908   9.095  0.00  0.00    +0.155 HD
BRANCH  14  15
ATOM     15  C   UNL     1       4.377  28.160   7.063  0.00  0.00    +0.037 A 
ATOM     16  C   UNL     1       3.497  27.042   7.411  0.00  0.00    +0.013 A 
ATOM     17  C   UNL     1       2.066  27.216   7.398  0.00  0.00    +0.005 A 
ATOM     18  C   UNL     1       1.506  28.517   7.038  0.00  0.00    -0.033 A 
ATOM     28  C   UNL     1       2.403  29.611   6.702  0.00  0.00    +0.005 A 
ATOM     29  C   UNL     1       3.806  29.443   6.712  0.00  0.00    +0.013 A 
BRANCH  18  19
ATOM     19  C   UNL     1      -0.008  28.788   6.978  0.00  0.00    +0.119 C 
BRANCH  19  20
ATOM     20  N   UNL     1      -0.760  28.756   8.268  0.00  0.00    -0.302 NA
ATOM     21  C   UNL     1       0.038  29.385   9.413  0.00  0.00    +0.066 C 
ATOM     22  C   UNL     1      -0.773  29.364  10.750  0.00  0.00    -0.064 C 
ATOM     23  N   UNL     1      -1.159  27.923  11.086  0.00  0.00    +0.379 N 
ATOM     24  C   UNL     1      -1.871  27.893  12.372  0.00  0.00    -0.096 C 
ATOM     25  H   UNL     1      -0.217  27.340  11.208  0.00  0.00    -0.082 HD
ATOM     26  C   UNL     1      -1.951  27.289   9.951  0.00  0.00    -0.064 C 
ATOM     27  C   UNL     1      -1.148  27.342   8.621  0.00  0.00    +0.066 C 
ENDBRANCH  19  20
ENDBRANCH  18  19
ENDBRANCH  14  15
ENDBRANCH  12  13
TORSDOF 6
ENDMDL
MODEL 2
REMARK VINA RESULT:      -8.2      5.700      8.159
REMARK  Name = C:\Users\Docking\Desktop\test protocol\1iep_ligandH.pdb
REMARK  8 active torsions:
REMARK  status: ('A' for Active; 'I' for Inactive)
REMARK    1  A    between atoms: _5  and  _11
REMARK    2  A    between atoms: _19  and  _21
REMARK    3  A    between atoms: _22  and  _66
REMARK    4  A    between atoms: _27  and  _30
REMARK    5  A    between atoms: _32  and  _33
REMARK    6  A    between atoms: _38  and  _43
REMARK    7  A    between atoms: _43  and  _46
REMARK    8  A    between atoms: _53  and  _55
REMARK                            x       y       z     vdW  Elec       q    Type
REMARK                         _______ _______ _______ _____ _____    ______ ____
ROOT
ATOM     10  C   UNL     1      15.051  23.432   8.255  0.00  0.00    +0.038 A 
ATOM     11  C   UNL     1      13.885  24.220   8.081  0.00  0.00    +0.047 A 
ATOM     12  C   UNL     1      12.619  23.836   8.685  0.00  0.00    +0.035 A 
ATOM     32  C   UNL     1      12.577  22.642   9.464  0.00  0.00    +0.024 A 
ATOM     33  C   UNL     1      13.752  21.828   9.650  0.00  0.00    +0.007 A 
ATOM     34  C   UNL     1      15.003  22.201   9.055  0.00  0.00    -0.029 A 
ATOM     35  C   UNL     1      16.230  21.287   9.283  0.00  0.00    +0.045 C 
ENDROOT
BRANCH  10   9
ATOM      4  C   UNL     1      18.039  23.668   4.507  0.00  0.00    +0.077 A 
ATOM      5  C   UNL     1      17.171  22.872   3.689  0.00  0.00    +0.048 A 
ATOM      6  C   UNL     1      15.968  22.415   4.272  0.00  0.00    +0.116 A 
ATOM      7  N   UNL     1      15.666  22.737   5.578  0.00  0.00    -0.223 NA
ATOM      8  C   UNL     1      16.527  23.506   6.340  0.00  0.00    +0.220 A 
ATOM      9  N   UNL     1      16.240  23.848   7.652  0.00  0.00    -0.283 N 
ATOM     36  H   UNL     1      16.905  24.411   8.183  0.00  0.00    +0.155 HD
ATOM     37  N   UNL     1      17.683  23.953   5.806  0.00  0.00    -0.214 NA
BRANCH   4   3
ATOM      1  C   UNL     1      21.007  26.105   3.763  0.00  0.00    +0.020 A 
ATOM      2  C   UNL     1      19.735  25.615   4.242  0.00  0.00    +0.013 A 
ATOM      3  C   UNL     1      19.344  24.227   4.032  0.00  0.00    +0.019 A 
ATOM     38  C   UNL     1      20.272  23.353   3.329  0.00  0.00    +0.120 A 
ATOM     39  N   UNL     1      21.490  23.853   2.878  0.00  0.00    -0.263 NA
ATOM     40  C   UNL     1      21.875  25.188   3.073  0.00  0.00    +0.111 A 
ENDBRANCH   4   3
ENDBRANCH  10   9
BRANCH  12  13
ATOM     13  N   UNL     1      11.401  24.592   8.536  0.00  0.00    -0.281 N 
ATOM     14  C   UNL     1      11.189  25.931   8.824  0.00  0.00    +0.248 C 
ATOM     30  O   UNL     1      11.963  26.632   9.458  0.00  0.00    -0.270 OA
ATOM     31  H   UNL     1      10.597  24.079   8.175  0.00  0.00    +0.155 HD
BRANCH  14  15
ATOM     15  C   UNL     1       9.928  26.580   8.352  0.00  0.00    +0.037 A 
ATOM     16  C   UNL     1       9.059  27.313   9.276  0.00  0.00    +0.013 A 
ATOM     17  C   UNL     1       7.840  27.916   8.797  0.00  0.00    +0.005 A 
ATOM     18  C   UNL     1       7.484  27.788   7.386  0.00  0.00    -0.033 A 
ATOM     28  C   UNL     1       8.367  27.060   6.490  0.00  0.00    +0.005 A 
ATOM     29  C   UNL     1       9.562  26.467   6.956  0.00  0.00    +0.013 A 
BRANCH  18  19
ATOM     19  C   UNL     1       6.192  28.381   6.792  0.00  0.00    +0.119 C 
BRANCH  19  20
ATOM     20  N   UNL     1       4.898  27.786   7.241  0.00  0.00    -0.302 NA
ATOM     21  C   UNL     1       4.235  26.954   6.139  0.00  0.00    +0.066 C 
ATOM     22  C   UNL     1       2.894  26.321   6.633  0.00  0.00    -0.064 C 
ATOM     23  N   UNL     1       1.956  27.430   7.113  0.00  0.00    +0.379 N 
ATOM     24  C   UNL     1       0.672  26.843   7.524  0.00  0.00    -0.096 C 
ATOM     25  H   UNL     1       1.758  28.104   6.247  0.00  0.00    -0.082 HD
ATOM     26  C   UNL     1       2.608  28.264   8.207  0.00  0.00    -0.064 C 
ATOM     27  C   UNL     1       3.955  28.864   7.715  0.00  0.00    +0.066 C 
ENDBRANCH  19  20
ENDBRANCH  18  19
ENDBRANCH  14  15
ENDBRANCH  12  13
TORSDOF 6
ENDMDL
MODEL 3
REMARK VINA RESULT:      -8.1     13.861     18.876
REMARK  Name = C:\Users\Docking\Desktop\test protocol\1iep_ligandH.pdb
REMARK  8 active torsions:
REMARK  status: ('A' for Active; 'I' for Inactive)
REMARK    1  A    between atoms: _5  and  _11
REMARK    2  A    between atoms: _19  and  _21
REMARK    3  A    between atoms: _22  and  _66
REMARK    4  A    between atoms: _27  and  _30
REMARK    5  A    between atoms: _32  and  _33
REMARK    6  A    between atoms: _38  and  _43
REMARK    7  A    between atoms: _43  and  _46
REMARK    8  A    between atoms: _53  and  _55
REMARK                            x       y       z     vdW  Elec       q    Type
REMARK                         _______ _______ _______ _____ _____    ______ ____
ROOT
ATOM     10  C   UNL     1      19.863  27.380   1.739  0.00  0.00    +0.038 A 
ATOM     11  C   UNL     1      20.480  28.587   2.157  0.00  0.00    +0.047 A 
ATOM     12  C   UNL     1      21.108  29.483   1.198  0.00  0.00    +0.035 A 
ATOM     32  C   UNL     1      21.086  29.120  -0.180  0.00  0.00    +0.024 A 
ATOM     33  C   UNL     1      20.464  27.897  -0.622  0.00  0.00    +0.007 A 
ATOM     34  C   UNL     1      19.846  27.008   0.319  0.00  0.00    -0.029 A 
ATOM     35  C   UNL     1      19.200  25.707  -0.211  0.00  0.00    +0.045 C 
ENDROOT
BRANCH  10   9
ATOM      4  C   UNL     1      20.081  23.889   5.026  0.00  0.00    +0.077 A 
ATOM      5  C   UNL     1      21.478  23.668   4.784  0.00  0.00    +0.048 A 
ATOM      6  C   UNL     1      22.101  24.469   3.801  0.00  0.00    +0.116 A 
ATOM      7  N   UNL     1      21.372  25.417   3.117  0.00  0.00    -0.223 NA
ATOM      8  C   UNL     1      20.026  25.604   3.373  0.00  0.00    +0.220 A 
ATOM      9  N   UNL     1      19.276  26.557   2.702  0.00  0.00    -0.283 N 
ATOM     36  H   UNL     1      18.283  26.659   2.915  0.00  0.00    +0.155 HD
ATOM     37  N   UNL     1      19.407  24.851   4.306  0.00  0.00    -0.214 NA
BRANCH   4   3
ATOM      1  C   UNL     1      19.056  21.424   7.884  0.00  0.00    +0.020 A 
ATOM      2  C   UNL     1      19.872  22.134   6.927  0.00  0.00    +0.013 A 
ATOM      3  C   UNL     1      19.282  23.125   6.035  0.00  0.00    +0.019 A 
ATOM     38  C   UNL     1      17.853  23.377   6.140  0.00  0.00    +0.120 A 
ATOM     39  N   UNL     1      17.092  22.676   7.071  0.00  0.00    -0.263 NA
ATOM     40  C   UNL     1      17.648  21.719   7.933  0.00  0.00    +0.111 A 
ENDBRANCH   4   3
ENDBRANCH  10   9
BRANCH  12  13
ATOM     13  N   UNL     1      21.757  30.717   1.565  0.00  0.00    -0.281 N 
ATOM     14  C   UNL     1      22.510  30.979   2.698  0.00  0.00    +0.248 C 
ATOM     30  O   UNL     1      22.563  30.250   3.677  0.00  0.00    -0.270 OA
ATOM     31  H   UNL     1      21.647  31.492   0.911  0.00  0.00    +0.155 HD
BRANCH  14  15
ATOM     15  C   UNL     1      23.310  32.241   2.757  0.00  0.00    +0.037 A 
ATOM     16  C   UNL     1      23.812  32.880   1.538  0.00  0.00    +0.013 A 
ATOM     17  C   UNL     1      24.595  34.087   1.625  0.00  0.00    +0.005 A 
ATOM     18  C   UNL     1      24.879  34.664   2.937  0.00  0.00    -0.033 A 
ATOM     28  C   UNL     1      24.364  34.012   4.129  0.00  0.00    +0.005 A 
ATOM     29  C   UNL     1      23.597  32.828   4.048  0.00  0.00    +0.013 A 
BRANCH  18  19
ATOM     19  C   UNL     1      25.724  35.938   3.125  0.00  0.00    +0.119 C 
BRANCH  19  20
ATOM     20  N   UNL     1      25.158  37.011   3.995  0.00  0.00    -0.302 NA
ATOM     21  C   UNL     1      25.154  38.374   3.298  0.00  0.00    +0.066 C 
ATOM     22  C   UNL     1      24.538  39.481   4.214  0.00  0.00    -0.064 C 
ATOM     23  N   UNL     1      25.322  39.547   5.526  0.00  0.00    +0.379 N 
ATOM     24  C   UNL     1      24.781  40.626   6.367  0.00  0.00    -0.096 C 
ATOM     25  H   UNL     1      26.376  39.808   5.278  0.00  0.00    -0.082 HD
ATOM     26  C   UNL     1      25.333  38.195   6.226  0.00  0.00    -0.064 C 
ATOM     27  C   UNL     1      25.920  37.097   5.295  0.00  0.00    +0.066 C 
ENDBRANCH  19  20
ENDBRANCH  18  19
ENDBRANCH  14  15
ENDBRANCH  12  13
TORSDOF 6
ENDMDL
MODEL 4
REMARK VINA RESULT:      -8.0      7.190     14.545
REMARK  Name = C:\Users\Docking\Desktop\test protocol\1iep_ligandH.pdb
REMARK  8 active torsions:
REMARK  status: ('A' for Active; 'I' for Inactive)
REMARK    1  A    between atoms: _5  and  _11
REMARK    2  A    between atoms: _19  and  _21
REMARK    3  A    between atoms: _22  and  _66
REMARK    4  A    between atoms: _27  and  _30
REMARK    5  A    between atoms: _32  and  _33
REMARK    6  A    between atoms: _38  and  _43
REMARK    7  A    between atoms: _43  and  _46
REMARK    8  A    between atoms: _53  and  _55
REMARK                            x       y       z     vdW  Elec       q    Type
REMARK                         _______ _______ _______ _____ _____    ______ ____
ROOT
ATOM     10  C   UNL     1      12.389  23.172   8.671  0.00  0.00    +0.038 A 
ATOM     11  C   UNL     1      13.609  23.459   8.009  0.00  0.00    +0.047 A 
ATOM     12  C   UNL     1      14.880  22.979   8.531  0.00  0.00    +0.035 A 
ATOM     32  C   UNL     1      14.869  22.207   9.729  0.00  0.00    +0.024 A 
ATOM     33  C   UNL     1      13.637  21.907  10.415  0.00  0.00    +0.007 A 
ATOM     34  C   UNL     1      12.382  22.379   9.906  0.00  0.00    -0.029 A 
ATOM     35  C   UNL     1      11.093  22.032  10.687  0.00  0.00    +0.045 C 
ENDROOT
BRANCH  10   9
ATOM      4  C   UNL     1       9.213  26.685   7.891  0.00  0.00    +0.077 A 
ATOM      5  C   UNL     1       9.977  27.627   8.658  0.00  0.00    +0.048 A 
ATOM      6  C   UNL     1      11.178  27.165   9.242  0.00  0.00    +0.116 A 
ATOM      7  N   UNL     1      11.575  25.857   9.066  0.00  0.00    -0.223 NA
ATOM      8  C   UNL     1      10.814  24.975   8.322  0.00  0.00    +0.220 A 
ATOM      9  N   UNL     1      11.198  23.657   8.125  0.00  0.00    -0.283 N 
ATOM     36  H   UNL     1      10.605  23.036   7.575  0.00  0.00    +0.155 HD
ATOM     37  N   UNL     1       9.663  25.391   7.754  0.00  0.00    -0.214 NA
BRANCH   4   3
ATOM      1  C   UNL     1       5.524  27.800   7.221  0.00  0.00    +0.020 A 
ATOM      2  C   UNL     1       6.744  27.486   7.928  0.00  0.00    +0.013 A 
ATOM      3  C   UNL     1       7.924  27.023   7.208  0.00  0.00    +0.019 A 
ATOM     38  C   UNL     1       7.836  26.888   5.762  0.00  0.00    +0.120 A 
ATOM     39  N   UNL     1       6.646  27.196   5.108  0.00  0.00    -0.263 NA
ATOM     40  C   UNL     1       5.504  27.641   5.791  0.00  0.00    +0.111 A 
ENDBRANCH   4   3
ENDBRANCH  10   9
BRANCH  12  13
ATOM     13  N   UNL     1      16.152  23.246   7.906  0.00  0.00    -0.281 N 
ATOM     14  C   UNL     1      16.856  22.439   7.028  0.00  0.00    +0.248 C 
ATOM     30  O   UNL     1      16.597  21.264   6.812  0.00  0.00    -0.270 OA
ATOM     31  H   UNL     1      16.586  24.139   8.140  0.00  0.00    +0.155 HD
BRANCH  14  15
ATOM     15  C   UNL     1      18.024  23.015   6.296  0.00  0.00    +0.037 A 
ATOM     16  C   UNL     1      19.380  22.500   6.504  0.00  0.00    +0.013 A 
ATOM     17  C   UNL     1      20.492  23.085   5.797  0.00  0.00    +0.005 A 
ATOM     18  C   UNL     1      20.251  24.192   4.874  0.00  0.00    -0.033 A 
ATOM     28  C   UNL     1      18.895  24.679   4.683  0.00  0.00    +0.005 A 
ATOM     29  C   UNL     1      17.803  24.109   5.374  0.00  0.00    +0.013 A 
BRANCH  18  19
ATOM     19  C   UNL     1      21.381  24.891   4.094  0.00  0.00    +0.119 C 
BRANCH  19  20
ATOM     20  N   UNL     1      20.982  25.765   2.951  0.00  0.00    -0.302 NA
ATOM     21  C   UNL     1      21.965  25.664   1.781  0.00  0.00    +0.066 C 
ATOM     22  C   UNL     1      21.520  26.568   0.585  0.00  0.00    -0.064 C 
ATOM     23  N   UNL     1      21.395  28.016   1.063  0.00  0.00    +0.379 N 
ATOM     24  C   UNL     1      21.033  28.877  -0.072  0.00  0.00    -0.096 C 
ATOM     25  H   UNL     1      22.397  28.339   1.428  0.00  0.00    -0.082 HD
ATOM     26  C   UNL     1      20.421  28.125   2.228  0.00  0.00    -0.064 C 
ATOM     27  C   UNL     1      20.856  27.200   3.399  0.00  0.00    +0.066 C 
ENDBRANCH  19  20
ENDBRANCH  18  19
ENDBRANCH  14  15
ENDBRANCH  12  13
TORSDOF 6
ENDMDL
MODEL 5
REMARK VINA RESULT:      -7.8      9.799     14.292
REMARK  Name = C:\Users\Docking\Desktop\test protocol\1iep_ligandH.pdb
REMARK  8 active torsions:
REMARK  status: ('A' for Active; 'I' for Inactive)
REMARK    1  A    between atoms: _5  and  _11
REMARK    2  A    between atoms: _19  and  _21
REMARK    3  A    between atoms: _22  and  _66
REMARK    4  A    between atoms: _27  and  _30
REMARK    5  A    between atoms: _32  and  _33
REMARK    6  A    between atoms: _38  and  _43
REMARK    7  A    between atoms: _43  and  _46
REMARK    8  A    between atoms: _53  and  _55
REMARK                            x       y       z     vdW  Elec       q    Type
REMARK                         _______ _______ _______ _____ _____    ______ ____
ROOT
ATOM     10  C   UNL     1      20.590  25.444   3.670  0.00  0.00    +0.038 A 
ATOM     11  C   UNL     1      19.376  25.237   4.374  0.00  0.00    +0.047 A 
ATOM     12  C   UNL     1      18.677  23.963   4.309  0.00  0.00    +0.035 A 
ATOM     32  C   UNL     1      19.244  22.920   3.520  0.00  0.00    +0.024 A 
ATOM     33  C   UNL     1      20.476  23.114   2.797  0.00  0.00    +0.007 A 
ATOM     34  C   UNL     1      21.169  24.369   2.855  0.00  0.00    -0.029 A 
ATOM     35  C   UNL     1      22.483  24.522   2.054  0.00  0.00    +0.045 C 
ENDROOT
BRANCH  10   9
ATOM      4  C   UNL     1      21.742  29.755   1.902  0.00  0.00    +0.077 A 
ATOM      5  C   UNL     1      21.054  29.499   0.669  0.00  0.00    +0.048 A 
ATOM      6  C   UNL     1      20.423  28.243   0.527  0.00  0.00    +0.116 A 
ATOM      7  N   UNL     1      20.481  27.320   1.549  0.00  0.00    -0.223 NA
ATOM      8  C   UNL     1      21.154  27.598   2.724  0.00  0.00    +0.220 A 
ATOM      9  N   UNL     1      21.219  26.687   3.767  0.00  0.00    -0.283 N 
ATOM     36  H   UNL     1      21.732  26.927   4.615  0.00  0.00    +0.155 HD
ATOM     37  N   UNL     1      21.766  28.790   2.884  0.00  0.00    -0.214 NA
BRANCH   4   3
ATOM      1  C   UNL     1      23.026  32.976   3.713  0.00  0.00    +0.020 A 
ATOM      2  C   UNL     1      22.315  31.741   3.472  0.00  0.00    +0.013 A 
ATOM      3  C   UNL     1      22.454  31.037   2.204  0.00  0.00    +0.019 A 
ATOM     38  C   UNL     1      23.329  31.612   1.193  0.00  0.00    +0.120 A 
ATOM     39  N   UNL     1      24.000  32.803   1.452  0.00  0.00    -0.263 NA
ATOM     40  C   UNL     1      23.872  33.491   2.669  0.00  0.00    +0.111 A 
ENDBRANCH   4   3
ENDBRANCH  10   9
BRANCH  12  13
ATOM     13  N   UNL     1      17.437  23.697   4.996  0.00  0.00    -0.281 N 
ATOM     14  C   UNL     1      17.259  23.081   6.224  0.00  0.00    +0.248 C 
ATOM     30  O   UNL     1      18.131  22.471   6.824  0.00  0.00    -0.270 OA
ATOM     31  H   UNL     1      16.588  24.000   4.519  0.00  0.00    +0.155 HD
BRANCH  14  15
ATOM     15  C   UNL     1      15.913  23.140   6.873  0.00  0.00    +0.037 A 
ATOM     16  C   UNL     1      15.755  22.933   8.314  0.00  0.00    +0.013 A 
ATOM     17  C   UNL     1      14.444  22.978   8.912  0.00  0.00    +0.005 A 
ATOM     18  C   UNL     1      13.280  23.233   8.067  0.00  0.00    -0.033 A 
ATOM     28  C   UNL     1      13.466  23.441   6.640  0.00  0.00    +0.005 A 
ATOM     29  C   UNL     1      14.750  23.396   6.051  0.00  0.00    +0.013 A 
BRANCH  18  19
ATOM     19  C   UNL     1      11.842  23.278   8.615  0.00  0.00    +0.119 C 
BRANCH  19  20
ATOM     20  N   UNL     1      11.073  24.542   8.417  0.00  0.00    -0.302 NA
ATOM     21  C   UNL     1      11.718  25.727   9.142  0.00  0.00    +0.066 C 
ATOM     22  C   UNL     1      10.913  27.046   8.905  0.00  0.00    -0.064 C 
ATOM     23  N   UNL     1       9.469  26.849   9.368  0.00  0.00    +0.379 N 
ATOM     24  C   UNL     1       8.724  28.106   9.200  0.00  0.00    -0.096 C 
ATOM     25  H   UNL     1       9.492  26.613  10.457  0.00  0.00    -0.082 HD
ATOM     26  C   UNL     1       8.821  25.672   8.653  0.00  0.00    -0.064 C 
ATOM     27  C   UNL     1       9.644  24.372   8.871  0.00  0.00    +0.066 C 
ENDBRANCH  19  20
ENDBRANCH  18  19
ENDBRANCH  14  15
ENDBRANCH  12  13
TORSDOF 6
ENDMDL
