MODEL 1
REMARK VINA RESULT:      -8.1      0.000      0.000
REMARK  Name = C:\Users\Docking\Desktop\test protocol\1iep_ligandH.pdb
REMARK  8 active torsions:
REMARK  status: ('A' for Active; 'I' for Inactive)
REMARK    1  A    between atoms: _5  and  _11
REMARK    2  A    between atoms: _19  and  _21
REMARK    3  A    between atoms: _22  and  _66
REMARK    4  A    between atoms: _27  and  _30
REMARK    5  A    between atoms: _32  and  _33
REMARK    6  A    between atoms: _38  and  _43
REMARK    7  A    between atoms: _43  and  _46
REMARK    8  A    between atoms: _53  and  _55
REMARK                            x       y       z     vdW  Elec       q    Type
REMARK                         _______ _______ _______ _____ _____    ______ ____
ROOT
ATOM     10  C   UNL     1      15.038   5.615   2.173  0.00  0.00    +0.038 A 
ATOM     11  C   UNL     1      14.213   4.564   2.647  0.00  0.00    +0.047 A 
ATOM     12  C   UNL     1      14.586   3.784   3.817  0.00  0.00    +0.035 A 
ATOM     32  C   UNL     1      15.805   4.104   4.482  0.00  0.00    +0.024 A 
ATOM     33  C   UNL     1      16.657   5.169   4.013  0.00  0.00    +0.007 A 
ATOM     34  C   UNL     1      16.296   5.940   2.858  0.00  0.00    -0.029 A 
ATOM     35  C   UNL     1      17.250   7.065   2.395  0.00  0.00    +0.045 C 
ENDROOT
BRANCH  10   9
ATOM      4  C   UNL     1      14.969   6.364  -2.567  0.00  0.00    +0.077 A 
ATOM      5  C   UNL     1      15.838   5.250  -2.816  0.00  0.00    +0.048 A 
ATOM      6  C   UNL     1      16.286   4.515  -1.696  0.00  0.00    +0.116 A 
ATOM      7  N   UNL     1      15.888   4.875  -0.427  0.00  0.00    -0.223 NA
ATOM      8  C   UNL     1      15.051   5.956  -0.222  0.00  0.00    +0.220 A 
ATOM      9  N   UNL     1      14.632   6.332   1.045  0.00  0.00    -0.283 N 
ATOM     36  H   UNL     1      14.020   7.140   1.155  0.00  0.00    +0.155 HD
ATOM     37  N   UNL     1      14.610   6.676  -1.275  0.00  0.00    -0.214 NA
BRANCH   4   3
ATOM      1  C   UNL     1      13.281   9.341  -4.462  0.00  0.00    +0.020 A 
ATOM      2  C   UNL     1      13.807   8.537  -3.383  0.00  0.00    +0.013 A 
ATOM      3  C   UNL     1      14.409   7.237  -3.648  0.00  0.00    +0.019 A 
ATOM     38  C   UNL     1      14.465   6.775  -5.027  0.00  0.00    +0.120 A 
ATOM     39  N   UNL     1      13.949   7.570  -6.045  0.00  0.00    -0.263 NA
ATOM     40  C   UNL     1      13.366   8.823  -5.802  0.00  0.00    +0.111 A 
ENDBRANCH   4   3
ENDBRANCH  10   9
BRANCH  12  13
ATOM     13  N   UNL     1      13.792   2.700   4.340  0.00  0.00    -0.281 N 
ATOM     14  C   UNL     1      13.176   2.616   5.578  0.00  0.00    +0.248 C 
ATOM     30  O   UNL     1      13.393   3.374   6.511  0.00  0.00    -0.270 OA
ATOM     31  H   UNL     1      13.669   1.897   3.723  0.00  0.00    +0.155 HD
BRANCH  14  15
ATOM     15  C   UNL     1      12.186   1.522   5.819  0.00  0.00    +0.037 A 
ATOM     16  C   UNL     1      11.658   0.718   4.714  0.00  0.00    +0.013 A 
ATOM     17  C   UNL     1      10.691  -0.320   4.972  0.00  0.00    +0.005 A 
ATOM     18  C   UNL     1      10.248  -0.561   6.343  0.00  0.00    -0.033 A 
ATOM     28  C   UNL     1      10.793   0.248   7.421  0.00  0.00    +0.005 A 
ATOM     29  C   UNL     1      11.739   1.267   7.172  0.00  0.00    +0.013 A 
BRANCH  18  19
ATOM     19  C   UNL     1       9.204  -1.633   6.709  0.00  0.00    +0.119 C 
BRANCH  19  20
ATOM     20  N   UNL     1       7.767  -1.290   6.491  0.00  0.00    -0.302 NA
ATOM     21  C   UNL     1       7.311  -1.605   5.063  0.00  0.00    +0.066 C 
ATOM     22  C   UNL     1       5.800  -1.261   4.860  0.00  0.00    -0.064 C 
ATOM     23  N   UNL     1       5.566   0.214   5.191  0.00  0.00    +0.379 N 
ATOM     24  C   UNL     1       4.157   0.554   4.945  0.00  0.00    -0.096 C 
ATOM     25  H   UNL     1       6.187   0.820   4.491  0.00  0.00    -0.082 HD
ATOM     26  C   UNL     1       6.019   0.536   6.608  0.00  0.00    -0.064 C 
ATOM     27  C   UNL     1       7.514   0.163   6.808  0.00  0.00    +0.066 C 
ENDBRANCH  19  20
ENDBRANCH  18  19
ENDBRANCH  14  15
ENDBRANCH  12  13
TORSDOF 6
ENDMDL
MODEL 2
REMARK VINA RESULT:      -7.6      4.679     14.050
REMARK  Name = C:\Users\Docking\Desktop\test protocol\1iep_ligandH.pdb
REMARK  8 active torsions:
REMARK  status: ('A' for Active; 'I' for Inactive)
REMARK    1  A    between atoms: _5  and  _11
REMARK    2  A    between atoms: _19  and  _21
REMARK    3  A    between atoms: _22  and  _66
REMARK    4  A    between atoms: _27  and  _30
REMARK    5  A    between atoms: _32  and  _33
REMARK    6  A    between atoms: _38  and  _43
REMARK    7  A    between atoms: _43  and  _46
REMARK    8  A    between atoms: _53  and  _55
REMARK                            x       y       z     vdW  Elec       q    Type
REMARK                         _______ _______ _______ _____ _____    ______ ____
ROOT
ATOM     10  C   UNL     1       9.523   0.522   7.940  0.00  0.00    +0.038 A 
ATOM     11  C   UNL     1      10.530   1.504   7.754  0.00  0.00    +0.047 A 
ATOM     12  C   UNL     1      10.994   1.863   6.423  0.00  0.00    +0.035 A 
ATOM     32  C   UNL     1      10.408   1.204   5.303  0.00  0.00    +0.024 A 
ATOM     33  C   UNL     1       9.384   0.203   5.474  0.00  0.00    +0.007 A 
ATOM     34  C   UNL     1       8.924  -0.157   6.785  0.00  0.00    -0.029 A 
ATOM     35  C   UNL     1       7.829  -1.241   6.909  0.00  0.00    +0.045 C 
ENDROOT
BRANCH  10   9
ATOM      4  C   UNL     1       6.607   1.102  11.708  0.00  0.00    +0.077 A 
ATOM      5  C   UNL     1       5.848   2.119  11.039  0.00  0.00    +0.048 A 
ATOM      6  C   UNL     1       6.245   2.469   9.729  0.00  0.00    +0.116 A 
ATOM      7  N   UNL     1       7.322   1.842   9.142  0.00  0.00    -0.223 NA
ATOM      8  C   UNL     1       8.034   0.866   9.815  0.00  0.00    +0.220 A 
ATOM      9  N   UNL     1       9.115   0.217   9.241  0.00  0.00    -0.283 N 
ATOM     36  H   UNL     1       9.619  -0.492   9.774  0.00  0.00    +0.155 HD
ATOM     37  N   UNL     1       7.676   0.515  11.068  0.00  0.00    -0.214 NA
BRANCH   4   3
ATOM      1  C   UNL     1       5.621   0.997  15.492  0.00  0.00    +0.020 A 
ATOM      2  C   UNL     1       5.897   1.513  14.171  0.00  0.00    +0.013 A 
ATOM      3  C   UNL     1       6.309   0.621  13.094  0.00  0.00    +0.019 A 
ATOM     38  C   UNL     1       6.432  -0.798  13.390  0.00  0.00    +0.120 A 
ATOM     39  N   UNL     1       6.161  -1.266  14.672  0.00  0.00    -0.263 NA
ATOM     40  C   UNL     1       5.765  -0.417  15.716  0.00  0.00    +0.111 A 
ENDBRANCH   4   3
ENDBRANCH  10   9
BRANCH  12  13
ATOM     13  N   UNL     1      12.019   2.845   6.172  0.00  0.00    -0.281 N 
ATOM     14  C   UNL     1      13.297   2.637   5.680  0.00  0.00    +0.248 C 
ATOM     30  O   UNL     1      13.829   1.541   5.581  0.00  0.00    -0.270 OA
ATOM     31  H   UNL     1      11.772   3.812   6.384  0.00  0.00    +0.155 HD
BRANCH  14  15
ATOM     15  C   UNL     1      14.106   3.817   5.249  0.00  0.00    +0.037 A 
ATOM     16  C   UNL     1      14.956   4.542   6.197  0.00  0.00    +0.013 A 
ATOM     17  C   UNL     1      15.714   5.688   5.759  0.00  0.00    +0.005 A 
ATOM     18  C   UNL     1      15.625   6.114   4.364  0.00  0.00    -0.033 A 
ATOM     28  C   UNL     1      14.778   5.374   3.444  0.00  0.00    +0.005 A 
ATOM     29  C   UNL     1      14.033   4.251   3.870  0.00  0.00    +0.013 A 
BRANCH  18  19
ATOM     19  C   UNL     1      16.381   7.338   3.814  0.00  0.00    +0.119 C 
BRANCH  19  20
ATOM     20  N   UNL     1      17.844   7.425   4.104  0.00  0.00    -0.302 NA
ATOM     21  C   UNL     1      18.449   8.744   3.615  0.00  0.00    +0.066 C 
ATOM     22  C   UNL     1      19.975   8.827   3.947  0.00  0.00    -0.064 C 
ATOM     23  N   UNL     1      20.696   7.634   3.318  0.00  0.00    +0.379 N 
ATOM     24  C   UNL     1      22.139   7.741   3.579  0.00  0.00    -0.096 C 
ATOM     25  H   UNL     1      20.547   7.691   2.215  0.00  0.00    -0.082 HD
ATOM     26  C   UNL     1      20.099   6.318   3.797  0.00  0.00    -0.064 C 
ATOM     27  C   UNL     1      18.577   6.258   3.489  0.00  0.00    +0.066 C 
ENDBRANCH  19  20
ENDBRANCH  18  19
ENDBRANCH  14  15
ENDBRANCH  12  13
TORSDOF 6
ENDMDL
MODEL 3
REMARK VINA RESULT:      -7.6      4.611     13.634
REMARK  Name = C:\Users\Docking\Desktop\test protocol\1iep_ligandH.pdb
REMARK  8 active torsions:
REMARK  status: ('A' for Active; 'I' for Inactive)
REMARK    1  A    between atoms: _5  and  _11
REMARK    2  A    between atoms: _19  and  _21
REMARK    3  A    between atoms: _22  and  _66
REMARK    4  A    between atoms: _27  and  _30
REMARK    5  A    between atoms: _32  and  _33
REMARK    6  A    between atoms: _38  and  _43
REMARK    7  A    between atoms: _43  and  _46
REMARK    8  A    between atoms: _53  and  _55
REMARK                            x       y       z     vdW  Elec       q    Type
REMARK                         _______ _______ _______ _____ _____    ______ ____
ROOT
ATOM     10  C   UNL     1      10.844   0.146   7.403  0.00  0.00    +0.038 A 
ATOM     11  C   UNL     1      11.482   1.362   7.051  0.00  0.00    +0.047 A 
ATOM     12  C   UNL     1      12.082   1.545   5.738  0.00  0.00    +0.035 A 
ATOM     32  C   UNL     1      12.011   0.468   4.807  0.00  0.00    +0.024 A 
ATOM     33  C   UNL     1      11.367  -0.776   5.149  0.00  0.00    +0.007 A 
ATOM     34  C   UNL     1      10.776  -0.963   6.443  0.00  0.00    -0.029 A 
ATOM     35  C   UNL     1      10.105  -2.320   6.757  0.00  0.00    +0.045 C 
ENDROOT
BRANCH  10   9
ATOM      4  C   UNL     1       7.157   0.484  10.457  0.00  0.00    +0.077 A 
ATOM      5  C   UNL     1       6.277   0.969   9.433  0.00  0.00    +0.048 A 
ATOM      6  C   UNL     1       6.814   1.124   8.135  0.00  0.00    +0.116 A 
ATOM      7  N   UNL     1       8.134   0.814   7.891  0.00  0.00    -0.223 NA
ATOM      8  C   UNL     1       8.957   0.350   8.902  0.00  0.00    +0.220 A 
ATOM      9  N   UNL     1      10.285   0.024   8.677  0.00  0.00    -0.283 N 
ATOM     36  H   UNL     1      10.861  -0.307   9.451  0.00  0.00    +0.155 HD
ATOM     37  N   UNL     1       8.468   0.195  10.150  0.00  0.00    -0.214 NA
BRANCH   4   3
ATOM      1  C   UNL     1       6.008   1.091  14.146  0.00  0.00    +0.020 A 
ATOM      2  C   UNL     1       6.409   1.357  12.784  0.00  0.00    +0.013 A 
ATOM      3  C   UNL     1       6.737   0.265  11.877  0.00  0.00    +0.019 A 
ATOM     38  C   UNL     1       6.647  -1.097  12.383  0.00  0.00    +0.120 A 
ATOM     39  N   UNL     1       6.259  -1.323  13.700  0.00  0.00    -0.263 NA
ATOM     40  C   UNL     1       5.943  -0.279  14.583  0.00  0.00    +0.111 A 
ENDBRANCH   4   3
ENDBRANCH  10   9
BRANCH  12  13
ATOM     13  N   UNL     1      12.750   2.755   5.327  0.00  0.00    -0.281 N 
ATOM     14  C   UNL     1      13.392   3.687   6.126  0.00  0.00    +0.248 C 
ATOM     30  O   UNL     1      13.304   3.731   7.344  0.00  0.00    -0.270 OA
ATOM     31  H   UNL     1      12.750   2.948   4.325  0.00  0.00    +0.155 HD
BRANCH  14  15
ATOM     15  C   UNL     1      14.244   4.730   5.477  0.00  0.00    +0.037 A 
ATOM     16  C   UNL     1      14.231   4.926   4.025  0.00  0.00    +0.013 A 
ATOM     17  C   UNL     1      15.075   5.928   3.423  0.00  0.00    +0.005 A 
ATOM     18  C   UNL     1      15.938   6.743   4.275  0.00  0.00    -0.033 A 
ATOM     28  C   UNL     1      15.927   6.531   5.713  0.00  0.00    +0.005 A 
ATOM     29  C   UNL     1      15.102   5.549   6.306  0.00  0.00    +0.013 A 
BRANCH  18  19
ATOM     19  C   UNL     1      16.886   7.820   3.717  0.00  0.00    +0.119 C 
BRANCH  19  20
ATOM     20  N   UNL     1      18.349   7.633   3.953  0.00  0.00    -0.302 NA
ATOM     21  C   UNL     1      19.096   8.968   4.021  0.00  0.00    +0.066 C 
ATOM     22  C   UNL     1      20.621   8.754   4.292  0.00  0.00    -0.064 C 
ATOM     23  N   UNL     1      21.209   7.859   3.199  0.00  0.00    +0.379 N 
ATOM     24  C   UNL     1      22.654   7.704   3.418  0.00  0.00    -0.096 C 
ATOM     25  H   UNL     1      21.069   8.381   2.224  0.00  0.00    -0.082 HD
ATOM     26  C   UNL     1      20.470   6.531   3.123  0.00  0.00    -0.064 C 
ATOM     27  C   UNL     1      18.951   6.756   2.883  0.00  0.00    +0.066 C 
ENDBRANCH  19  20
ENDBRANCH  18  19
ENDBRANCH  14  15
ENDBRANCH  12  13
TORSDOF 6
ENDMDL
MODEL 4
REMARK VINA RESULT:      -7.6     12.202     13.338
REMARK  Name = C:\Users\Docking\Desktop\test protocol\1iep_ligandH.pdb
REMARK  8 active torsions:
REMARK  status: ('A' for Active; 'I' for Inactive)
REMARK    1  A    between atoms: _5  and  _11
REMARK    2  A    between atoms: _19  and  _21
REMARK    3  A    between atoms: _22  and  _66
REMARK    4  A    between atoms: _27  and  _30
REMARK    5  A    between atoms: _32  and  _33
REMARK    6  A    between atoms: _38  and  _43
REMARK    7  A    between atoms: _43  and  _46
REMARK    8  A    between atoms: _53  and  _55
REMARK                            x       y       z     vdW  Elec       q    Type
REMARK                         _______ _______ _______ _____ _____    ______ ____
ROOT
ATOM     10  C   UNL     1      16.077  16.804   4.835  0.00  0.00    +0.038 A 
ATOM     11  C   UNL     1      14.777  16.405   5.236  0.00  0.00    +0.047 A 
ATOM     12  C   UNL     1      14.274  16.706   6.568  0.00  0.00    +0.035 A 
ATOM     32  C   UNL     1      15.123  17.418   7.465  0.00  0.00    +0.024 A 
ATOM     33  C   UNL     1      16.449  17.830   7.074  0.00  0.00    +0.007 A 
ATOM     34  C   UNL     1      16.950  17.533   5.763  0.00  0.00    -0.029 A 
ATOM     35  C   UNL     1      18.382  17.993   5.400  0.00  0.00    +0.045 C 
ENDROOT
BRANCH  10   9
ATOM      4  C   UNL     1      16.062  17.480   0.083  0.00  0.00    +0.077 A 
ATOM      5  C   UNL     1      15.092  18.533   0.177  0.00  0.00    +0.048 A 
ATOM      6  C   UNL     1      14.618  18.865   1.466  0.00  0.00    +0.116 A 
ATOM      7  N   UNL     1      15.085  18.189   2.571  0.00  0.00    -0.223 NA
ATOM      8  C   UNL     1      16.019  17.177   2.446  0.00  0.00    +0.220 A 
ATOM      9  N   UNL     1      16.509  16.488   3.545  0.00  0.00    -0.283 N 
ATOM     36  H   UNL     1      17.192  15.743   3.409  0.00  0.00    +0.155 HD
ATOM     37  N   UNL     1      16.487  16.839   1.226  0.00  0.00    -0.214 NA
BRANCH   4   3
ATOM      1  C   UNL     1      17.975  15.374  -2.601  0.00  0.00    +0.020 A 
ATOM      2  C   UNL     1      17.418  15.776  -1.330  0.00  0.00    +0.013 A 
ATOM      3  C   UNL     1      16.661  17.016  -1.208  0.00  0.00    +0.019 A 
ATOM     38  C   UNL     1      16.484  17.831  -2.400  0.00  0.00    +0.120 A 
ATOM     39  N   UNL     1      17.033  17.418  -3.610  0.00  0.00    -0.263 NA
ATOM     40  C   UNL     1      17.765  16.228  -3.739  0.00  0.00    +0.111 A 
ENDBRANCH   4   3
ENDBRANCH  10   9
BRANCH  12  13
ATOM     13  N   UNL     1      12.966  16.320   7.034  0.00  0.00    -0.281 N 
ATOM     14  C   UNL     1      12.637  15.270   7.876  0.00  0.00    +0.248 C 
ATOM     30  O   UNL     1      13.401  14.369   8.187  0.00  0.00    -0.270 OA
ATOM     31  H   UNL     1      12.187  16.890   6.703  0.00  0.00    +0.155 HD
BRANCH  14  15
ATOM     15  C   UNL     1      11.256  15.204   8.442  0.00  0.00    +0.037 A 
ATOM     16  C   UNL     1      10.348  14.105   8.105  0.00  0.00    +0.013 A 
ATOM     17  C   UNL     1       9.014  14.075   8.652  0.00  0.00    +0.005 A 
ATOM     18  C   UNL     1       8.581  15.148   9.544  0.00  0.00    -0.033 A 
ATOM     28  C   UNL     1       9.504  16.224   9.866  0.00  0.00    +0.005 A 
ATOM     29  C   UNL     1      10.811  16.257   9.331  0.00  0.00    +0.013 A 
BRANCH  18  19
ATOM     19  C   UNL     1       7.169  15.208  10.156  0.00  0.00    +0.119 C 
BRANCH  19  20
ATOM     20  N   UNL     1       6.935  14.433  11.411  0.00  0.00    -0.302 NA
ATOM     21  C   UNL     1       6.543  12.980  11.125  0.00  0.00    +0.066 C 
ATOM     22  C   UNL     1       6.324  12.178  12.449  0.00  0.00    -0.064 C 
ATOM     23  N   UNL     1       5.252  12.873  13.291  0.00  0.00    +0.379 N 
ATOM     24  C   UNL     1       5.002  12.089  14.510  0.00  0.00    -0.096 C 
ATOM     25  H   UNL     1       4.309  12.883  12.696  0.00  0.00    -0.082 HD
ATOM     26  C   UNL     1       5.633  14.318  13.578  0.00  0.00    -0.064 C 
ATOM     27  C   UNL     1       5.877  15.098  12.256  0.00  0.00    +0.066 C 
ENDBRANCH  19  20
ENDBRANCH  18  19
ENDBRANCH  14  15
ENDBRANCH  12  13
TORSDOF 6
ENDMDL
MODEL 5
REMARK VINA RESULT:      -7.5      9.862     15.075
REMARK  Name = C:\Users\Docking\Desktop\test protocol\1iep_ligandH.pdb
REMARK  8 active torsions:
REMARK  status: ('A' for Active; 'I' for Inactive)
REMARK    1  A    between atoms: _5  and  _11
REMARK    2  A    between atoms: _19  and  _21
REMARK    3  A    between atoms: _22  and  _66
REMARK    4  A    between atoms: _27  and  _30
REMARK    5  A    between atoms: _32  and  _33
REMARK    6  A    between atoms: _38  and  _43
REMARK    7  A    between atoms: _43  and  _46
REMARK    8  A    between atoms: _53  and  _55
REMARK                            x       y       z     vdW  Elec       q    Type
REMARK                         _______ _______ _______ _____ _____    ______ ____
ROOT
ATOM     10  C   UNL     1       7.583   1.374  13.690  0.00  0.00    +0.038 A 
ATOM     11  C   UNL     1       6.237   1.296  14.128  0.00  0.00    +0.047 A 
ATOM     12  C   UNL     1       5.832   1.833  15.418  0.00  0.00    +0.035 A 
ATOM     32  C   UNL     1       6.826   2.446  16.236  0.00  0.00    +0.024 A 
ATOM     33  C   UNL     1       8.199   2.533  15.807  0.00  0.00    +0.007 A 
ATOM     34  C   UNL     1       8.605   2.003  14.536  0.00  0.00    -0.029 A 
ATOM     35  C   UNL     1      10.092   2.119  14.131  0.00  0.00    +0.045 C 
ENDROOT
BRANCH  10   9
ATOM      4  C   UNL     1       7.105   1.153   8.919  0.00  0.00    +0.077 A 
ATOM      5  C   UNL     1       6.088   2.164   8.915  0.00  0.00    +0.048 A 
ATOM      6  C   UNL     1       5.711   2.710  10.162  0.00  0.00    +0.116 A 
ATOM      7  N   UNL     1       6.314   2.271  11.321  0.00  0.00    -0.223 NA
ATOM      8  C   UNL     1       7.291   1.293  11.290  0.00  0.00    +0.220 A 
ATOM      9  N   UNL     1       7.916   0.842  12.442  0.00  0.00    -0.283 N 
ATOM     36  H   UNL     1       8.627   0.114  12.378  0.00  0.00    +0.155 HD
ATOM     37  N   UNL     1       7.667   0.754  10.112  0.00  0.00    -0.214 NA
BRANCH   4   3
ATOM      1  C   UNL     1       9.160   0.331   5.694  0.00  0.00    +0.020 A 
ATOM      2  C   UNL     1       8.707   1.019   6.881  0.00  0.00    +0.013 A 
ATOM      3  C   UNL     1       7.613   0.482   7.681  0.00  0.00    +0.019 A 
ATOM     38  C   UNL     1       6.995  -0.763   7.249  0.00  0.00    +0.120 A 
ATOM     39  N   UNL     1       7.451  -1.402   6.101  0.00  0.00    -0.263 NA
ATOM     40  C   UNL     1       8.502  -0.894   5.322  0.00  0.00    +0.111 A 
ENDBRANCH   4   3
ENDBRANCH  10   9
BRANCH  12  13
ATOM     13  N   UNL     1       4.481   1.775  15.919  0.00  0.00    -0.281 N 
ATOM     14  C   UNL     1       3.965   0.918  16.877  0.00  0.00    +0.248 C 
ATOM     30  O   UNL     1       4.538  -0.076  17.297  0.00  0.00    -0.270 OA
ATOM     31  H   UNL     1       3.827   2.447  15.519  0.00  0.00    +0.155 HD
BRANCH  14  15
ATOM     15  C   UNL     1       2.609   1.198  17.440  0.00  0.00    +0.037 A 
ATOM     16  C   UNL     1       1.464   0.338  17.128  0.00  0.00    +0.013 A 
ATOM     17  C   UNL     1       0.163   0.641  17.670  0.00  0.00    +0.005 A 
ATOM     18  C   UNL     1       0.001   1.809  18.532  0.00  0.00    -0.033 A 
ATOM     28  C   UNL     1       1.154   2.642  18.830  0.00  0.00    +0.005 A 
ATOM     29  C   UNL     1       2.430   2.349  18.299  0.00  0.00    +0.013 A 
BRANCH  18  19
ATOM     19  C   UNL     1      -1.355   2.219  19.138  0.00  0.00    +0.119 C 
BRANCH  19  20
ATOM     20  N   UNL     1      -2.315   2.933  18.244  0.00  0.00    -0.302 NA
ATOM     21  C   UNL     1      -3.198   1.961  17.456  0.00  0.00    +0.066 C 
ATOM     22  C   UNL     1      -4.211   2.725  16.543  0.00  0.00    -0.064 C 
ATOM     23  N   UNL     1      -3.444   3.649  15.596  0.00  0.00    +0.379 N 
ATOM     24  C   UNL     1      -4.391   4.325  14.697  0.00  0.00    -0.096 C 
ATOM     25  H   UNL     1      -2.778   3.012  14.969  0.00  0.00    -0.082 HD
ATOM     26  C   UNL     1      -2.562   4.617  16.371  0.00  0.00    -0.064 C 
ATOM     27  C   UNL     1      -1.578   3.849  17.297  0.00  0.00    +0.066 C 
ENDBRANCH  19  20
ENDBRANCH  18  19
ENDBRANCH  14  15
ENDBRANCH  12  13
TORSDOF 6
ENDMDL
