MODEL 1
REMARK VINA RESULT:      -8.6      0.000      0.000
REMARK  Name = C:\Users\Docking\Desktop\test protocol\1iep_ligandH.pdb
REMARK  8 active torsions:
REMARK  status: ('A' for Active; 'I' for Inactive)
REMARK    1  A    between atoms: _5  and  _11
REMARK    2  A    between atoms: _19  and  _21
REMARK    3  A    between atoms: _22  and  _66
REMARK    4  A    between atoms: _27  and  _30
REMARK    5  A    between atoms: _32  and  _33
REMARK    6  A    between atoms: _38  and  _43
REMARK    7  A    between atoms: _43  and  _46
REMARK    8  A    between atoms: _53  and  _55
REMARK                            x       y       z     vdW  Elec       q    Type
REMARK                         _______ _______ _______ _____ _____    ______ ____
ROOT
ATOM     10  C   UNL     1      24.876  12.462  12.732  0.00  0.00    +0.038 A 
ATOM     11  C   UNL     1      23.616  13.110  12.812  0.00  0.00    +0.047 A 
ATOM     12  C   UNL     1      23.285  14.223  11.936  0.00  0.00    +0.035 A 
ATOM     32  C   UNL     1      24.260  14.649  10.987  0.00  0.00    +0.024 A 
ATOM     33  C   UNL     1      25.545  14.003  10.893  0.00  0.00    +0.007 A 
ATOM     34  C   UNL     1      25.879  12.906  11.756  0.00  0.00    -0.029 A 
ATOM     35  C   UNL     1      27.275  12.256  11.615  0.00  0.00    +0.045 C 
ENDROOT
BRANCH  10   9
ATOM      4  C   UNL     1      27.141  10.534  16.498  0.00  0.00    +0.077 A 
ATOM      5  C   UNL     1      27.879  11.739  16.746  0.00  0.00    +0.048 A 
ATOM      6  C   UNL     1      27.652  12.830  15.877  0.00  0.00    +0.116 A 
ATOM      7  N   UNL     1      26.751  12.713  14.841  0.00  0.00    -0.223 NA
ATOM      8  C   UNL     1      26.057  11.536  14.628  0.00  0.00    +0.220 A 
ATOM      9  N   UNL     1      25.141  11.399  13.597  0.00  0.00    -0.283 N 
ATOM     36  H   UNL     1      24.655  10.512  13.469  0.00  0.00    +0.155 HD
ATOM     37  N   UNL     1      26.258  10.479  15.443  0.00  0.00    -0.214 NA
BRANCH   4   3
ATOM      1  C   UNL     1      26.328   7.517  18.851  0.00  0.00    +0.020 A 
ATOM      2  C   UNL     1      26.151   8.714  18.062  0.00  0.00    +0.013 A 
ATOM      3  C   UNL     1      27.269   9.296  17.331  0.00  0.00    +0.019 A 
ATOM     38  C   UNL     1      28.564   8.637  17.420  0.00  0.00    +0.120 A 
ATOM     39  N   UNL     1      28.704   7.487  18.189  0.00  0.00    -0.263 NA
ATOM     40  C   UNL     1      27.635   6.918  18.898  0.00  0.00    +0.111 A 
ENDBRANCH   4   3
ENDBRANCH  10   9
BRANCH  12  13
ATOM     13  N   UNL     1      22.026  14.924  11.977  0.00  0.00    -0.281 N 
ATOM     14  C   UNL     1      21.609  15.872  12.897  0.00  0.00    +0.248 C 
ATOM     30  O   UNL     1      22.176  16.106  13.954  0.00  0.00    -0.270 OA
ATOM     31  H   UNL     1      21.361  14.693  11.239  0.00  0.00    +0.155 HD
BRANCH  14  15
ATOM     15  C   UNL     1      20.375  16.664  12.608  0.00  0.00    +0.037 A 
ATOM     16  C   UNL     1      20.436  17.916  11.850  0.00  0.00    +0.013 A 
ATOM     17  C   UNL     1      19.233  18.670  11.600  0.00  0.00    +0.005 A 
ATOM     18  C   UNL     1      17.957  18.171  12.108  0.00  0.00    -0.033 A 
ATOM     28  C   UNL     1      17.924  16.923  12.853  0.00  0.00    +0.005 A 
ATOM     29  C   UNL     1      19.101  16.183  13.100  0.00  0.00    +0.013 A 
BRANCH  18  19
ATOM     19  C   UNL     1      16.626  18.921  11.907  0.00  0.00    +0.119 C 
BRANCH  19  20
ATOM     20  N   UNL     1      15.367  18.139  12.089  0.00  0.00    -0.302 NA
ATOM     21  C   UNL     1      14.500  18.144  10.827  0.00  0.00    +0.066 C 
ATOM     22  C   UNL     1      13.197  17.303  11.029  0.00  0.00    -0.064 C 
ATOM     23  N   UNL     1      12.417  17.853  12.224  0.00  0.00    +0.379 N 
ATOM     24  C   UNL     1      11.164  17.101  12.380  0.00  0.00    -0.096 C 
ATOM     25  H   UNL     1      12.151  18.911  11.995  0.00  0.00    -0.082 HD
ATOM     26  C   UNL     1      13.273  17.854  13.483  0.00  0.00    -0.064 C 
ATOM     27  C   UNL     1      14.579  18.668  13.262  0.00  0.00    +0.066 C 
ENDBRANCH  19  20
ENDBRANCH  18  19
ENDBRANCH  14  15
ENDBRANCH  12  13
TORSDOF 6
ENDMDL
MODEL 2
REMARK VINA RESULT:      -8.5      5.095     12.149
REMARK  Name = C:\Users\Docking\Desktop\test protocol\1iep_ligandH.pdb
REMARK  8 active torsions:
REMARK  status: ('A' for Active; 'I' for Inactive)
REMARK    1  A    between atoms: _5  and  _11
REMARK    2  A    between atoms: _19  and  _21
REMARK    3  A    between atoms: _22  and  _66
REMARK    4  A    between atoms: _27  and  _30
REMARK    5  A    between atoms: _32  and  _33
REMARK    6  A    between atoms: _38  and  _43
REMARK    7  A    between atoms: _43  and  _46
REMARK    8  A    between atoms: _53  and  _55
REMARK                            x       y       z     vdW  Elec       q    Type
REMARK                         _______ _______ _______ _____ _____    ______ ____
ROOT
ATOM     10  C   UNL     1      20.623  15.566  13.230  0.00  0.00    +0.038 A 
ATOM     11  C   UNL     1      21.017  15.292  11.896  0.00  0.00    +0.047 A 
ATOM     12  C   UNL     1      22.382  14.900  11.579  0.00  0.00    +0.035 A 
ATOM     32  C   UNL     1      23.319  14.795  12.647  0.00  0.00    +0.024 A 
ATOM     33  C   UNL     1      22.937  15.070  14.009  0.00  0.00    +0.007 A 
ATOM     34  C   UNL     1      21.593  15.460  14.328  0.00  0.00    -0.029 A 
ATOM     35  C   UNL     1      21.240  15.749  15.805  0.00  0.00    +0.045 C 
ENDROOT
BRANCH  10   9
ATOM      4  C   UNL     1      16.854  18.469  12.597  0.00  0.00    +0.077 A 
ATOM      5  C   UNL     1      17.591  19.333  11.721  0.00  0.00    +0.048 A 
ATOM      6  C   UNL     1      18.940  18.999  11.464  0.00  0.00    +0.116 A 
ATOM      7  N   UNL     1      19.499  17.881  12.046  0.00  0.00    -0.223 NA
ATOM      8  C   UNL     1      18.760  17.070  12.888  0.00  0.00    +0.220 A 
ATOM      9  N   UNL     1      19.300  15.938  13.478  0.00  0.00    -0.283 N 
ATOM     36  H   UNL     1      18.724  15.369  14.098  0.00  0.00    +0.155 HD
ATOM     37  N   UNL     1      17.471  17.369  13.150  0.00  0.00    -0.214 NA
BRANCH   4   3
ATOM      1  C   UNL     1      13.184  17.891  13.822  0.00  0.00    +0.020 A 
ATOM      2  C   UNL     1      14.564  17.628  13.484  0.00  0.00    +0.013 A 
ATOM      3  C   UNL     1      15.418  18.687  12.963  0.00  0.00    +0.019 A 
ATOM     38  C   UNL     1      14.842  20.012  12.794  0.00  0.00    +0.120 A 
ATOM     39  N   UNL     1      13.509  20.236  13.127  0.00  0.00    -0.263 NA
ATOM     40  C   UNL     1      12.677  19.224  13.628  0.00  0.00    +0.111 A 
ENDBRANCH   4   3
ENDBRANCH  10   9
BRANCH  12  13
ATOM     13  N   UNL     1      22.841  14.617  10.242  0.00  0.00    -0.281 N 
ATOM     14  C   UNL     1      23.474  15.477   9.359  0.00  0.00    +0.248 C 
ATOM     30  O   UNL     1      23.550  16.688   9.508  0.00  0.00    -0.270 OA
ATOM     31  H   UNL     1      22.680  13.668   9.905  0.00  0.00    +0.155 HD
BRANCH  14  15
ATOM     15  C   UNL     1      24.101  14.913   8.125  0.00  0.00    +0.037 A 
ATOM     16  C   UNL     1      25.554  14.915   7.942  0.00  0.00    +0.013 A 
ATOM     17  C   UNL     1      26.132  14.380   6.734  0.00  0.00    +0.005 A 
ATOM     18  C   UNL     1      25.254  13.836   5.701  0.00  0.00    -0.033 A 
ATOM     28  C   UNL     1      23.816  13.842   5.911  0.00  0.00    +0.005 A 
ATOM     29  C   UNL     1      23.246  14.366   7.092  0.00  0.00    +0.013 A 
BRANCH  18  19
ATOM     19  C   UNL     1      25.782  13.264   4.372  0.00  0.00    +0.119 C 
BRANCH  19  20
ATOM     20  N   UNL     1      24.808  12.529   3.509  0.00  0.00    -0.302 NA
ATOM     21  C   UNL     1      25.319  11.138   3.123  0.00  0.00    +0.066 C 
ATOM     22  C   UNL     1      24.278  10.376   2.239  0.00  0.00    -0.064 C 
ATOM     23  N   UNL     1      23.968  11.205   0.991  0.00  0.00    +0.379 N 
ATOM     24  C   UNL     1      23.035  10.464   0.130  0.00  0.00    -0.096 C 
ATOM     25  H   UNL     1      24.921  11.333   0.426  0.00  0.00    -0.082 HD
ATOM     26  C   UNL     1      23.463  12.590   1.366  0.00  0.00    -0.064 C 
ATOM     27  C   UNL     1      24.491  13.328   2.269  0.00  0.00    +0.066 C 
ENDBRANCH  19  20
ENDBRANCH  18  19
ENDBRANCH  14  15
ENDBRANCH  12  13
TORSDOF 6
ENDMDL
MODEL 3
REMARK VINA RESULT:      -8.3      6.170     11.750
REMARK  Name = C:\Users\Docking\Desktop\test protocol\1iep_ligandH.pdb
REMARK  8 active torsions:
REMARK  status: ('A' for Active; 'I' for Inactive)
REMARK    1  A    between atoms: _5  and  _11
REMARK    2  A    between atoms: _19  and  _21
REMARK    3  A    between atoms: _22  and  _66
REMARK    4  A    between atoms: _27  and  _30
REMARK    5  A    between atoms: _32  and  _33
REMARK    6  A    between atoms: _38  and  _43
REMARK    7  A    between atoms: _43  and  _46
REMARK    8  A    between atoms: _53  and  _55
REMARK                            x       y       z     vdW  Elec       q    Type
REMARK                         _______ _______ _______ _____ _____    ______ ____
ROOT
ATOM     10  C   UNL     1      14.393  17.955  12.397  0.00  0.00    +0.038 A 
ATOM     11  C   UNL     1      13.747  18.527  13.522  0.00  0.00    +0.047 A 
ATOM     12  C   UNL     1      12.626  19.440  13.363  0.00  0.00    +0.035 A 
ATOM     32  C   UNL     1      12.187  19.747  12.042  0.00  0.00    +0.024 A 
ATOM     33  C   UNL     1      12.833  19.175  10.887  0.00  0.00    +0.007 A 
ATOM     34  C   UNL     1      13.941  18.275  11.038  0.00  0.00    -0.029 A 
ATOM     35  C   UNL     1      14.599  17.697   9.764  0.00  0.00    +0.045 C 
ENDROOT
BRANCH  10   9
ATOM      4  C   UNL     1      19.088  16.960  12.469  0.00  0.00    +0.077 A 
ATOM      5  C   UNL     1      19.435  18.279  12.023  0.00  0.00    +0.048 A 
ATOM      6  C   UNL     1      18.375  19.180  11.779  0.00  0.00    +0.116 A 
ATOM      7  N   UNL     1      17.069  18.783  11.971  0.00  0.00    -0.223 NA
ATOM      8  C   UNL     1      16.770  17.503  12.401  0.00  0.00    +0.220 A 
ATOM      9  N   UNL     1      15.465  17.084  12.608  0.00  0.00    -0.283 N 
ATOM     36  H   UNL     1      15.285  16.129  12.919  0.00  0.00    +0.155 HD
ATOM     37  N   UNL     1      17.764  16.623  12.639  0.00  0.00    -0.214 NA
BRANCH   4   3
ATOM      1  C   UNL     1      20.820  13.757  13.899  0.00  0.00    +0.020 A 
ATOM      2  C   UNL     1      19.811  14.759  13.639  0.00  0.00    +0.013 A 
ATOM      3  C   UNL     1      20.096  15.895  12.772  0.00  0.00    +0.019 A 
ATOM     38  C   UNL     1      21.421  15.989  12.179  0.00  0.00    +0.120 A 
ATOM     39  N   UNL     1      22.373  15.011  12.448  0.00  0.00    -0.263 NA
ATOM     40  C   UNL     1      22.111  13.914  13.282  0.00  0.00    +0.111 A 
ENDBRANCH   4   3
ENDBRANCH  10   9
BRANCH  12  13
ATOM     13  N   UNL     1      11.937  20.058  14.468  0.00  0.00    -0.281 N 
ATOM     14  C   UNL     1      10.634  19.843  14.886  0.00  0.00    +0.248 C 
ATOM     30  O   UNL     1       9.791  19.240  14.239  0.00  0.00    -0.270 OA
ATOM     31  H   UNL     1      12.474  20.737  15.008  0.00  0.00    +0.155 HD
BRANCH  14  15
ATOM     15  C   UNL     1      10.200  20.389  16.209  0.00  0.00    +0.037 A 
ATOM     16  C   UNL     1      10.655  21.702  16.675  0.00  0.00    +0.013 A 
ATOM     17  C   UNL     1      10.235  22.198  17.961  0.00  0.00    +0.005 A 
ATOM     18  C   UNL     1       9.354  21.380  18.791  0.00  0.00    -0.033 A 
ATOM     28  C   UNL     1       8.914  20.084  18.302  0.00  0.00    +0.005 A 
ATOM     29  C   UNL     1       9.324  19.594  17.042  0.00  0.00    +0.013 A 
BRANCH  18  19
ATOM     19  C   UNL     1       8.873  21.820  20.187  0.00  0.00    +0.119 C 
BRANCH  19  20
ATOM     20  N   UNL     1       9.912  21.986  21.247  0.00  0.00    -0.302 NA
ATOM     21  C   UNL     1      10.331  20.644  21.855  0.00  0.00    +0.066 C 
ATOM     22  C   UNL     1      11.434  20.834  22.947  0.00  0.00    -0.064 C 
ATOM     23  N   UNL     1      10.918  21.783  24.030  0.00  0.00    +0.379 N 
ATOM     24  C   UNL     1      11.931  21.917  25.087  0.00  0.00    -0.096 C 
ATOM     25  H   UNL     1      10.014  21.316  24.485  0.00  0.00    -0.082 HD
ATOM     26  C   UNL     1      10.497  23.118  23.433  0.00  0.00    -0.064 C 
ATOM     27  C   UNL     1       9.422  22.915  22.329  0.00  0.00    +0.066 C 
ENDBRANCH  19  20
ENDBRANCH  18  19
ENDBRANCH  14  15
ENDBRANCH  12  13
TORSDOF 6
ENDMDL
MODEL 4
REMARK VINA RESULT:      -8.3      5.052     12.350
REMARK  Name = C:\Users\Docking\Desktop\test protocol\1iep_ligandH.pdb
REMARK  8 active torsions:
REMARK  status: ('A' for Active; 'I' for Inactive)
REMARK    1  A    between atoms: _5  and  _11
REMARK    2  A    between atoms: _19  and  _21
REMARK    3  A    between atoms: _22  and  _66
REMARK    4  A    between atoms: _27  and  _30
REMARK    5  A    between atoms: _32  and  _33
REMARK    6  A    between atoms: _38  and  _43
REMARK    7  A    between atoms: _43  and  _46
REMARK    8  A    between atoms: _53  and  _55
REMARK                            x       y       z     vdW  Elec       q    Type
REMARK                         _______ _______ _______ _____ _____    ______ ____
ROOT
ATOM     10  C   UNL     1      20.644  15.530  13.260  0.00  0.00    +0.038 A 
ATOM     11  C   UNL     1      21.057  15.276  11.927  0.00  0.00    +0.047 A 
ATOM     12  C   UNL     1      22.424  14.878  11.626  0.00  0.00    +0.035 A 
ATOM     32  C   UNL     1      23.343  14.746  12.707  0.00  0.00    +0.024 A 
ATOM     33  C   UNL     1      22.940  15.002  14.068  0.00  0.00    +0.007 A 
ATOM     34  C   UNL     1      21.595  15.397  14.371  0.00  0.00    -0.029 A 
ATOM     35  C   UNL     1      21.220  15.665  15.847  0.00  0.00    +0.045 C 
ENDROOT
BRANCH  10   9
ATOM      4  C   UNL     1      16.907  18.471  12.608  0.00  0.00    +0.077 A 
ATOM      5  C   UNL     1      17.664  19.340  11.754  0.00  0.00    +0.048 A 
ATOM      6  C   UNL     1      19.014  18.999  11.513  0.00  0.00    +0.116 A 
ATOM      7  N   UNL     1      19.556  17.870  12.089  0.00  0.00    -0.223 NA
ATOM      8  C   UNL     1      18.798  17.054  12.909  0.00  0.00    +0.220 A 
ATOM      9  N   UNL     1      19.320  15.910  13.492  0.00  0.00    -0.283 N 
ATOM     36  H   UNL     1      18.731  15.338  14.097  0.00  0.00    +0.155 HD
ATOM     37  N   UNL     1      17.507  17.359  13.155  0.00  0.00    -0.214 NA
BRANCH   4   3
ATOM      1  C   UNL     1      13.213  17.905  13.762  0.00  0.00    +0.020 A 
ATOM      2  C   UNL     1      14.596  17.635  13.442  0.00  0.00    +0.013 A 
ATOM      3  C   UNL     1      15.468  18.695  12.954  0.00  0.00    +0.019 A 
ATOM     38  C   UNL     1      14.906  20.029  12.802  0.00  0.00    +0.120 A 
ATOM     39  N   UNL     1      13.571  20.259  13.117  0.00  0.00    -0.263 NA
ATOM     40  C   UNL     1      12.721  19.246  13.586  0.00  0.00    +0.111 A 
ENDBRANCH   4   3
ENDBRANCH  10   9
BRANCH  12  13
ATOM     13  N   UNL     1      22.903  14.614  10.292  0.00  0.00    -0.281 N 
ATOM     14  C   UNL     1      23.473  15.508   9.399  0.00  0.00    +0.248 C 
ATOM     30  O   UNL     1      23.462  16.722   9.535  0.00  0.00    -0.270 OA
ATOM     31  H   UNL     1      22.811  13.652   9.966  0.00  0.00    +0.155 HD
BRANCH  14  15
ATOM     15  C   UNL     1      24.138  14.976   8.171  0.00  0.00    +0.037 A 
ATOM     16  C   UNL     1      25.597  14.881   8.079  0.00  0.00    +0.013 A 
ATOM     17  C   UNL     1      26.215  14.380   6.876  0.00  0.00    +0.005 A 
ATOM     18  C   UNL     1      25.372  13.969   5.756  0.00  0.00    -0.033 A 
ATOM     28  C   UNL     1      23.927  14.069   5.877  0.00  0.00    +0.005 A 
ATOM     29  C   UNL     1      23.318  14.560   7.054  0.00  0.00    +0.013 A 
BRANCH  18  19
ATOM     19  C   UNL     1      25.945  13.443   4.427  0.00  0.00    +0.119 C 
BRANCH  19  20
ATOM     20  N   UNL     1      26.601  14.436   3.525  0.00  0.00    -0.302 NA
ATOM     21  C   UNL     1      28.052  14.710   3.930  0.00  0.00    +0.066 C 
ATOM     22  C   UNL     1      28.730  15.733   2.963  0.00  0.00    -0.064 C 
ATOM     23  N   UNL     1      27.918  17.029   2.945  0.00  0.00    +0.379 N 
ATOM     24  C   UNL     1      28.585  18.014   2.081  0.00  0.00    -0.096 C 
ATOM     25  H   UNL     1      27.913  17.438   3.983  0.00  0.00    -0.082 HD
ATOM     26  C   UNL     1      26.474  16.766   2.545  0.00  0.00    -0.064 C 
ATOM     27  C   UNL     1      25.818  15.725   3.496  0.00  0.00    +0.066 C 
ENDBRANCH  19  20
ENDBRANCH  18  19
ENDBRANCH  14  15
ENDBRANCH  12  13
TORSDOF 6
ENDMDL
MODEL 5
REMARK VINA RESULT:      -8.2      4.293      7.420
REMARK  Name = C:\Users\Docking\Desktop\test protocol\1iep_ligandH.pdb
REMARK  8 active torsions:
REMARK  status: ('A' for Active; 'I' for Inactive)
REMARK    1  A    between atoms: _5  and  _11
REMARK    2  A    between atoms: _19  and  _21
REMARK    3  A    between atoms: _22  and  _66
REMARK    4  A    between atoms: _27  and  _30
REMARK    5  A    between atoms: _32  and  _33
REMARK    6  A    between atoms: _38  and  _43
REMARK    7  A    between atoms: _43  and  _46
REMARK    8  A    between atoms: _53  and  _55
REMARK                            x       y       z     vdW  Elec       q    Type
REMARK                         _______ _______ _______ _____ _____    ______ ____
ROOT
ATOM     10  C   UNL     1      22.396  14.398  12.042  0.00  0.00    +0.038 A 
ATOM     11  C   UNL     1      21.124  15.018  11.951  0.00  0.00    +0.047 A 
ATOM     12  C   UNL     1      20.429  15.488  13.139  0.00  0.00    +0.035 A 
ATOM     32  C   UNL     1      21.061  15.313  14.405  0.00  0.00    +0.024 A 
ATOM     33  C   UNL     1      22.353  14.684  14.516  0.00  0.00    +0.007 A 
ATOM     34  C   UNL     1      23.042  14.216  13.348  0.00  0.00    -0.029 A 
ATOM     35  C   UNL     1      24.423  13.544  13.527  0.00  0.00    +0.045 C 
ENDROOT
BRANCH  10   9
ATOM      4  C   UNL     1      24.537  15.237   7.829  0.00  0.00    +0.077 A 
ATOM      5  C   UNL     1      24.379  16.657   7.965  0.00  0.00    +0.048 A 
ATOM      6  C   UNL     1      23.735  17.130   9.130  0.00  0.00    +0.116 A 
ATOM      7  N   UNL     1      23.287  16.240  10.083  0.00  0.00    -0.223 NA
ATOM      8  C   UNL     1      23.454  14.877   9.920  0.00  0.00    +0.220 A 
ATOM      9  N   UNL     1      23.019  13.965  10.869  0.00  0.00    -0.283 N 
ATOM     36  H   UNL     1      23.154  12.967  10.709  0.00  0.00    +0.155 HD
ATOM     37  N   UNL     1      24.065  14.400   8.816  0.00  0.00    -0.214 NA
BRANCH   4   3
ATOM      1  C   UNL     1      27.209  14.091   5.212  0.00  0.00    +0.020 A 
ATOM      2  C   UNL     1      26.618  14.744   6.358  0.00  0.00    +0.013 A 
ATOM      3  C   UNL     1      25.200  14.584   6.656  0.00  0.00    +0.019 A 
ATOM     38  C   UNL     1      24.403  13.750   5.770  0.00  0.00    +0.120 A 
ATOM     39  N   UNL     1      24.999  13.135   4.674  0.00  0.00    -0.263 NA
ATOM     40  C   UNL     1      26.362  13.283   4.375  0.00  0.00    +0.111 A 
ENDBRANCH   4   3
ENDBRANCH  10   9
BRANCH  12  13
ATOM     13  N   UNL     1      19.132  16.117  13.109  0.00  0.00    -0.281 N 
ATOM     14  C   UNL     1      18.803  17.366  12.608  0.00  0.00    +0.248 C 
ATOM     30  O   UNL     1      19.617  18.224  12.302  0.00  0.00    -0.270 OA
ATOM     31  H   UNL     1      18.363  15.576  13.505  0.00  0.00    +0.155 HD
BRANCH  14  15
ATOM     15  C   UNL     1      17.360  17.718  12.437  0.00  0.00    +0.037 A 
ATOM     16  C   UNL     1      16.602  17.267  11.268  0.00  0.00    +0.013 A 
ATOM     17  C   UNL     1      15.216  17.635  11.119  0.00  0.00    +0.005 A 
ATOM     18  C   UNL     1      14.580  18.459  12.143  0.00  0.00    -0.033 A 
ATOM     28  C   UNL     1      15.354  18.889  13.296  0.00  0.00    +0.005 A 
ATOM     29  C   UNL     1      16.713  18.531  13.445  0.00  0.00    +0.013 A 
BRANCH  18  19
ATOM     19  C   UNL     1      13.112  18.917  12.056  0.00  0.00    +0.119 C 
BRANCH  19  20
ATOM     20  N   UNL     1      12.436  19.295  13.333  0.00  0.00    -0.302 NA
ATOM     21  C   UNL     1      11.060  18.638  13.471  0.00  0.00    +0.066 C 
ATOM     22  C   UNL     1      10.377  19.026  14.823  0.00  0.00    -0.064 C 
ATOM     23  N   UNL     1      10.261  20.549  14.914  0.00  0.00    +0.379 N 
ATOM     24  C   UNL     1       9.567  20.915  16.157  0.00  0.00    -0.096 C 
ATOM     25  H   UNL     1       9.631  20.892  14.061  0.00  0.00    -0.082 HD
ATOM     26  C   UNL     1      11.625  21.211  14.774  0.00  0.00    -0.064 C 
ATOM     27  C   UNL     1      12.308  20.795  13.441  0.00  0.00    +0.066 C 
ENDBRANCH  19  20
ENDBRANCH  18  19
ENDBRANCH  14  15
ENDBRANCH  12  13
TORSDOF 6
ENDMDL
