MODEL 1
REMARK VINA RESULT:      -9.3      0.000      0.000
REMARK  Name = C:\Users\Docking\Desktop\test protocol\1iep_ligandH.pdb
REMARK  8 active torsions:
REMARK  status: ('A' for Active; 'I' for Inactive)
REMARK    1  A    between atoms: _5  and  _11
REMARK    2  A    between atoms: _19  and  _21
REMARK    3  A    between atoms: _22  and  _66
REMARK    4  A    between atoms: _27  and  _30
REMARK    5  A    between atoms: _32  and  _33
REMARK    6  A    between atoms: _38  and  _43
REMARK    7  A    between atoms: _43  and  _46
REMARK    8  A    between atoms: _53  and  _55
REMARK                            x       y       z     vdW  Elec       q    Type
REMARK                         _______ _______ _______ _____ _____    ______ ____
ROOT
ATOM     10  C   UNL     1      11.522  30.034   2.212  0.00  0.00    +0.038 A 
ATOM     11  C   UNL     1      10.181  29.618   2.008  0.00  0.00    +0.047 A 
ATOM     12  C   UNL     1       9.675  28.391   2.603  0.00  0.00    +0.035 A 
ATOM     32  C   UNL     1      10.561  27.612   3.402  0.00  0.00    +0.024 A 
ATOM     33  C   UNL     1      11.927  28.019   3.620  0.00  0.00    +0.007 A 
ATOM     34  C   UNL     1      12.433  29.227   3.033  0.00  0.00    -0.029 A 
ATOM     35  C   UNL     1      13.908  29.612   3.294  0.00  0.00    +0.045 C 
ENDROOT
BRANCH  10   9
ATOM      4  C   UNL     1      11.562  33.185  -1.408  0.00  0.00    +0.077 A 
ATOM      5  C   UNL     1      10.665  32.385  -2.192  0.00  0.00    +0.048 A 
ATOM      6  C   UNL     1      10.222  31.167  -1.630  0.00  0.00    +0.116 A 
ATOM      7  N   UNL     1      10.650  30.787  -0.377  0.00  0.00    -0.223 NA
ATOM      8  C   UNL     1      11.517  31.580   0.352  0.00  0.00    +0.220 A 
ATOM      9  N   UNL     1      11.955  31.221   1.617  0.00  0.00    -0.283 N 
ATOM     36  H   UNL     1      12.601  31.830   2.119  0.00  0.00    +0.155 HD
ATOM     37  N   UNL     1      11.956  32.747  -0.163  0.00  0.00    -0.214 NA
BRANCH   4   3
ATOM      1  C   UNL     1      13.728  36.431  -1.681  0.00  0.00    +0.020 A 
ATOM      2  C   UNL     1      13.231  35.162  -1.200  0.00  0.00    +0.013 A 
ATOM      3  C   UNL     1      12.115  34.499  -1.864  0.00  0.00    +0.019 A 
ATOM     38  C   UNL     1      11.519  35.153  -3.019  0.00  0.00    +0.120 A 
ATOM     39  N   UNL     1      12.018  36.375  -3.458  0.00  0.00    -0.263 NA
ATOM     40  C   UNL     1      13.090  37.023  -2.827  0.00  0.00    +0.111 A 
ENDBRANCH   4   3
ENDBRANCH  10   9
BRANCH  12  13
ATOM     13  N   UNL     1       8.326  27.914   2.424  0.00  0.00    -0.281 N 
ATOM     14  C   UNL     1       7.827  27.136   1.392  0.00  0.00    +0.248 C 
ATOM     30  O   UNL     1       8.422  26.909   0.348  0.00  0.00    -0.270 OA
ATOM     31  H   UNL     1       7.657  28.183   3.146  0.00  0.00    +0.155 HD
BRANCH  14  15
ATOM     15  C   UNL     1       6.466  26.536   1.533  0.00  0.00    +0.037 A 
ATOM     16  C   UNL     1       6.180  25.181   1.054  0.00  0.00    +0.013 A 
ATOM     17  C   UNL     1       4.854  24.632   1.187  0.00  0.00    +0.005 A 
ATOM     18  C   UNL     1       3.803  25.439   1.804  0.00  0.00    -0.033 A 
ATOM     28  C   UNL     1       4.116  26.778   2.275  0.00  0.00    +0.005 A 
ATOM     29  C   UNL     1       5.415  27.320   2.145  0.00  0.00    +0.013 A 
BRANCH  18  19
ATOM     19  C   UNL     1       2.355  24.942   1.968  0.00  0.00    +0.119 C 
BRANCH  19  20
ATOM     20  N   UNL     1       1.650  25.294   3.237  0.00  0.00    -0.302 NA
ATOM     21  C   UNL     1       1.308  24.055   4.068  0.00  0.00    +0.066 C 
ATOM     22  C   UNL     1       0.592  24.443   5.402  0.00  0.00    -0.064 C 
ATOM     23  N   UNL     1      -0.670  25.248   5.084  0.00  0.00    +0.379 N 
ATOM     24  C   UNL     1      -1.377  25.565   6.334  0.00  0.00    -0.096 C 
ATOM     25  H   UNL     1      -1.339  24.599   4.473  0.00  0.00    -0.082 HD
ATOM     26  C   UNL     1      -0.339  26.481   4.256  0.00  0.00    -0.064 C 
ATOM     27  C   UNL     1       0.399  26.086   2.946  0.00  0.00    +0.066 C 
ENDBRANCH  19  20
ENDBRANCH  18  19
ENDBRANCH  14  15
ENDBRANCH  12  13
TORSDOF 6
ENDMDL
MODEL 2
REMARK VINA RESULT:      -9.1      1.047      1.662
REMARK  Name = C:\Users\Docking\Desktop\test protocol\1iep_ligandH.pdb
REMARK  8 active torsions:
REMARK  status: ('A' for Active; 'I' for Inactive)
REMARK    1  A    between atoms: _5  and  _11
REMARK    2  A    between atoms: _19  and  _21
REMARK    3  A    between atoms: _22  and  _66
REMARK    4  A    between atoms: _27  and  _30
REMARK    5  A    between atoms: _32  and  _33
REMARK    6  A    between atoms: _38  and  _43
REMARK    7  A    between atoms: _43  and  _46
REMARK    8  A    between atoms: _53  and  _55
REMARK                            x       y       z     vdW  Elec       q    Type
REMARK                         _______ _______ _______ _____ _____    ______ ____
ROOT
ATOM     10  C   UNL     1      10.294  29.351   2.052  0.00  0.00    +0.038 A 
ATOM     11  C   UNL     1       8.955  28.914   1.883  0.00  0.00    +0.047 A 
ATOM     12  C   UNL     1       8.520  27.615   2.371  0.00  0.00    +0.035 A 
ATOM     32  C   UNL     1       9.475  26.787   3.030  0.00  0.00    +0.024 A 
ATOM     33  C   UNL     1      10.840  27.215   3.210  0.00  0.00    +0.007 A 
ATOM     34  C   UNL     1      11.275  28.494   2.728  0.00  0.00    -0.029 A 
ATOM     35  C   UNL     1      12.752  28.899   2.943  0.00  0.00    +0.045 C 
ENDROOT
BRANCH  10   9
ATOM      4  C   UNL     1      11.495  32.317  -1.525  0.00  0.00    +0.077 A 
ATOM      5  C   UNL     1      11.419  31.267  -2.500  0.00  0.00    +0.048 A 
ATOM      6  C   UNL     1      11.074  29.977  -2.039  0.00  0.00    +0.116 A 
ATOM      7  N   UNL     1      10.826  29.764  -0.700  0.00  0.00    -0.223 NA
ATOM      8  C   UNL     1      10.910  30.798   0.214  0.00  0.00    +0.220 A 
ATOM      9  N   UNL     1      10.657  30.608   1.564  0.00  0.00    -0.283 N 
ATOM     36  H   UNL     1      10.736  31.396   2.207  0.00  0.00    +0.155 HD
ATOM     37  N   UNL     1      11.238  32.039  -0.201  0.00  0.00    -0.214 NA
BRANCH   4   3
ATOM      1  C   UNL     1      13.037  35.910  -1.402  0.00  0.00    +0.020 A 
ATOM      2  C   UNL     1      12.732  34.546  -1.036  0.00  0.00    +0.013 A 
ATOM      3  C   UNL     1      11.843  33.734  -1.858  0.00  0.00    +0.019 A 
ATOM     38  C   UNL     1      11.276  34.338  -3.054  0.00  0.00    +0.120 A 
ATOM     39  N   UNL     1      11.586  35.654  -3.381  0.00  0.00    -0.263 NA
ATOM     40  C   UNL     1      12.439  36.445  -2.597  0.00  0.00    +0.111 A 
ENDBRANCH   4   3
ENDBRANCH  10   9
BRANCH  12  13
ATOM     13  N   UNL     1       7.176  27.114   2.221  0.00  0.00    -0.281 N 
ATOM     14  C   UNL     1       6.626  26.466   1.128  0.00  0.00    +0.248 C 
ATOM     30  O   UNL     1       7.149  26.407   0.024  0.00  0.00    -0.270 OA
ATOM     31  H   UNL     1       6.555  27.255   3.018  0.00  0.00    +0.155 HD
BRANCH  14  15
ATOM     15  C   UNL     1       5.297  25.798   1.277  0.00  0.00    +0.037 A 
ATOM     16  C   UNL     1       4.089  26.570   1.577  0.00  0.00    +0.013 A 
ATOM     17  C   UNL     1       2.822  25.899   1.733  0.00  0.00    +0.005 A 
ATOM     18  C   UNL     1       2.759  24.447   1.588  0.00  0.00    -0.033 A 
ATOM     28  C   UNL     1       3.972  23.706   1.285  0.00  0.00    +0.005 A 
ATOM     29  C   UNL     1       5.215  24.360   1.133  0.00  0.00    +0.013 A 
BRANCH  18  19
ATOM     19  C   UNL     1       1.454  23.646   1.758  0.00  0.00    +0.119 C 
BRANCH  19  20
ATOM     20  N   UNL     1       0.651  23.901   2.991  0.00  0.00    -0.302 NA
ATOM     21  C   UNL     1      -0.282  25.105   2.831  0.00  0.00    +0.066 C 
ATOM     22  C   UNL     1      -1.130  25.344   4.122  0.00  0.00    -0.064 C 
ATOM     23  N   UNL     1      -0.194  25.540   5.315  0.00  0.00    +0.379 N 
ATOM     24  C   UNL     1      -0.987  25.823   6.520  0.00  0.00    -0.096 C 
ATOM     25  H   UNL     1       0.436  26.436   5.107  0.00  0.00    -0.082 HD
ATOM     26  C   UNL     1       0.739  24.349   5.481  0.00  0.00    -0.064 C 
ATOM     27  C   UNL     1       1.557  24.102   4.182  0.00  0.00    +0.066 C 
ENDBRANCH  19  20
ENDBRANCH  18  19
ENDBRANCH  14  15
ENDBRANCH  12  13
TORSDOF 6
ENDMDL
MODEL 3
REMARK VINA RESULT:      -8.9      1.986     12.857
REMARK  Name = C:\Users\Docking\Desktop\test protocol\1iep_ligandH.pdb
REMARK  8 active torsions:
REMARK  status: ('A' for Active; 'I' for Inactive)
REMARK    1  A    between atoms: _5  and  _11
REMARK    2  A    between atoms: _19  and  _21
REMARK    3  A    between atoms: _22  and  _66
REMARK    4  A    between atoms: _27  and  _30
REMARK    5  A    between atoms: _32  and  _33
REMARK    6  A    between atoms: _38  and  _43
REMARK    7  A    between atoms: _43  and  _46
REMARK    8  A    between atoms: _53  and  _55
REMARK                            x       y       z     vdW  Elec       q    Type
REMARK                         _______ _______ _______ _____ _____    ______ ____
ROOT
ATOM     10  C   UNL     1       5.018  24.254   1.194  0.00  0.00    +0.038 A 
ATOM     11  C   UNL     1       5.907  25.350   1.053  0.00  0.00    +0.047 A 
ATOM     12  C   UNL     1       6.760  25.481  -0.118  0.00  0.00    +0.035 A 
ATOM     32  C   UNL     1       6.680  24.478  -1.128  0.00  0.00    +0.024 A 
ATOM     33  C   UNL     1       5.782  23.357  -1.000  0.00  0.00    +0.007 A 
ATOM     34  C   UNL     1       4.940  23.221   0.154  0.00  0.00    -0.029 A 
ATOM     35  C   UNL     1       4.001  21.995   0.241  0.00  0.00    +0.045 C 
ENDROOT
BRANCH  10   9
ATOM      4  C   UNL     1       0.991  25.221   3.621  0.00  0.00    +0.077 A 
ATOM      5  C   UNL     1       0.438  25.962   2.525  0.00  0.00    +0.048 A 
ATOM      6  C   UNL     1       1.225  26.077   1.357  0.00  0.00    +0.116 A 
ATOM      7  N   UNL     1       2.470  25.490   1.300  0.00  0.00    -0.223 NA
ATOM      8  C   UNL     1       2.975  24.783   2.376  0.00  0.00    +0.220 A 
ATOM      9  N   UNL     1       4.222  24.178   2.339  0.00  0.00    -0.283 N 
ATOM     36  H   UNL     1       4.561  23.672   3.156  0.00  0.00    +0.155 HD
ATOM     37  N   UNL     1       2.244  24.660   3.504  0.00  0.00    -0.214 NA
BRANCH   4   3
ATOM      1  C   UNL     1      -1.566  25.503   6.568  0.00  0.00    +0.020 A 
ATOM      2  C   UNL     1      -0.917  25.748   5.300  0.00  0.00    +0.013 A 
ATOM      3  C   UNL     1       0.280  25.008   4.921  0.00  0.00    +0.019 A 
ATOM     38  C   UNL     1       0.799  24.019   5.855  0.00  0.00    +0.120 A 
ATOM     39  N   UNL     1       0.154  23.807   7.069  0.00  0.00    -0.263 NA
ATOM     40  C   UNL     1      -0.998  24.514   7.445  0.00  0.00    +0.111 A 
ENDBRANCH   4   3
ENDBRANCH  10   9
BRANCH  12  13
ATOM     13  N   UNL     1       7.688  26.567  -0.313  0.00  0.00    -0.281 N 
ATOM     14  C   UNL     1       8.724  26.961   0.518  0.00  0.00    +0.248 C 
ATOM     30  O   UNL     1       8.877  26.569   1.666  0.00  0.00    -0.270 OA
ATOM     31  H   UNL     1       7.567  27.111  -1.166  0.00  0.00    +0.155 HD
BRANCH  14  15
ATOM     15  C   UNL     1       9.728  27.942   0.006  0.00  0.00    +0.037 A 
ATOM     16  C   UNL     1      10.135  27.948  -1.402  0.00  0.00    +0.013 A 
ATOM     17  C   UNL     1      11.118  28.895  -1.867  0.00  0.00    +0.005 A 
ATOM     18  C   UNL     1      11.699  29.846  -0.922  0.00  0.00    -0.033 A 
ATOM     28  C   UNL     1      11.273  29.822   0.467  0.00  0.00    +0.005 A 
ATOM     29  C   UNL     1      10.311  28.895   0.927  0.00  0.00    +0.013 A 
BRANCH  18  19
ATOM     19  C   UNL     1      12.769  30.877  -1.326  0.00  0.00    +0.119 C 
BRANCH  19  20
ATOM     20  N   UNL     1      12.309  32.080  -2.083  0.00  0.00    -0.302 NA
ATOM     21  C   UNL     1      13.442  32.718  -2.890  0.00  0.00    +0.066 C 
ATOM     22  C   UNL     1      12.938  33.961  -3.694  0.00  0.00    -0.064 C 
ATOM     23  N   UNL     1      12.324  34.975  -2.727  0.00  0.00    +0.379 N 
ATOM     24  C   UNL     1      11.901  36.170  -3.472  0.00  0.00    -0.096 C 
ATOM     25  H   UNL     1      13.121  35.286  -2.012  0.00  0.00    -0.082 HD
ATOM     26  C   UNL     1      11.198  34.347  -1.917  0.00  0.00    -0.064 C 
ATOM     27  C   UNL     1      11.703  33.096  -1.146  0.00  0.00    +0.066 C 
ENDBRANCH  19  20
ENDBRANCH  18  19
ENDBRANCH  14  15
ENDBRANCH  12  13
TORSDOF 6
ENDMDL
MODEL 4
REMARK VINA RESULT:      -8.8      7.578     13.800
REMARK  Name = C:\Users\Docking\Desktop\test protocol\1iep_ligandH.pdb
REMARK  8 active torsions:
REMARK  status: ('A' for Active; 'I' for Inactive)
REMARK    1  A    between atoms: _5  and  _11
REMARK    2  A    between atoms: _19  and  _21
REMARK    3  A    between atoms: _22  and  _66
REMARK    4  A    between atoms: _27  and  _30
REMARK    5  A    between atoms: _32  and  _33
REMARK    6  A    between atoms: _38  and  _43
REMARK    7  A    between atoms: _43  and  _46
REMARK    8  A    between atoms: _53  and  _55
REMARK                            x       y       z     vdW  Elec       q    Type
REMARK                         _______ _______ _______ _____ _____    ______ ____
ROOT
ATOM     10  C   UNL     1       5.147  23.907  -0.333  0.00  0.00    +0.038 A 
ATOM     11  C   UNL     1       4.966  24.441  -1.635  0.00  0.00    +0.047 A 
ATOM     12  C   UNL     1       5.791  24.002  -2.750  0.00  0.00    +0.035 A 
ATOM     32  C   UNL     1       6.790  23.015  -2.504  0.00  0.00    +0.024 A 
ATOM     33  C   UNL     1       6.989  22.463  -1.187  0.00  0.00    +0.007 A 
ATOM     34  C   UNL     1       6.179  22.894  -0.083  0.00  0.00    -0.029 A 
ATOM     35  C   UNL     1       6.441  22.272   1.309  0.00  0.00    +0.045 C 
ENDROOT
BRANCH  10   9
ATOM      4  C   UNL     1       1.129  23.708   2.284  0.00  0.00    +0.077 A 
ATOM      5  C   UNL     1       0.609  22.618   1.510  0.00  0.00    +0.048 A 
ATOM      6  C   UNL     1       1.403  22.143   0.443  0.00  0.00    +0.116 A 
ATOM      7  N   UNL     1       2.625  22.722   0.178  0.00  0.00    -0.223 NA
ATOM      8  C   UNL     1       3.097  23.772   0.943  0.00  0.00    +0.220 A 
ATOM      9  N   UNL     1       4.327  24.364   0.700  0.00  0.00    -0.283 N 
ATOM     36  H   UNL     1       4.636  25.142   1.283  0.00  0.00    +0.155 HD
ATOM     37  N   UNL     1       2.357  24.245   1.967  0.00  0.00    -0.214 NA
BRANCH   4   3
ATOM      1  C   UNL     1      -1.512  25.597   4.465  0.00  0.00    +0.020 A 
ATOM      2  C   UNL     1      -0.858  25.026   3.311  0.00  0.00    +0.013 A 
ATOM      3  C   UNL     1       0.409  24.319   3.447  0.00  0.00    +0.019 A 
ATOM     38  C   UNL     1       0.992  24.206   4.775  0.00  0.00    +0.120 A 
ATOM     39  N   UNL     1       0.340  24.767   5.868  0.00  0.00    -0.263 NA
ATOM     40  C   UNL     1      -0.879  25.451   5.750  0.00  0.00    +0.111 A 
ENDBRANCH   4   3
ENDBRANCH  10   9
BRANCH  12  13
ATOM     13  N   UNL     1       5.659  24.514  -4.091  0.00  0.00    -0.281 N 
ATOM     14  C   UNL     1       6.351  25.562  -4.675  0.00  0.00    +0.248 C 
ATOM     30  O   UNL     1       7.043  26.361  -4.060  0.00  0.00    -0.270 OA
ATOM     31  H   UNL     1       4.971  24.047  -4.682  0.00  0.00    +0.155 HD
BRANCH  14  15
ATOM     15  C   UNL     1       6.250  25.761  -6.153  0.00  0.00    +0.037 A 
ATOM     16  C   UNL     1       5.329  24.961  -6.965  0.00  0.00    +0.013 A 
ATOM     17  C   UNL     1       5.263  25.161  -8.391  0.00  0.00    +0.005 A 
ATOM     18  C   UNL     1       6.121  26.167  -9.014  0.00  0.00    -0.033 A 
ATOM     28  C   UNL     1       7.021  26.949  -8.183  0.00  0.00    +0.005 A 
ATOM     29  C   UNL     1       7.089  26.755  -6.786  0.00  0.00    +0.013 A 
BRANCH  18  19
ATOM     19  C   UNL     1       6.133  26.433 -10.531  0.00  0.00    +0.119 C 
BRANCH  19  20
ATOM     20  N   UNL     1       6.439  25.277 -11.425  0.00  0.00    -0.302 NA
ATOM     21  C   UNL     1       7.773  24.614 -11.071  0.00  0.00    +0.066 C 
ATOM     22  C   UNL     1       8.067  23.393 -12.002  0.00  0.00    -0.064 C 
ATOM     23  N   UNL     1       8.062  23.854 -13.460  0.00  0.00    +0.379 N 
ATOM     24  C   UNL     1       8.395  22.720 -14.335  0.00  0.00    -0.096 C 
ATOM     25  H   UNL     1       8.866  24.618 -13.575  0.00  0.00    -0.082 HD
ATOM     26  C   UNL     1       6.740  24.517 -13.821  0.00  0.00    -0.064 C 
ATOM     27  C   UNL     1       6.444  25.711 -12.871  0.00  0.00    +0.066 C 
ENDBRANCH  19  20
ENDBRANCH  18  19
ENDBRANCH  14  15
ENDBRANCH  12  13
TORSDOF 6
ENDMDL
MODEL 5
REMARK VINA RESULT:      -8.7      8.347     14.011
REMARK  Name = C:\Users\Docking\Desktop\test protocol\1iep_ligandH.pdb
REMARK  8 active torsions:
REMARK  status: ('A' for Active; 'I' for Inactive)
REMARK    1  A    between atoms: _5  and  _11
REMARK    2  A    between atoms: _19  and  _21
REMARK    3  A    between atoms: _22  and  _66
REMARK    4  A    between atoms: _27  and  _30
REMARK    5  A    between atoms: _32  and  _33
REMARK    6  A    between atoms: _38  and  _43
REMARK    7  A    between atoms: _43  and  _46
REMARK    8  A    between atoms: _53  and  _55
REMARK                            x       y       z     vdW  Elec       q    Type
REMARK                         _______ _______ _______ _____ _____    ______ ____
ROOT
ATOM     10  C   UNL     1       3.365  21.836  -1.223  0.00  0.00    +0.038 A 
ATOM     11  C   UNL     1       3.637  22.661  -2.344  0.00  0.00    +0.047 A 
ATOM     12  C   UNL     1       4.606  22.262  -3.354  0.00  0.00    +0.035 A 
ATOM     32  C   UNL     1       5.277  21.015  -3.192  0.00  0.00    +0.024 A 
ATOM     33  C   UNL     1       5.013  20.165  -2.058  0.00  0.00    +0.007 A 
ATOM     34  C   UNL     1       4.061  20.554  -1.057  0.00  0.00    -0.029 A 
ATOM     35  C   UNL     1       3.823  19.606   0.141  0.00  0.00    +0.045 C 
ENDROOT
BRANCH  10   9
ATOM      4  C   UNL     1       2.132  24.307   2.703  0.00  0.00    +0.077 A 
ATOM      5  C   UNL     1       3.479  24.754   2.916  0.00  0.00    +0.048 A 
ATOM      6  C   UNL     1       4.460  24.320   1.997  0.00  0.00    +0.116 A 
ATOM      7  N   UNL     1       4.110  23.500   0.946  0.00  0.00    -0.223 NA
ATOM      8  C   UNL     1       2.802  23.086   0.770  0.00  0.00    +0.220 A 
ATOM      9  N   UNL     1       2.426  22.268  -0.284  0.00  0.00    -0.283 N 
ATOM     36  H   UNL     1       1.452  21.978  -0.375  0.00  0.00    +0.155 HD
ATOM     37  N   UNL     1       1.847  23.485   1.635  0.00  0.00    -0.214 NA
BRANCH   4   3
ATOM      1  C   UNL     1      -1.244  25.789   4.007  0.00  0.00    +0.020 A 
ATOM      2  C   UNL     1      -0.160  25.453   3.113  0.00  0.00    +0.013 A 
ATOM      3  C   UNL     1       0.983  24.683   3.586  0.00  0.00    +0.019 A 
ATOM     38  C   UNL     1       0.999  24.265   4.980  0.00  0.00    +0.120 A 
ATOM     39  N   UNL     1      -0.058  24.605   5.818  0.00  0.00    -0.263 NA
ATOM     40  C   UNL     1      -1.163  25.347   5.374  0.00  0.00    +0.111 A 
ENDBRANCH   4   3
ENDBRANCH  10   9
BRANCH  12  13
ATOM     13  N   UNL     1       4.929  23.062  -4.510  0.00  0.00    -0.281 N 
ATOM     14  C   UNL     1       6.133  23.679  -4.808  0.00  0.00    +0.248 C 
ATOM     30  O   UNL     1       7.055  23.815  -4.018  0.00  0.00    -0.270 OA
ATOM     31  H   UNL     1       4.180  23.188  -5.190  0.00  0.00    +0.155 HD
BRANCH  14  15
ATOM     15  C   UNL     1       6.336  24.239  -6.179  0.00  0.00    +0.037 A 
ATOM     16  C   UNL     1       7.601  24.054  -6.896  0.00  0.00    +0.013 A 
ATOM     17  C   UNL     1       7.777  24.620  -8.210  0.00  0.00    +0.005 A 
ATOM     18  C   UNL     1       6.684  25.375  -8.817  0.00  0.00    -0.033 A 
ATOM     28  C   UNL     1       5.438  25.539  -8.086  0.00  0.00    +0.005 A 
ATOM     29  C   UNL     1       5.262  24.987  -6.797  0.00  0.00    +0.013 A 
BRANCH  18  19
ATOM     19  C   UNL     1       6.791  26.031 -10.206  0.00  0.00    +0.119 C 
BRANCH  19  20
ATOM     20  N   UNL     1       6.121  25.335 -11.345  0.00  0.00    -0.302 NA
ATOM     21  C   UNL     1       6.175  23.812 -11.198  0.00  0.00    +0.066 C 
ATOM     22  C   UNL     1       5.449  23.099 -12.386  0.00  0.00    -0.064 C 
ATOM     23  N   UNL     1       6.086  23.539 -13.706  0.00  0.00    +0.379 N 
ATOM     24  C   UNL     1       5.445  22.828 -14.821  0.00  0.00    -0.096 C 
ATOM     25  H   UNL     1       7.158  23.235 -13.682  0.00  0.00    -0.082 HD
ATOM     26  C   UNL     1       6.039  25.053 -13.858  0.00  0.00    -0.064 C 
ATOM     27  C   UNL     1       6.737  25.751 -12.658  0.00  0.00    +0.066 C 
ENDBRANCH  19  20
ENDBRANCH  18  19
ENDBRANCH  14  15
ENDBRANCH  12  13
TORSDOF 6
ENDMDL
