MODEL 1
REMARK VINA RESULT:      -8.1      0.000      0.000
REMARK  Name = C:\Users\Docking\Desktop\test protocol\1iep_ligandH.pdb
REMARK  8 active torsions:
REMARK  status: ('A' for Active; 'I' for Inactive)
REMARK    1  A    between atoms: _5  and  _11
REMARK    2  A    between atoms: _19  and  _21
REMARK    3  A    between atoms: _22  and  _66
REMARK    4  A    between atoms: _27  and  _30
REMARK    5  A    between atoms: _32  and  _33
REMARK    6  A    between atoms: _38  and  _43
REMARK    7  A    between atoms: _43  and  _46
REMARK    8  A    between atoms: _53  and  _55
REMARK                            x       y       z     vdW  Elec       q    Type
REMARK                         _______ _______ _______ _____ _____    ______ ____
ROOT
ATOM     10  C   UNL     1      14.218  21.247   8.603  0.00  0.00    +0.038 A 
ATOM     11  C   UNL     1      15.506  21.472   9.152  0.00  0.00    +0.047 A 
ATOM     12  C   UNL     1      16.388  20.363   9.479  0.00  0.00    +0.035 A 
ATOM     32  C   UNL     1      15.928  19.037   9.231  0.00  0.00    +0.024 A 
ATOM     33  C   UNL     1      14.621  18.790   8.674  0.00  0.00    +0.007 A 
ATOM     34  C   UNL     1      13.745  19.880   8.352  0.00  0.00    -0.029 A 
ATOM     35  C   UNL     1      12.352  19.556   7.763  0.00  0.00    +0.045 C 
ENDROOT
BRANCH  10   9
ATOM      4  C   UNL     1      10.818  24.434   9.753  0.00  0.00    +0.077 A 
ATOM      5  C   UNL     1      10.611  23.837  11.041  0.00  0.00    +0.048 A 
ATOM      6  C   UNL     1      11.394  22.707  11.366  0.00  0.00    +0.116 A 
ATOM      7  N   UNL     1      12.314  22.219  10.462  0.00  0.00    -0.223 NA
ATOM      8  C   UNL     1      12.487  22.818   9.228  0.00  0.00    +0.220 A 
ATOM      9  N   UNL     1      13.412  22.349   8.307  0.00  0.00    -0.283 N 
ATOM     36  H   UNL     1      13.505  22.814   7.405  0.00  0.00    +0.155 HD
ATOM     37  N   UNL     1      11.750  23.897   8.893  0.00  0.00    -0.214 NA
BRANCH   4   3
ATOM      1  C   UNL     1       9.891  28.094   8.731  0.00  0.00    +0.020 A 
ATOM      2  C   UNL     1      10.657  26.967   9.211  0.00  0.00    +0.013 A 
ATOM      3  C   UNL     1      10.069  25.635   9.265  0.00  0.00    +0.019 A 
ATOM     38  C   UNL     1       8.692  25.475   8.822  0.00  0.00    +0.120 A 
ATOM     39  N   UNL     1       7.978  26.579   8.366  0.00  0.00    -0.263 NA
ATOM     40  C   UNL     1       8.533  27.866   8.311  0.00  0.00    +0.111 A 
ENDBRANCH   4   3
ENDBRANCH  10   9
BRANCH  12  13
ATOM     13  N   UNL     1      17.704  20.529  10.046  0.00  0.00    -0.281 N 
ATOM     14  C   UNL     1      18.864  20.928   9.403  0.00  0.00    +0.248 C 
ATOM     30  O   UNL     1      18.993  20.997   8.190  0.00  0.00    -0.270 OA
ATOM     31  H   UNL     1      17.790  20.329  11.043  0.00  0.00    +0.155 HD
BRANCH  14  15
ATOM     15  C   UNL     1      20.058  21.289  10.226  0.00  0.00    +0.037 A 
ATOM     16  C   UNL     1      20.529  20.416  11.305  0.00  0.00    +0.013 A 
ATOM     17  C   UNL     1      21.674  20.796  12.095  0.00  0.00    +0.005 A 
ATOM     18  C   UNL     1      22.356  22.056  11.807  0.00  0.00    -0.033 A 
ATOM     28  C   UNL     1      21.871  22.900  10.728  0.00  0.00    +0.005 A 
ATOM     29  C   UNL     1      20.749  22.531   9.952  0.00  0.00    +0.013 A 
BRANCH  18  19
ATOM     19  C   UNL     1      23.572  22.551  12.613  0.00  0.00    +0.119 C 
BRANCH  19  20
ATOM     20  N   UNL     1      23.390  22.731  14.084  0.00  0.00    -0.302 NA
ATOM     21  C   UNL     1      23.309  24.209  14.476  0.00  0.00    +0.066 C 
ATOM     22  C   UNL     1      23.097  24.379  16.015  0.00  0.00    -0.064 C 
ATOM     23  N   UNL     1      24.233  23.682  16.765  0.00  0.00    +0.379 N 
ATOM     24  C   UNL     1      24.067  23.889  18.211  0.00  0.00    -0.096 C 
ATOM     25  H   UNL     1      25.188  24.170  16.460  0.00  0.00    -0.082 HD
ATOM     26  C   UNL     1      24.322  22.212  16.379  0.00  0.00    -0.064 C 
ATOM     27  C   UNL     1      24.504  22.054  14.843  0.00  0.00    +0.066 C 
ENDBRANCH  19  20
ENDBRANCH  18  19
ENDBRANCH  14  15
ENDBRANCH  12  13
TORSDOF 6
ENDMDL
MODEL 2
REMARK VINA RESULT:      -7.9      5.981     13.846
REMARK  Name = C:\Users\Docking\Desktop\test protocol\1iep_ligandH.pdb
REMARK  8 active torsions:
REMARK  status: ('A' for Active; 'I' for Inactive)
REMARK    1  A    between atoms: _5  and  _11
REMARK    2  A    between atoms: _19  and  _21
REMARK    3  A    between atoms: _22  and  _66
REMARK    4  A    between atoms: _27  and  _30
REMARK    5  A    between atoms: _32  and  _33
REMARK    6  A    between atoms: _38  and  _43
REMARK    7  A    between atoms: _43  and  _46
REMARK    8  A    between atoms: _53  and  _55
REMARK                            x       y       z     vdW  Elec       q    Type
REMARK                         _______ _______ _______ _____ _____    ______ ____
ROOT
ATOM     10  C   UNL     1      14.655  23.396   8.260  0.00  0.00    +0.038 A 
ATOM     11  C   UNL     1      13.505  24.200   8.053  0.00  0.00    +0.047 A 
ATOM     12  C   UNL     1      12.215  23.827   8.612  0.00  0.00    +0.035 A 
ATOM     32  C   UNL     1      12.133  22.629   9.380  0.00  0.00    +0.024 A 
ATOM     33  C   UNL     1      13.291  21.799   9.600  0.00  0.00    +0.007 A 
ATOM     34  C   UNL     1      14.566  22.161   9.049  0.00  0.00    -0.029 A 
ATOM     35  C   UNL     1      15.772  21.230   9.311  0.00  0.00    +0.045 C 
ENDROOT
BRANCH  10   9
ATOM      4  C   UNL     1      17.654  23.864   4.543  0.00  0.00    +0.077 A 
ATOM      5  C   UNL     1      16.737  23.222   3.646  0.00  0.00    +0.048 A 
ATOM      6  C   UNL     1      15.507  22.779   4.183  0.00  0.00    +0.116 A 
ATOM      7  N   UNL     1      15.226  22.970   5.518  0.00  0.00    -0.223 NA
ATOM      8  C   UNL     1      16.133  23.592   6.356  0.00  0.00    +0.220 A 
ATOM      9  N   UNL     1      15.868  23.802   7.700  0.00  0.00    -0.283 N 
ATOM     36  H   UNL     1      16.567  24.258   8.287  0.00  0.00    +0.155 HD
ATOM     37  N   UNL     1      17.315  24.023   5.868  0.00  0.00    -0.214 NA
BRANCH   4   3
ATOM      1  C   UNL     1      20.783  26.166   4.084  0.00  0.00    +0.020 A 
ATOM      2  C   UNL     1      19.483  25.706   4.513  0.00  0.00    +0.013 A 
ATOM      3  C   UNL     1      18.992  24.390   4.125  0.00  0.00    +0.019 A 
ATOM     38  C   UNL     1      19.849  23.557   3.295  0.00  0.00    +0.120 A 
ATOM     39  N   UNL     1      21.096  24.026   2.895  0.00  0.00    -0.263 NA
ATOM     40  C   UNL     1      21.578  25.292   3.261  0.00  0.00    +0.111 A 
ENDBRANCH   4   3
ENDBRANCH  10   9
BRANCH  12  13
ATOM     13  N   UNL     1      11.011  24.599   8.428  0.00  0.00    -0.281 N 
ATOM     14  C   UNL     1      10.466  25.542   9.284  0.00  0.00    +0.248 C 
ATOM     30  O   UNL     1      10.818  25.711  10.442  0.00  0.00    -0.270 OA
ATOM     31  H   UNL     1      10.499  24.430   7.562  0.00  0.00    +0.155 HD
BRANCH  14  15
ATOM     15  C   UNL     1       9.358  26.414   8.786  0.00  0.00    +0.037 A 
ATOM     16  C   UNL     1       9.505  27.871   8.729  0.00  0.00    +0.013 A 
ATOM     17  C   UNL     1       8.415  28.690   8.260  0.00  0.00    +0.005 A 
ATOM     18  C   UNL     1       7.169  28.053   7.843  0.00  0.00    -0.033 A 
ATOM     28  C   UNL     1       7.052  26.605   7.904  0.00  0.00    +0.005 A 
ATOM     29  C   UNL     1       8.118  25.799   8.364  0.00  0.00    +0.013 A 
BRANCH  18  19
ATOM     19  C   UNL     1       5.947  28.850   7.349  0.00  0.00    +0.119 C 
BRANCH  19  20
ATOM     20  N   UNL     1       4.596  28.315   7.695  0.00  0.00    -0.302 NA
ATOM     21  C   UNL     1       3.996  27.487   6.555  0.00  0.00    +0.066 C 
ATOM     22  C   UNL     1       2.593  26.916   6.943  0.00  0.00    -0.064 C 
ATOM     23  N   UNL     1       1.664  28.070   7.322  0.00  0.00    +0.379 N 
ATOM     24  C   UNL     1       0.327  27.542   7.631  0.00  0.00    -0.096 C 
ATOM     25  H   UNL     1       1.568  28.734   6.431  0.00  0.00    -0.082 HD
ATOM     26  C   UNL     1       2.254  28.900   8.453  0.00  0.00    -0.064 C 
ATOM     27  C   UNL     1       3.660  29.438   8.069  0.00  0.00    +0.066 C 
ENDBRANCH  19  20
ENDBRANCH  18  19
ENDBRANCH  14  15
ENDBRANCH  12  13
TORSDOF 6
ENDMDL
MODEL 3
REMARK VINA RESULT:      -7.7      7.870     12.756
REMARK  Name = C:\Users\Docking\Desktop\test protocol\1iep_ligandH.pdb
REMARK  8 active torsions:
REMARK  status: ('A' for Active; 'I' for Inactive)
REMARK    1  A    between atoms: _5  and  _11
REMARK    2  A    between atoms: _19  and  _21
REMARK    3  A    between atoms: _22  and  _66
REMARK    4  A    between atoms: _27  and  _30
REMARK    5  A    between atoms: _32  and  _33
REMARK    6  A    between atoms: _38  and  _43
REMARK    7  A    between atoms: _43  and  _46
REMARK    8  A    between atoms: _53  and  _55
REMARK                            x       y       z     vdW  Elec       q    Type
REMARK                         _______ _______ _______ _____ _____    ______ ____
ROOT
ATOM     10  C   UNL     1      20.203  25.791   3.921  0.00  0.00    +0.038 A 
ATOM     11  C   UNL     1      18.881  25.650   4.417  0.00  0.00    +0.047 A 
ATOM     12  C   UNL     1      18.232  24.350   4.471  0.00  0.00    +0.035 A 
ATOM     32  C   UNL     1      18.960  23.212   4.014  0.00  0.00    +0.024 A 
ATOM     33  C   UNL     1      20.303  23.337   3.507  0.00  0.00    +0.007 A 
ATOM     34  C   UNL     1      20.948  24.618   3.449  0.00  0.00    -0.029 A 
ATOM     35  C   UNL     1      22.387  24.693   2.889  0.00  0.00    +0.045 C 
ENDROOT
BRANCH  10   9
ATOM      4  C   UNL     1      21.457  29.817   1.629  0.00  0.00    +0.077 A 
ATOM      5  C   UNL     1      20.948  29.334   0.378  0.00  0.00    +0.048 A 
ATOM      6  C   UNL     1      20.378  28.041   0.366  0.00  0.00    +0.116 A 
ATOM      7  N   UNL     1      20.326  27.296   1.524  0.00  0.00    -0.223 NA
ATOM      8  C   UNL     1      20.827  27.792   2.714  0.00  0.00    +0.220 A 
ATOM      9  N   UNL     1      20.777  27.064   3.892  0.00  0.00    -0.283 N 
ATOM     36  H   UNL     1      21.164  27.461   4.748  0.00  0.00    +0.155 HD
ATOM     37  N   UNL     1      21.377  29.023   2.752  0.00  0.00    -0.214 NA
BRANCH   4   3
ATOM      1  C   UNL     1      23.743  32.958   1.171  0.00  0.00    +0.020 A 
ATOM      2  C   UNL     1      23.171  31.648   0.961  0.00  0.00    +0.013 A 
ATOM      3  C   UNL     1      22.085  31.165   1.804  0.00  0.00    +0.019 A 
ATOM     38  C   UNL     1      21.597  32.039   2.860  0.00  0.00    +0.120 A 
ATOM     39  N   UNL     1      22.168  33.295   3.040  0.00  0.00    -0.263 NA
ATOM     40  C   UNL     1      23.214  33.770   2.236  0.00  0.00    +0.111 A 
ENDBRANCH   4   3
ENDBRANCH  10   9
BRANCH  12  13
ATOM     13  N   UNL     1      16.890  24.147   4.956  0.00  0.00    -0.281 N 
ATOM     14  C   UNL     1      16.421  23.122   5.762  0.00  0.00    +0.248 C 
ATOM     30  O   UNL     1      17.044  22.101   6.014  0.00  0.00    -0.270 OA
ATOM     31  H   UNL     1      16.201  24.843   4.670  0.00  0.00    +0.155 HD
BRANCH  14  15
ATOM     15  C   UNL     1      15.058  23.242   6.363  0.00  0.00    +0.037 A 
ATOM     16  C   UNL     1      13.860  23.314   5.522  0.00  0.00    +0.013 A 
ATOM     17  C   UNL     1      12.559  23.446   6.126  0.00  0.00    +0.005 A 
ATOM     18  C   UNL     1      12.448  23.506   7.582  0.00  0.00    -0.033 A 
ATOM     28  C   UNL     1      13.652  23.427   8.393  0.00  0.00    +0.005 A 
ATOM     29  C   UNL     1      14.929  23.298   7.803  0.00  0.00    +0.013 A 
BRANCH  18  19
ATOM     19  C   UNL     1      11.102  23.668   8.312  0.00  0.00    +0.119 C 
BRANCH  19  20
ATOM     20  N   UNL     1      10.383  24.966   8.141  0.00  0.00    -0.302 NA
ATOM     21  C   UNL     1      11.031  26.092   8.951  0.00  0.00    +0.066 C 
ATOM     22  C   UNL     1      10.280  27.448   8.743  0.00  0.00    -0.064 C 
ATOM     23  N   UNL     1       8.810  27.278   9.132  0.00  0.00    +0.379 N 
ATOM     24  C   UNL     1       8.114  28.565   8.993  0.00  0.00    -0.096 C 
ATOM     25  H   UNL     1       8.777  26.990  10.208  0.00  0.00    -0.082 HD
ATOM     26  C   UNL     1       8.159  26.158   8.333  0.00  0.00    -0.064 C 
ATOM     27  C   UNL     1       8.930  24.822   8.524  0.00  0.00    +0.066 C 
ENDBRANCH  19  20
ENDBRANCH  18  19
ENDBRANCH  14  15
ENDBRANCH  12  13
TORSDOF 6
ENDMDL
MODEL 4
REMARK VINA RESULT:      -7.7      8.328     16.378
REMARK  Name = C:\Users\Docking\Desktop\test protocol\1iep_ligandH.pdb
REMARK  8 active torsions:
REMARK  status: ('A' for Active; 'I' for Inactive)
REMARK    1  A    between atoms: _5  and  _11
REMARK    2  A    between atoms: _19  and  _21
REMARK    3  A    between atoms: _22  and  _66
REMARK    4  A    between atoms: _27  and  _30
REMARK    5  A    between atoms: _32  and  _33
REMARK    6  A    between atoms: _38  and  _43
REMARK    7  A    between atoms: _43  and  _46
REMARK    8  A    between atoms: _53  and  _55
REMARK                            x       y       z     vdW  Elec       q    Type
REMARK                         _______ _______ _______ _____ _____    ______ ____
ROOT
ATOM     10  C   UNL     1       9.321  25.580   8.364  0.00  0.00    +0.038 A 
ATOM     11  C   UNL     1       7.962  25.981   8.299  0.00  0.00    +0.047 A 
ATOM     12  C   UNL     1       7.598  27.382   8.157  0.00  0.00    +0.035 A 
ATOM     32  C   UNL     1       8.643  28.348   8.081  0.00  0.00    +0.024 A 
ATOM     33  C   UNL     1      10.030  27.958   8.146  0.00  0.00    +0.007 A 
ATOM     34  C   UNL     1      10.395  26.577   8.289  0.00  0.00    -0.029 A 
ATOM     35  C   UNL     1      11.897  26.217   8.360  0.00  0.00    +0.045 C 
ENDROOT
BRANCH  10   9
ATOM      4  C   UNL     1      10.620  21.772  10.982  0.00  0.00    +0.077 A 
ATOM      5  C   UNL     1      10.752  22.562  12.172  0.00  0.00    +0.048 A 
ATOM      6  C   UNL     1      10.483  23.945  12.067  0.00  0.00    +0.116 A 
ATOM      7  N   UNL     1      10.111  24.487  10.856  0.00  0.00    -0.223 NA
ATOM      8  C   UNL     1       9.995  23.698   9.726  0.00  0.00    +0.220 A 
ATOM      9  N   UNL     1       9.614  24.221   8.500  0.00  0.00    -0.283 N 
ATOM     36  H   UNL     1       9.547  23.607   7.689  0.00  0.00    +0.155 HD
ATOM     37  N   UNL     1      10.247  22.375   9.801  0.00  0.00    -0.214 NA
BRANCH   4   3
ATOM      1  C   UNL     1      10.690  17.968  11.887  0.00  0.00    +0.020 A 
ATOM      2  C   UNL     1      10.427  19.385  11.982  0.00  0.00    +0.013 A 
ATOM      3  C   UNL     1      10.866  20.296  10.933  0.00  0.00    +0.019 A 
ATOM     38  C   UNL     1      11.574  19.737   9.792  0.00  0.00    +0.120 A 
ATOM     39  N   UNL     1      11.814  18.368   9.728  0.00  0.00    -0.263 NA
ATOM     40  C   UNL     1      11.397  17.481  10.732  0.00  0.00    +0.111 A 
ENDBRANCH   4   3
ENDBRANCH  10   9
BRANCH  12  13
ATOM     13  N   UNL     1       6.235  27.850   8.093  0.00  0.00    -0.281 N 
ATOM     14  C   UNL     1       5.226  27.421   7.247  0.00  0.00    +0.248 C 
ATOM     30  O   UNL     1       5.400  26.714   6.266  0.00  0.00    -0.270 OA
ATOM     31  H   UNL     1       5.985  28.588   8.752  0.00  0.00    +0.155 HD
BRANCH  14  15
ATOM     15  C   UNL     1       3.821  27.852   7.523  0.00  0.00    +0.037 A 
ATOM     16  C   UNL     1       2.688  26.959   7.266  0.00  0.00    +0.013 A 
ATOM     17  C   UNL     1       1.342  27.405   7.525  0.00  0.00    +0.005 A 
ATOM     18  C   UNL     1       1.122  28.752   8.045  0.00  0.00    -0.033 A 
ATOM     28  C   UNL     1       2.264  29.615   8.296  0.00  0.00    +0.005 A 
ATOM     29  C   UNL     1       3.585  29.182   8.043  0.00  0.00    +0.013 A 
BRANCH  18  19
ATOM     19  C   UNL     1      -0.281  29.319   8.330  0.00  0.00    +0.119 C 
BRANCH  19  20
ATOM     20  N   UNL     1      -0.637  29.577   9.758  0.00  0.00    -0.302 NA
ATOM     21  C   UNL     1      -1.505  28.459  10.344  0.00  0.00    +0.066 C 
ATOM     22  C   UNL     1      -1.849  28.734  11.844  0.00  0.00    -0.064 C 
ATOM     23  N   UNL     1      -2.555  30.086  11.963  0.00  0.00    +0.379 N 
ATOM     24  C   UNL     1      -2.932  30.320  13.365  0.00  0.00    -0.096 C 
ATOM     25  H   UNL     1      -3.494  30.031  11.364  0.00  0.00    -0.082 HD
ATOM     26  C   UNL     1      -1.700  31.202  11.380  0.00  0.00    -0.064 C 
ATOM     27  C   UNL     1      -1.339  30.905   9.898  0.00  0.00    +0.066 C 
ENDBRANCH  19  20
ENDBRANCH  18  19
ENDBRANCH  14  15
ENDBRANCH  12  13
TORSDOF 6
ENDMDL
MODEL 5
REMARK VINA RESULT:      -7.6      5.828      8.025
REMARK  Name = C:\Users\Docking\Desktop\test protocol\1iep_ligandH.pdb
REMARK  8 active torsions:
REMARK  status: ('A' for Active; 'I' for Inactive)
REMARK    1  A    between atoms: _5  and  _11
REMARK    2  A    between atoms: _19  and  _21
REMARK    3  A    between atoms: _22  and  _66
REMARK    4  A    between atoms: _27  and  _30
REMARK    5  A    between atoms: _32  and  _33
REMARK    6  A    between atoms: _38  and  _43
REMARK    7  A    between atoms: _43  and  _46
REMARK    8  A    between atoms: _53  and  _55
REMARK                            x       y       z     vdW  Elec       q    Type
REMARK                         _______ _______ _______ _____ _____    ______ ____
ROOT
ATOM     10  C   UNL     1      12.878  23.297   8.087  0.00  0.00    +0.038 A 
ATOM     11  C   UNL     1      14.055  23.673   7.390  0.00  0.00    +0.047 A 
ATOM     12  C   UNL     1      15.372  23.302   7.884  0.00  0.00    +0.035 A 
ATOM     32  C   UNL     1      15.453  22.546   9.090  0.00  0.00    +0.024 A 
ATOM     33  C   UNL     1      14.267  22.157   9.811  0.00  0.00    +0.007 A 
ATOM     34  C   UNL     1      12.965  22.522   9.330  0.00  0.00    -0.029 A 
ATOM     35  C   UNL     1      11.728  22.083  10.148  0.00  0.00    +0.045 C 
ENDROOT
BRANCH  10   9
ATOM      4  C   UNL     1       9.239  26.399   7.668  0.00  0.00    +0.077 A 
ATOM      5  C   UNL     1       9.844  27.323   8.583  0.00  0.00    +0.048 A 
ATOM      6  C   UNL     1      11.089  26.960   9.144  0.00  0.00    +0.116 A 
ATOM      7  N   UNL     1      11.675  25.759   8.809  0.00  0.00    -0.223 NA
ATOM      8  C   UNL     1      11.063  24.889   7.925  0.00  0.00    +0.220 A 
ATOM      9  N   UNL     1      11.639  23.680   7.567  0.00  0.00    -0.283 N 
ATOM     36  H   UNL     1      11.152  23.062   6.918  0.00  0.00    +0.155 HD
ATOM     37  N   UNL     1       9.874  25.212   7.376  0.00  0.00    -0.214 NA
BRANCH   4   3
ATOM      1  C   UNL     1       5.453  27.140   7.018  0.00  0.00    +0.020 A 
ATOM      2  C   UNL     1       6.695  26.912   7.721  0.00  0.00    +0.013 A 
ATOM      3  C   UNL     1       7.926  26.641   6.990  0.00  0.00    +0.019 A 
ATOM     38  C   UNL     1       7.867  26.609   5.537  0.00  0.00    +0.120 A 
ATOM     39  N   UNL     1       6.657  26.831   4.886  0.00  0.00    -0.263 NA
ATOM     40  C   UNL     1       5.465  27.091   5.579  0.00  0.00    +0.111 A 
ENDBRANCH   4   3
ENDBRANCH  10   9
BRANCH  12  13
ATOM     13  N   UNL     1      16.602  23.662   7.224  0.00  0.00    -0.281 N 
ATOM     14  C   UNL     1      17.261  22.976   6.217  0.00  0.00    +0.248 C 
ATOM     30  O   UNL     1      17.001  21.832   5.876  0.00  0.00    -0.270 OA
ATOM     31  H   UNL     1      17.041  24.528   7.538  0.00  0.00    +0.155 HD
BRANCH  14  15
ATOM     15  C   UNL     1      18.379  23.654   5.493  0.00  0.00    +0.037 A 
ATOM     16  C   UNL     1      18.135  24.820   4.639  0.00  0.00    +0.013 A 
ATOM     17  C   UNL     1      19.229  25.444   3.939  0.00  0.00    +0.005 A 
ATOM     18  C   UNL     1      20.578  24.905   4.090  0.00  0.00    -0.033 A 
ATOM     28  C   UNL     1      20.792  23.751   4.947  0.00  0.00    +0.005 A 
ATOM     29  C   UNL     1      19.722  23.135   5.635  0.00  0.00    +0.013 A 
BRANCH  18  19
ATOM     19  C   UNL     1      21.801  25.495   3.364  0.00  0.00    +0.119 C 
BRANCH  19  20
ATOM     20  N   UNL     1      22.296  24.767   2.157  0.00  0.00    -0.302 NA
ATOM     21  C   UNL     1      23.523  23.906   2.468  0.00  0.00    +0.066 C 
ATOM     22  C   UNL     1      24.014  23.135   1.200  0.00  0.00    -0.064 C 
ATOM     23  N   UNL     1      24.324  24.136   0.086  0.00  0.00    +0.379 N 
ATOM     24  C   UNL     1      24.840  23.419  -1.089  0.00  0.00    -0.096 C 
ATOM     25  H   UNL     1      25.132  24.811   0.453  0.00  0.00    -0.082 HD
ATOM     26  C   UNL     1      23.110  24.999  -0.228  0.00  0.00    -0.064 C 
ATOM     27  C   UNL     1      22.612  25.738   1.045  0.00  0.00    +0.066 C 
ENDBRANCH  19  20
ENDBRANCH  18  19
ENDBRANCH  14  15
ENDBRANCH  12  13
TORSDOF 6
ENDMDL
