MODEL 1
REMARK VINA RESULT:      -8.5      0.000      0.000
REMARK  Name = C:\Users\Docking\Desktop\test protocol\1iep_ligandH.pdb
REMARK  8 active torsions:
REMARK  status: ('A' for Active; 'I' for Inactive)
REMARK    1  A    between atoms: _5  and  _11
REMARK    2  A    between atoms: _19  and  _21
REMARK    3  A    between atoms: _22  and  _66
REMARK    4  A    between atoms: _27  and  _30
REMARK    5  A    between atoms: _32  and  _33
REMARK    6  A    between atoms: _38  and  _43
REMARK    7  A    between atoms: _43  and  _46
REMARK    8  A    between atoms: _53  and  _55
REMARK                            x       y       z     vdW  Elec       q    Type
REMARK                         _______ _______ _______ _____ _____    ______ ____
ROOT
ATOM     10  C   UNL     1      60.516  63.674  15.282  0.00  0.00    +0.038 A 
ATOM     11  C   UNL     1      60.495  63.202  16.620  0.00  0.00    +0.047 A 
ATOM     12  C   UNL     1      60.185  64.092  17.728  0.00  0.00    +0.035 A 
ATOM     32  C   UNL     1      59.897  65.457  17.437  0.00  0.00    +0.024 A 
ATOM     33  C   UNL     1      59.914  65.954  16.084  0.00  0.00    +0.007 A 
ATOM     34  C   UNL     1      60.222  65.082  14.987  0.00  0.00    -0.029 A 
ATOM     35  C   UNL     1      60.232  65.671  13.557  0.00  0.00    +0.045 C 
ENDROOT
BRANCH  10   9
ATOM      4  C   UNL     1      63.602  61.613  12.239  0.00  0.00    +0.077 A 
ATOM      5  C   UNL     1      64.695  62.413  12.713  0.00  0.00    +0.048 A 
ATOM      6  C   UNL     1      64.419  63.347  13.736  0.00  0.00    +0.116 A 
ATOM      7  N   UNL     1      63.142  63.465  14.240  0.00  0.00    -0.223 NA
ATOM      8  C   UNL     1      62.111  62.680  13.760  0.00  0.00    +0.220 A 
ATOM      9  N   UNL     1      60.820  62.776  14.257  0.00  0.00    -0.283 N 
ATOM     36  H   UNL     1      60.085  62.184  13.871  0.00  0.00    +0.155 HD
ATOM     37  N   UNL     1      62.348  61.781  12.782  0.00  0.00    -0.214 NA
BRANCH   4   3
ATOM      1  C   UNL     1      62.871  59.311   9.163  0.00  0.00    +0.020 A 
ATOM      2  C   UNL     1      62.692  60.320  10.181  0.00  0.00    +0.013 A 
ATOM      3  C   UNL     1      63.736  60.580  11.164  0.00  0.00    +0.019 A 
ATOM     38  C   UNL     1      64.959  59.795  11.089  0.00  0.00    +0.120 A 
ATOM     39  N   UNL     1      65.103  58.828  10.099  0.00  0.00    -0.263 NA
ATOM     40  C   UNL     1      64.104  58.568   9.148  0.00  0.00    +0.111 A 
ENDBRANCH   4   3
ENDBRANCH  10   9
BRANCH  12  13
ATOM     13  N   UNL     1      60.157  63.671  19.106  0.00  0.00    -0.281 N 
ATOM     14  C   UNL     1      61.015  64.044  20.128  0.00  0.00    +0.248 C 
ATOM     30  O   UNL     1      62.071  64.635  19.962  0.00  0.00    -0.270 OA
ATOM     31  H   UNL     1      59.415  63.018  19.360  0.00  0.00    +0.155 HD
BRANCH  14  15
ATOM     15  C   UNL     1      60.653  63.698  21.537  0.00  0.00    +0.037 A 
ATOM     16  C   UNL     1      61.236  64.422  22.670  0.00  0.00    +0.013 A 
ATOM     17  C   UNL     1      60.883  64.057  24.019  0.00  0.00    +0.005 A 
ATOM     18  C   UNL     1      59.941  62.963  24.242  0.00  0.00    -0.033 A 
ATOM     28  C   UNL     1      59.374  62.265  23.099  0.00  0.00    +0.005 A 
ATOM     29  C   UNL     1      59.718  62.620  21.776  0.00  0.00    +0.013 A 
BRANCH  18  19
ATOM     19  C   UNL     1      59.524  62.492  25.648  0.00  0.00    +0.119 C 
BRANCH  19  20
ATOM     20  N   UNL     1      60.435  61.538  26.348  0.00  0.00    -0.302 NA
ATOM     21  C   UNL     1      61.277  62.231  27.423  0.00  0.00    +0.066 C 
ATOM     22  C   UNL     1      62.208  61.214  28.160  0.00  0.00    -0.064 C 
ATOM     23  N   UNL     1      63.104  60.514  27.138  0.00  0.00    +0.379 N 
ATOM     24  C   UNL     1      64.021  59.600  27.834  0.00  0.00    -0.096 C 
ATOM     25  H   UNL     1      63.722  61.296  26.638  0.00  0.00    -0.082 HD
ATOM     26  C   UNL     1      62.275  59.824  26.063  0.00  0.00    -0.064 C 
ATOM     27  C   UNL     1      61.332  60.838  25.357  0.00  0.00    +0.066 C 
ENDBRANCH  19  20
ENDBRANCH  18  19
ENDBRANCH  14  15
ENDBRANCH  12  13
TORSDOF 6
ENDMDL
MODEL 2
REMARK VINA RESULT:      -8.5      1.448      2.084
REMARK  Name = C:\Users\Docking\Desktop\test protocol\1iep_ligandH.pdb
REMARK  8 active torsions:
REMARK  status: ('A' for Active; 'I' for Inactive)
REMARK    1  A    between atoms: _5  and  _11
REMARK    2  A    between atoms: _19  and  _21
REMARK    3  A    between atoms: _22  and  _66
REMARK    4  A    between atoms: _27  and  _30
REMARK    5  A    between atoms: _32  and  _33
REMARK    6  A    between atoms: _38  and  _43
REMARK    7  A    between atoms: _43  and  _46
REMARK    8  A    between atoms: _53  and  _55
REMARK                            x       y       z     vdW  Elec       q    Type
REMARK                         _______ _______ _______ _____ _____    ______ ____
ROOT
ATOM     10  C   UNL     1      60.981  63.816  14.909  0.00  0.00    +0.038 A 
ATOM     11  C   UNL     1      61.021  63.389  16.261  0.00  0.00    +0.047 A 
ATOM     12  C   UNL     1      60.441  64.197  17.322  0.00  0.00    +0.035 A 
ATOM     32  C   UNL     1      59.825  65.434  16.970  0.00  0.00    +0.024 A 
ATOM     33  C   UNL     1      59.777  65.883  15.601  0.00  0.00    +0.007 A 
ATOM     34  C   UNL     1      60.349  65.091  14.550  0.00  0.00    -0.029 A 
ATOM     35  C   UNL     1      60.274  65.625  13.101  0.00  0.00    +0.045 C 
ENDROOT
BRANCH  10   9
ATOM      4  C   UNL     1      61.176  59.743  12.375  0.00  0.00    +0.077 A 
ATOM      5  C   UNL     1      60.059  59.183  13.080  0.00  0.00    +0.048 A 
ATOM      6  C   UNL     1      59.467  59.972  14.091  0.00  0.00    +0.116 A 
ATOM      7  N   UNL     1      59.963  61.227  14.369  0.00  0.00    -0.223 NA
ATOM      8  C   UNL     1      61.043  61.737  13.672  0.00  0.00    +0.220 A 
ATOM      9  N   UNL     1      61.554  63.000  13.930  0.00  0.00    -0.283 N 
ATOM     36  H   UNL     1      62.356  63.337  13.399  0.00  0.00    +0.155 HD
ATOM     37  N   UNL     1      61.627  61.003  12.702  0.00  0.00    -0.214 NA
BRANCH   4   3
ATOM      1  C   UNL     1      62.372  57.009   9.847  0.00  0.00    +0.020 A 
ATOM      2  C   UNL     1      61.639  57.647  10.916  0.00  0.00    +0.013 A 
ATOM      3  C   UNL     1      61.905  59.034  11.277  0.00  0.00    +0.019 A 
ATOM     38  C   UNL     1      62.927  59.752  10.531  0.00  0.00    +0.120 A 
ATOM     39  N   UNL     1      63.617  59.111   9.507  0.00  0.00    -0.263 NA
ATOM     40  C   UNL     1      63.371  57.776   9.152  0.00  0.00    +0.111 A 
ENDBRANCH   4   3
ENDBRANCH  10   9
BRANCH  12  13
ATOM     13  N   UNL     1      60.459  63.820  18.714  0.00  0.00    -0.281 N 
ATOM     14  C   UNL     1      61.105  64.457  19.760  0.00  0.00    +0.248 C 
ATOM     30  O   UNL     1      61.947  65.333  19.623  0.00  0.00    -0.270 OA
ATOM     31  H   UNL     1      59.931  62.982  18.956  0.00  0.00    +0.155 HD
BRANCH  14  15
ATOM     15  C   UNL     1      60.781  64.052  21.162  0.00  0.00    +0.037 A 
ATOM     16  C   UNL     1      61.271  64.823  22.308  0.00  0.00    +0.013 A 
ATOM     17  C   UNL     1      60.957  64.401  23.650  0.00  0.00    +0.005 A 
ATOM     18  C   UNL     1      60.148  63.201  23.854  0.00  0.00    -0.033 A 
ATOM     28  C   UNL     1      59.671  62.459  22.699  0.00  0.00    +0.005 A 
ATOM     29  C   UNL     1      59.977  62.869  21.382  0.00  0.00    +0.013 A 
BRANCH  18  19
ATOM     19  C   UNL     1      59.783  62.666  25.251  0.00  0.00    +0.119 C 
BRANCH  19  20
ATOM     20  N   UNL     1      60.860  61.976  26.021  0.00  0.00    -0.302 NA
ATOM     21  C   UNL     1      61.144  60.572  25.480  0.00  0.00    +0.066 C 
ATOM     22  C   UNL     1      62.289  59.873  26.284  0.00  0.00    -0.064 C 
ATOM     23  N   UNL     1      61.908  59.816  27.764  0.00  0.00    +0.379 N 
ATOM     24  C   UNL     1      62.956  59.108  28.514  0.00  0.00    -0.096 C 
ATOM     25  H   UNL     1      60.970  59.220  27.849  0.00  0.00    -0.082 HD
ATOM     26  C   UNL     1      61.621  61.208  28.310  0.00  0.00    -0.064 C 
ATOM     27  C   UNL     1      60.502  61.905  27.486  0.00  0.00    +0.066 C 
ENDBRANCH  19  20
ENDBRANCH  18  19
ENDBRANCH  14  15
ENDBRANCH  12  13
TORSDOF 6
ENDMDL
MODEL 3
REMARK VINA RESULT:      -7.6      5.411     10.008
REMARK  Name = C:\Users\Docking\Desktop\test protocol\1iep_ligandH.pdb
REMARK  8 active torsions:
REMARK  status: ('A' for Active; 'I' for Inactive)
REMARK    1  A    between atoms: _5  and  _11
REMARK    2  A    between atoms: _19  and  _21
REMARK    3  A    between atoms: _22  and  _66
REMARK    4  A    between atoms: _27  and  _30
REMARK    5  A    between atoms: _32  and  _33
REMARK    6  A    between atoms: _38  and  _43
REMARK    7  A    between atoms: _43  and  _46
REMARK    8  A    between atoms: _53  and  _55
REMARK                            x       y       z     vdW  Elec       q    Type
REMARK                         _______ _______ _______ _____ _____    ______ ____
ROOT
ATOM     10  C   UNL     1      64.150  57.356   8.528  0.00  0.00    +0.038 A 
ATOM     11  C   UNL     1      63.509  58.474   9.119  0.00  0.00    +0.047 A 
ATOM     12  C   UNL     1      62.402  58.302  10.047  0.00  0.00    +0.035 A 
ATOM     32  C   UNL     1      61.976  56.977  10.353  0.00  0.00    +0.024 A 
ATOM     33  C   UNL     1      62.616  55.829   9.760  0.00  0.00    +0.007 A 
ATOM     34  C   UNL     1      63.707  55.992   8.842  0.00  0.00    -0.029 A 
ATOM     35  C   UNL     1      64.351  54.726   8.231  0.00  0.00    +0.045 C 
ENDROOT
BRANCH  10   9
ATOM      4  C   UNL     1      68.811  58.002   7.581  0.00  0.00    +0.077 A 
ATOM      5  C   UNL     1      69.166  57.914   8.969  0.00  0.00    +0.048 A 
ATOM      6  C   UNL     1      68.118  57.710   9.895  0.00  0.00    +0.116 A 
ATOM      7  N   UNL     1      66.817  57.602   9.454  0.00  0.00    -0.223 NA
ATOM      8  C   UNL     1      66.509  57.692   8.109  0.00  0.00    +0.220 A 
ATOM      9  N   UNL     1      65.208  57.579   7.644  0.00  0.00    -0.283 N 
ATOM     36  H   UNL     1      65.022  57.659   6.644  0.00  0.00    +0.155 HD
ATOM     37  N   UNL     1      67.491  57.889   7.205  0.00  0.00    -0.214 NA
BRANCH   4   3
ATOM      1  C   UNL     1      72.024  59.029   5.601  0.00  0.00    +0.020 A 
ATOM      2  C   UNL     1      71.100  58.849   6.696  0.00  0.00    +0.013 A 
ATOM      3  C   UNL     1      69.806  58.213   6.483  0.00  0.00    +0.019 A 
ATOM     38  C   UNL     1      69.477  57.765   5.138  0.00  0.00    +0.120 A 
ATOM     39  N   UNL     1      70.387  57.952   4.102  0.00  0.00    -0.263 NA
ATOM     40  C   UNL     1      71.634  58.565   4.296  0.00  0.00    +0.111 A 
ENDBRANCH   4   3
ENDBRANCH  10   9
BRANCH  12  13
ATOM     13  N   UNL     1      61.706  59.400  10.673  0.00  0.00    -0.281 N 
ATOM     14  C   UNL     1      61.512  59.624  12.026  0.00  0.00    +0.248 C 
ATOM     30  O   UNL     1      61.724  58.798  12.901  0.00  0.00    -0.270 OA
ATOM     31  H   UNL     1      61.310  60.096  10.041  0.00  0.00    +0.155 HD
BRANCH  14  15
ATOM     15  C   UNL     1      60.993  60.954  12.470  0.00  0.00    +0.037 A 
ATOM     16  C   UNL     1      61.262  62.171  11.699  0.00  0.00    +0.013 A 
ATOM     17  C   UNL     1      60.765  63.443  12.159  0.00  0.00    +0.005 A 
ATOM     18  C   UNL     1      59.991  63.504  13.396  0.00  0.00    -0.033 A 
ATOM     28  C   UNL     1      59.734  62.281  14.138  0.00  0.00    +0.005 A 
ATOM     29  C   UNL     1      60.221  61.033  13.691  0.00  0.00    +0.013 A 
BRANCH  18  19
ATOM     19  C   UNL     1      59.438  64.822  13.973  0.00  0.00    +0.119 C 
BRANCH  19  20
ATOM     20  N   UNL     1      60.094  65.357  15.203  0.00  0.00    -0.302 NA
ATOM     21  C   UNL     1      61.607  65.119  15.198  0.00  0.00    +0.066 C 
ATOM     22  C   UNL     1      62.280  65.706  16.481  0.00  0.00    -0.064 C 
ATOM     23  N   UNL     1      61.637  65.082  17.721  0.00  0.00    +0.379 N 
ATOM     24  C   UNL     1      62.307  65.588  18.928  0.00  0.00    -0.096 C 
ATOM     25  H   UNL     1      61.810  63.982  17.674  0.00  0.00    -0.082 HD
ATOM     26  C   UNL     1      60.133  65.312  17.733  0.00  0.00    -0.064 C 
ATOM     27  C   UNL     1      59.478  64.751  16.440  0.00  0.00    +0.066 C 
ENDBRANCH  19  20
ENDBRANCH  18  19
ENDBRANCH  14  15
ENDBRANCH  12  13
TORSDOF 6
ENDMDL
MODEL 4
REMARK VINA RESULT:      -7.3      9.892     14.666
REMARK  Name = C:\Users\Docking\Desktop\test protocol\1iep_ligandH.pdb
REMARK  8 active torsions:
REMARK  status: ('A' for Active; 'I' for Inactive)
REMARK    1  A    between atoms: _5  and  _11
REMARK    2  A    between atoms: _19  and  _21
REMARK    3  A    between atoms: _22  and  _66
REMARK    4  A    between atoms: _27  and  _30
REMARK    5  A    between atoms: _32  and  _33
REMARK    6  A    between atoms: _38  and  _43
REMARK    7  A    between atoms: _43  and  _46
REMARK    8  A    between atoms: _53  and  _55
REMARK                            x       y       z     vdW  Elec       q    Type
REMARK                         _______ _______ _______ _____ _____    ______ ____
ROOT
ATOM     10  C   UNL     1      56.755  58.341  15.832  0.00  0.00    +0.038 A 
ATOM     11  C   UNL     1      55.744  58.308  14.838  0.00  0.00    +0.047 A 
ATOM     12  C   UNL     1      55.151  57.050  14.409  0.00  0.00    +0.035 A 
ATOM     32  C   UNL     1      55.611  55.845  15.015  0.00  0.00    +0.024 A 
ATOM     33  C   UNL     1      56.640  55.860  16.026  0.00  0.00    +0.007 A 
ATOM     34  C   UNL     1      57.230  57.097  16.451  0.00  0.00    -0.029 A 
ATOM     35  C   UNL     1      58.333  57.053  17.534  0.00  0.00    +0.045 C 
ENDROOT
BRANCH  10   9
ATOM      4  C   UNL     1      59.842  61.970  15.247  0.00  0.00    +0.077 A 
ATOM      5  C   UNL     1      60.461  61.339  14.117  0.00  0.00    +0.048 A 
ATOM      6  C   UNL     1      59.961  60.078  13.723  0.00  0.00    +0.116 A 
ATOM      7  N   UNL     1      58.918  59.500  14.414  0.00  0.00    -0.223 NA
ATOM      8  C   UNL     1      58.344  60.135  15.501  0.00  0.00    +0.220 A 
ATOM      9  N   UNL     1      57.289  59.576  16.206  0.00  0.00    -0.283 N 
ATOM     36  H   UNL     1      56.899  60.072  17.006  0.00  0.00    +0.155 HD
ATOM     37  N   UNL     1      58.805  61.339  15.898  0.00  0.00    -0.214 NA
BRANCH   4   3
ATOM      1  C   UNL     1      59.942  65.308  17.283  0.00  0.00    +0.020 A 
ATOM      2  C   UNL     1      59.497  64.022  16.799  0.00  0.00    +0.013 A 
ATOM      3  C   UNL     1      60.257  63.305  15.783  0.00  0.00    +0.019 A 
ATOM     38  C   UNL     1      61.473  63.922  15.273  0.00  0.00    +0.120 A 
ATOM     39  N   UNL     1      61.875  65.163  15.757  0.00  0.00    -0.263 NA
ATOM     40  C   UNL     1      61.151  65.863  16.734  0.00  0.00    +0.111 A 
ENDBRANCH   4   3
ENDBRANCH  10   9
BRANCH  12  13
ATOM     13  N   UNL     1      54.127  56.954  13.399  0.00  0.00    -0.281 N 
ATOM     14  C   UNL     1      52.791  57.306  13.505  0.00  0.00    +0.248 C 
ATOM     30  O   UNL     1      52.224  57.559  14.558  0.00  0.00    -0.270 OA
ATOM     31  H   UNL     1      54.422  56.581  12.497  0.00  0.00    +0.155 HD
BRANCH  14  15
ATOM     15  C   UNL     1      51.961  57.372  12.263  0.00  0.00    +0.037 A 
ATOM     16  C   UNL     1      50.623  56.777  12.211  0.00  0.00    +0.013 A 
ATOM     17  C   UNL     1      49.851  56.840  10.996  0.00  0.00    +0.005 A 
ATOM     18  C   UNL     1      50.415  57.502   9.822  0.00  0.00    -0.033 A 
ATOM     28  C   UNL     1      51.742  58.089   9.904  0.00  0.00    +0.005 A 
ATOM     29  C   UNL     1      52.503  58.028  11.093  0.00  0.00    +0.013 A 
BRANCH  18  19
ATOM     19  C   UNL     1      49.670  57.598   8.477  0.00  0.00    +0.119 C 
BRANCH  19  20
ATOM     20  N   UNL     1      48.508  58.533   8.404  0.00  0.00    -0.302 NA
ATOM     21  C   UNL     1      47.185  57.789   8.203  0.00  0.00    +0.066 C 
ATOM     22  C   UNL     1      45.976  58.780   8.152  0.00  0.00    -0.064 C 
ATOM     23  N   UNL     1      46.202  59.797   7.032  0.00  0.00    +0.379 N 
ATOM     24  C   UNL     1      45.041  60.694   6.943  0.00  0.00    -0.096 C 
ATOM     25  H   UNL     1      46.268  59.233   6.072  0.00  0.00    -0.082 HD
ATOM     26  C   UNL     1      47.517  60.539   7.223  0.00  0.00    -0.064 C 
ATOM     27  C   UNL     1      48.707  59.543   7.302  0.00  0.00    +0.066 C 
ENDBRANCH  19  20
ENDBRANCH  18  19
ENDBRANCH  14  15
ENDBRANCH  12  13
TORSDOF 6
ENDMDL
MODEL 5
REMARK VINA RESULT:      -7.2     23.969     28.563
REMARK  Name = C:\Users\Docking\Desktop\test protocol\1iep_ligandH.pdb
REMARK  8 active torsions:
REMARK  status: ('A' for Active; 'I' for Inactive)
REMARK    1  A    between atoms: _5  and  _11
REMARK    2  A    between atoms: _19  and  _21
REMARK    3  A    between atoms: _22  and  _66
REMARK    4  A    between atoms: _27  and  _30
REMARK    5  A    between atoms: _32  and  _33
REMARK    6  A    between atoms: _38  and  _43
REMARK    7  A    between atoms: _43  and  _46
REMARK    8  A    between atoms: _53  and  _55
REMARK                            x       y       z     vdW  Elec       q    Type
REMARK                         _______ _______ _______ _____ _____    ______ ____
ROOT
ATOM     10  C   UNL     1      44.460  55.132  -5.670  0.00  0.00    +0.038 A 
ATOM     11  C   UNL     1      44.699  55.725  -4.404  0.00  0.00    +0.047 A 
ATOM     12  C   UNL     1      45.324  54.974  -3.327  0.00  0.00    +0.035 A 
ATOM     32  C   UNL     1      45.696  53.620  -3.574  0.00  0.00    +0.024 A 
ATOM     33  C   UNL     1      45.460  53.001  -4.855  0.00  0.00    +0.007 A 
ATOM     34  C   UNL     1      44.841  53.736  -5.920  0.00  0.00    -0.029 A 
ATOM     35  C   UNL     1      44.607  53.019  -7.270  0.00  0.00    +0.045 C 
ENDROOT
BRANCH  10   9
ATOM      4  C   UNL     1      40.623  57.186  -7.692  0.00  0.00    +0.077 A 
ATOM      5  C   UNL     1      39.741  56.663  -6.688  0.00  0.00    +0.048 A 
ATOM      6  C   UNL     1      40.313  55.865  -5.673  0.00  0.00    +0.116 A 
ATOM      7  N   UNL     1      41.668  55.614  -5.672  0.00  0.00    -0.223 NA
ATOM      8  C   UNL     1      42.491  56.132  -6.655  0.00  0.00    +0.220 A 
ATOM      9  N   UNL     1      43.857  55.899  -6.669  0.00  0.00    -0.283 N 
ATOM     36  H   UNL     1      44.428  56.293  -7.416  0.00  0.00    +0.155 HD
ATOM     37  N   UNL     1      41.968  56.896  -7.637  0.00  0.00    -0.214 NA
BRANCH   4   3
ATOM      1  C   UNL     1      40.262  58.817 -11.229  0.00  0.00    +0.020 A 
ATOM      2  C   UNL     1      40.737  57.960 -10.167  0.00  0.00    +0.013 A 
ATOM      3  C   UNL     1      40.168  58.049  -8.828  0.00  0.00    +0.019 A 
ATOM     38  C   UNL     1      39.112  59.023  -8.595  0.00  0.00    +0.120 A 
ATOM     39  N   UNL     1      38.676  59.836  -9.636  0.00  0.00    -0.263 NA
ATOM     40  C   UNL     1      39.217  59.760 -10.929  0.00  0.00    +0.111 A 
ENDBRANCH   4   3
ENDBRANCH  10   9
BRANCH  12  13
ATOM     13  N   UNL     1      45.584  55.521  -2.018  0.00  0.00    -0.281 N 
ATOM     14  C   UNL     1      44.667  55.837  -1.030  0.00  0.00    +0.248 C 
ATOM     30  O   UNL     1      43.458  55.897  -1.202  0.00  0.00    -0.270 OA
ATOM     31  H   UNL     1      46.564  55.696  -1.793  0.00  0.00    +0.155 HD
BRANCH  14  15
ATOM     15  C   UNL     1      45.165  56.145   0.346  0.00  0.00    +0.037 A 
ATOM     16  C   UNL     1      44.629  55.453   1.521  0.00  0.00    +0.013 A 
ATOM     17  C   UNL     1      45.114  55.782   2.837  0.00  0.00    +0.005 A 
ATOM     18  C   UNL     1      46.144  56.808   2.986  0.00  0.00    -0.033 A 
ATOM     28  C   UNL     1      46.661  57.475   1.803  0.00  0.00    +0.005 A 
ATOM     29  C   UNL     1      46.187  57.156   0.510  0.00  0.00    +0.013 A 
BRANCH  18  19
ATOM     19  C   UNL     1      46.705  57.238   4.354  0.00  0.00    +0.119 C 
BRANCH  19  20
ATOM     20  N   UNL     1      46.260  58.558   4.892  0.00  0.00    -0.302 NA
ATOM     21  C   UNL     1      46.929  58.888   6.229  0.00  0.00    +0.066 C 
ATOM     22  C   UNL     1      46.469  60.283   6.766  0.00  0.00    -0.064 C 
ATOM     23  N   UNL     1      44.946  60.295   6.905  0.00  0.00    +0.379 N 
ATOM     24  C   UNL     1      44.515  61.585   7.464  0.00  0.00    -0.096 C 
ATOM     25  H   UNL     1      44.666  59.500   7.634  0.00  0.00    -0.082 HD
ATOM     26  C   UNL     1      44.272  59.965   5.580  0.00  0.00    -0.064 C 
ATOM     27  C   UNL     1      44.759  58.591   5.041  0.00  0.00    +0.066 C 
ENDBRANCH  19  20
ENDBRANCH  18  19
ENDBRANCH  14  15
ENDBRANCH  12  13
TORSDOF 6
ENDMDL
