MODEL 1
REMARK VINA RESULT:     -10.2      0.000      0.000
REMARK  Name = C:\Users\Docking\Desktop\test protocol\1iep_ligandH.pdb
REMARK  8 active torsions:
REMARK  status: ('A' for Active; 'I' for Inactive)
REMARK    1  A    between atoms: _5  and  _11
REMARK    2  A    between atoms: _19  and  _21
REMARK    3  A    between atoms: _22  and  _66
REMARK    4  A    between atoms: _27  and  _30
REMARK    5  A    between atoms: _32  and  _33
REMARK    6  A    between atoms: _38  and  _43
REMARK    7  A    between atoms: _43  and  _46
REMARK    8  A    between atoms: _53  and  _55
REMARK                            x       y       z     vdW  Elec       q    Type
REMARK                         _______ _______ _______ _____ _____    ______ ____
ROOT
ATOM     10  C   UNL     1       3.071   2.602  11.983  0.00  0.00    +0.038 A 
ATOM     11  C   UNL     1       3.256   1.451  12.791  0.00  0.00    +0.047 A 
ATOM     12  C   UNL     1       2.276   0.376  12.805  0.00  0.00    +0.035 A 
ATOM     32  C   UNL     1       1.119   0.506  11.983  0.00  0.00    +0.024 A 
ATOM     33  C   UNL     1       0.915   1.670  11.156  0.00  0.00    +0.007 A 
ATOM     34  C   UNL     1       1.877   2.734  11.140  0.00  0.00    -0.029 A 
ATOM     35  C   UNL     1       1.603   3.961  10.239  0.00  0.00    +0.045 C 
ENDROOT
BRANCH  10   9
ATOM      4  C   UNL     1       7.194   4.535  10.465  0.00  0.00    +0.077 A 
ATOM      5  C   UNL     1       7.443   3.445   9.566  0.00  0.00    +0.048 A 
ATOM      6  C   UNL     1       6.489   2.403   9.530  0.00  0.00    +0.116 A 
ATOM      7  N   UNL     1       5.373   2.458  10.337  0.00  0.00    -0.223 NA
ATOM      8  C   UNL     1       5.164   3.523  11.193  0.00  0.00    +0.220 A 
ATOM      9  N   UNL     1       4.045   3.603  12.008  0.00  0.00    -0.283 N 
ATOM     36  H   UNL     1       3.931   4.402  12.631  0.00  0.00    +0.155 HD
ATOM     37  N   UNL     1       6.061   4.530  11.248  0.00  0.00    -0.214 NA
BRANCH   4   3
ATOM      1  C   UNL     1       9.514   7.289  11.992  0.00  0.00    +0.020 A 
ATOM      2  C   UNL     1       8.636   6.146  11.902  0.00  0.00    +0.013 A 
ATOM      3  C   UNL     1       8.107   5.712  10.615  0.00  0.00    +0.019 A 
ATOM     38  C   UNL     1       8.490   6.463   9.428  0.00  0.00    +0.120 A 
ATOM     39  N   UNL     1       9.337   7.560   9.546  0.00  0.00    -0.263 NA
ATOM     40  C   UNL     1       9.851   7.988  10.779  0.00  0.00    +0.111 A 
ENDBRANCH   4   3
ENDBRANCH  10   9
BRANCH  12  13
ATOM     13  N   UNL     1       2.406  -0.813  13.611  0.00  0.00    -0.281 N 
ATOM     14  C   UNL     1       3.434  -1.741  13.599  0.00  0.00    +0.248 C 
ATOM     30  O   UNL     1       4.299  -1.804  12.738  0.00  0.00    -0.270 OA
ATOM     31  H   UNL     1       1.648  -0.991  14.270  0.00  0.00    +0.155 HD
BRANCH  14  15
ATOM     15  C   UNL     1       3.503  -2.756  14.695  0.00  0.00    +0.037 A 
ATOM     16  C   UNL     1       3.170  -4.161  14.450  0.00  0.00    +0.013 A 
ATOM     17  C   UNL     1       3.229  -5.116  15.529  0.00  0.00    +0.005 A 
ATOM     18  C   UNL     1       3.624  -4.668  16.862  0.00  0.00    -0.033 A 
ATOM     28  C   UNL     1       3.954  -3.268  17.075  0.00  0.00    +0.005 A 
ATOM     29  C   UNL     1       3.896  -2.329  16.021  0.00  0.00    +0.013 A 
BRANCH  18  19
ATOM     19  C   UNL     1       3.693  -5.613  18.076  0.00  0.00    +0.119 C 
BRANCH  19  20
ATOM     20  N   UNL     1       4.958  -6.382  18.272  0.00  0.00    -0.302 NA
ATOM     21  C   UNL     1       6.191  -5.580  17.844  0.00  0.00    +0.066 C 
ATOM     22  C   UNL     1       7.507  -6.390  18.078  0.00  0.00    -0.064 C 
ATOM     23  N   UNL     1       7.430  -7.714  17.314  0.00  0.00    +0.379 N 
ATOM     24  C   UNL     1       8.689  -8.452  17.484  0.00  0.00    -0.096 C 
ATOM     25  H   UNL     1       7.323  -7.473  16.231  0.00  0.00    -0.082 HD
ATOM     26  C   UNL     1       6.206  -8.516  17.732  0.00  0.00    -0.064 C 
ATOM     27  C   UNL     1       4.906  -7.691  17.523  0.00  0.00    +0.066 C 
ENDBRANCH  19  20
ENDBRANCH  18  19
ENDBRANCH  14  15
ENDBRANCH  12  13
TORSDOF 6
ENDMDL
MODEL 2
REMARK VINA RESULT:      -9.8      0.984      1.542
REMARK  Name = C:\Users\Docking\Desktop\test protocol\1iep_ligandH.pdb
REMARK  8 active torsions:
REMARK  status: ('A' for Active; 'I' for Inactive)
REMARK    1  A    between atoms: _5  and  _11
REMARK    2  A    between atoms: _19  and  _21
REMARK    3  A    between atoms: _22  and  _66
REMARK    4  A    between atoms: _27  and  _30
REMARK    5  A    between atoms: _32  and  _33
REMARK    6  A    between atoms: _38  and  _43
REMARK    7  A    between atoms: _43  and  _46
REMARK    8  A    between atoms: _53  and  _55
REMARK                            x       y       z     vdW  Elec       q    Type
REMARK                         _______ _______ _______ _____ _____    ______ ____
ROOT
ATOM     10  C   UNL     1       3.205   2.497  12.078  0.00  0.00    +0.038 A 
ATOM     11  C   UNL     1       3.444   1.312  12.819  0.00  0.00    +0.047 A 
ATOM     12  C   UNL     1       2.478   0.225  12.834  0.00  0.00    +0.035 A 
ATOM     32  C   UNL     1       1.278   0.378  12.080  0.00  0.00    +0.024 A 
ATOM     33  C   UNL     1       1.017   1.577  11.322  0.00  0.00    +0.007 A 
ATOM     34  C   UNL     1       1.966   2.653  11.306  0.00  0.00    -0.029 A 
ATOM     35  C   UNL     1       1.631   3.918  10.481  0.00  0.00    +0.045 C 
ENDROOT
BRANCH  10   9
ATOM      4  C   UNL     1       7.238   4.536  10.463  0.00  0.00    +0.077 A 
ATOM      5  C   UNL     1       7.461   3.483   9.515  0.00  0.00    +0.048 A 
ATOM      6  C   UNL     1       6.518   2.431   9.480  0.00  0.00    +0.116 A 
ATOM      7  N   UNL     1       5.436   2.443  10.333  0.00  0.00    -0.223 NA
ATOM      8  C   UNL     1       5.252   3.473  11.237  0.00  0.00    +0.220 A 
ATOM      9  N   UNL     1       4.167   3.509  12.099  0.00  0.00    -0.283 N 
ATOM     36  H   UNL     1       4.071   4.283  12.756  0.00  0.00    +0.155 HD
ATOM     37  N   UNL     1       6.139   4.488  11.291  0.00  0.00    -0.214 NA
BRANCH   4   3
ATOM      1  C   UNL     1       9.531   7.306  12.004  0.00  0.00    +0.020 A 
ATOM      2  C   UNL     1       8.658   6.158  11.909  0.00  0.00    +0.013 A 
ATOM      3  C   UNL     1       8.144   5.718  10.618  0.00  0.00    +0.019 A 
ATOM     38  C   UNL     1       8.535   6.467   9.433  0.00  0.00    +0.120 A 
ATOM     39  N   UNL     1       9.376   7.569   9.556  0.00  0.00    -0.263 NA
ATOM     40  C   UNL     1       9.875   8.003  10.793  0.00  0.00    +0.111 A 
ENDBRANCH   4   3
ENDBRANCH  10   9
BRANCH  12  13
ATOM     13  N   UNL     1       2.663  -0.998  13.574  0.00  0.00    -0.281 N 
ATOM     14  C   UNL     1       3.633  -1.969  13.385  0.00  0.00    +0.248 C 
ATOM     30  O   UNL     1       4.363  -2.036  12.407  0.00  0.00    -0.270 OA
ATOM     31  H   UNL     1       1.998  -1.170  14.328  0.00  0.00    +0.155 HD
BRANCH  14  15
ATOM     15  C   UNL     1       3.807  -3.028  14.426  0.00  0.00    +0.037 A 
ATOM     16  C   UNL     1       4.924  -2.985  15.373  0.00  0.00    +0.013 A 
ATOM     17  C   UNL     1       5.079  -4.028  16.356  0.00  0.00    +0.005 A 
ATOM     18  C   UNL     1       4.112  -5.122  16.398  0.00  0.00    -0.033 A 
ATOM     28  C   UNL     1       3.010  -5.137  15.449  0.00  0.00    +0.005 A 
ATOM     29  C   UNL     1       2.856  -4.117  14.484  0.00  0.00    +0.013 A 
BRANCH  18  19
ATOM     19  C   UNL     1       4.211  -6.288  17.399  0.00  0.00    +0.119 C 
BRANCH  19  20
ATOM     20  N   UNL     1       5.057  -7.455  17.008  0.00  0.00    -0.302 NA
ATOM     21  C   UNL     1       4.217  -8.705  16.730  0.00  0.00    +0.066 C 
ATOM     22  C   UNL     1       5.116  -9.910  16.301  0.00  0.00    -0.064 C 
ATOM     23  N   UNL     1       6.152 -10.185  17.392  0.00  0.00    +0.379 N 
ATOM     24  C   UNL     1       6.961 -11.354  17.018  0.00  0.00    -0.096 C 
ATOM     25  H   UNL     1       5.599 -10.441  18.326  0.00  0.00    -0.082 HD
ATOM     26  C   UNL     1       6.989  -8.946  17.677  0.00  0.00    -0.064 C 
ATOM     27  C   UNL     1       6.084  -7.747  18.074  0.00  0.00    +0.066 C 
ENDBRANCH  19  20
ENDBRANCH  18  19
ENDBRANCH  14  15
ENDBRANCH  12  13
TORSDOF 6
ENDMDL
MODEL 3
REMARK VINA RESULT:      -9.6      1.567      2.175
REMARK  Name = C:\Users\Docking\Desktop\test protocol\1iep_ligandH.pdb
REMARK  8 active torsions:
REMARK  status: ('A' for Active; 'I' for Inactive)
REMARK    1  A    between atoms: _5  and  _11
REMARK    2  A    between atoms: _19  and  _21
REMARK    3  A    between atoms: _22  and  _66
REMARK    4  A    between atoms: _27  and  _30
REMARK    5  A    between atoms: _32  and  _33
REMARK    6  A    between atoms: _38  and  _43
REMARK    7  A    between atoms: _43  and  _46
REMARK    8  A    between atoms: _53  and  _55
REMARK                            x       y       z     vdW  Elec       q    Type
REMARK                         _______ _______ _______ _____ _____    ______ ____
ROOT
ATOM     10  C   UNL     1       3.478   2.230  12.332  0.00  0.00    +0.038 A 
ATOM     11  C   UNL     1       3.794   1.126  13.164  0.00  0.00    +0.047 A 
ATOM     12  C   UNL     1       2.897  -0.014  13.275  0.00  0.00    +0.035 A 
ATOM     32  C   UNL     1       1.687   0.003  12.522  0.00  0.00    +0.024 A 
ATOM     33  C   UNL     1       1.349   1.117  11.672  0.00  0.00    +0.007 A 
ATOM     34  C   UNL     1       2.229   2.245  11.560  0.00  0.00    -0.029 A 
ATOM     35  C   UNL     1       1.813   3.415  10.638  0.00  0.00    +0.045 C 
ENDROOT
BRANCH  10   9
ATOM      4  C   UNL     1       7.366   4.380  10.516  0.00  0.00    +0.077 A 
ATOM      5  C   UNL     1       7.648   3.270   9.651  0.00  0.00    +0.048 A 
ATOM      6  C   UNL     1       6.772   2.163   9.709  0.00  0.00    +0.116 A 
ATOM      7  N   UNL     1       5.698   2.175  10.571  0.00  0.00    -0.223 NA
ATOM      8  C   UNL     1       5.455   3.260  11.393  0.00  0.00    +0.220 A 
ATOM      9  N   UNL     1       4.376   3.297  12.263  0.00  0.00    -0.283 N 
ATOM     36  H   UNL     1       4.235   4.113  12.858  0.00  0.00    +0.155 HD
ATOM     37  N   UNL     1       6.278   4.329  11.358  0.00  0.00    -0.214 NA
BRANCH   4   3
ATOM      1  C   UNL     1       9.564   7.350  11.799  0.00  0.00    +0.020 A 
ATOM      2  C   UNL     1       8.768   6.145  11.803  0.00  0.00    +0.013 A 
ATOM      3  C   UNL     1       8.197   5.624  10.568  0.00  0.00    +0.019 A 
ATOM     38  C   UNL     1       8.454   6.352   9.334  0.00  0.00    +0.120 A 
ATOM     39  N   UNL     1       9.223   7.511   9.360  0.00  0.00    -0.263 NA
ATOM     40  C   UNL     1       9.776   8.023  10.544  0.00  0.00    +0.111 A 
ENDBRANCH   4   3
ENDBRANCH  10   9
BRANCH  12  13
ATOM     13  N   UNL     1       3.161  -1.159  14.110  0.00  0.00    -0.281 N 
ATOM     14  C   UNL     1       3.892  -2.293  13.795  0.00  0.00    +0.248 C 
ATOM     30  O   UNL     1       4.254  -2.590  12.666  0.00  0.00    -0.270 OA
ATOM     31  H   UNL     1       2.760  -1.131  15.048  0.00  0.00    +0.155 HD
BRANCH  14  15
ATOM     15  C   UNL     1       4.263  -3.241  14.890  0.00  0.00    +0.037 A 
ATOM     16  C   UNL     1       5.571  -3.900  14.913  0.00  0.00    +0.013 A 
ATOM     17  C   UNL     1       5.897  -4.823  15.971  0.00  0.00    +0.005 A 
ATOM     18  C   UNL     1       4.912  -5.090  17.017  0.00  0.00    -0.033 A 
ATOM     28  C   UNL     1       3.624  -4.418  16.972  0.00  0.00    +0.005 A 
ATOM     29  C   UNL     1       3.301  -3.514  15.936  0.00  0.00    +0.013 A 
BRANCH  18  19
ATOM     19  C   UNL     1       5.166  -6.076  18.172  0.00  0.00    +0.119 C 
BRANCH  19  20
ATOM     20  N   UNL     1       4.037  -6.968  18.571  0.00  0.00    -0.302 NA
ATOM     21  C   UNL     1       3.947  -7.137  20.091  0.00  0.00    +0.066 C 
ATOM     22  C   UNL     1       2.746  -8.055  20.491  0.00  0.00    -0.064 C 
ATOM     23  N   UNL     1       2.894  -9.413  19.803  0.00  0.00    +0.379 N 
ATOM     24  C   UNL     1       1.797 -10.297  20.223  0.00  0.00    -0.096 C 
ATOM     25  H   UNL     1       3.849  -9.867  20.154  0.00  0.00    -0.082 HD
ATOM     26  C   UNL     1       2.986  -9.253  18.292  0.00  0.00    -0.064 C 
ATOM     27  C   UNL     1       4.165  -8.316  17.906  0.00  0.00    +0.066 C 
ENDBRANCH  19  20
ENDBRANCH  18  19
ENDBRANCH  14  15
ENDBRANCH  12  13
TORSDOF 6
ENDMDL
MODEL 4
REMARK VINA RESULT:      -9.5      2.294     12.034
REMARK  Name = C:\Users\Docking\Desktop\test protocol\1iep_ligandH.pdb
REMARK  8 active torsions:
REMARK  status: ('A' for Active; 'I' for Inactive)
REMARK    1  A    between atoms: _5  and  _11
REMARK    2  A    between atoms: _19  and  _21
REMARK    3  A    between atoms: _22  and  _66
REMARK    4  A    between atoms: _27  and  _30
REMARK    5  A    between atoms: _32  and  _33
REMARK    6  A    between atoms: _38  and  _43
REMARK    7  A    between atoms: _43  and  _46
REMARK    8  A    between atoms: _53  and  _55
REMARK                            x       y       z     vdW  Elec       q    Type
REMARK                         _______ _______ _______ _____ _____    ______ ____
ROOT
ATOM     10  C   UNL     1       2.773   0.987  12.915  0.00  0.00    +0.038 A 
ATOM     11  C   UNL     1       3.914   1.829  12.877  0.00  0.00    +0.047 A 
ATOM     12  C   UNL     1       4.063   2.849  11.851  0.00  0.00    +0.035 A 
ATOM     32  C   UNL     1       3.029   2.987  10.880  0.00  0.00    +0.024 A 
ATOM     33  C   UNL     1       1.863   2.139  10.903  0.00  0.00    +0.007 A 
ATOM     34  C   UNL     1       1.712   1.129  11.911  0.00  0.00    -0.029 A 
ATOM     35  C   UNL     1       0.443   0.245  11.883  0.00  0.00    +0.045 C 
ENDROOT
BRANCH  10   9
ATOM      4  C   UNL     1       4.076  -3.172  14.925  0.00  0.00    +0.077 A 
ATOM      5  C   UNL     1       4.998  -3.464  13.865  0.00  0.00    +0.048 A 
ATOM      6  C   UNL     1       5.101  -2.521  12.817  0.00  0.00    +0.116 A 
ATOM      7  N   UNL     1       4.336  -1.375  12.839  0.00  0.00    -0.223 NA
ATOM      8  C   UNL     1       3.456  -1.125  13.876  0.00  0.00    +0.220 A 
ATOM      9  N   UNL     1       2.682   0.024  13.922  0.00  0.00    -0.283 N 
ATOM     36  H   UNL     1       2.039   0.169  14.700  0.00  0.00    +0.155 HD
ATOM     37  N   UNL     1       3.337  -2.010  14.887  0.00  0.00    -0.214 NA
BRANCH   4   3
ATOM      1  C   UNL     1       2.390  -5.150  17.848  0.00  0.00    +0.020 A 
ATOM      2  C   UNL     1       2.548  -4.273  16.711  0.00  0.00    +0.013 A 
ATOM      3  C   UNL     1       3.857  -4.068  16.104  0.00  0.00    +0.019 A 
ATOM     38  C   UNL     1       4.995  -4.772  16.676  0.00  0.00    +0.120 A 
ATOM     39  N   UNL     1       4.813  -5.610  17.772  0.00  0.00    -0.263 NA
ATOM     40  C   UNL     1       3.558  -5.813  18.366  0.00  0.00    +0.111 A 
ENDBRANCH   4   3
ENDBRANCH  10   9
BRANCH  12  13
ATOM     13  N   UNL     1       5.203   3.727  11.757  0.00  0.00    -0.281 N 
ATOM     14  C   UNL     1       6.464   3.436  11.263  0.00  0.00    +0.248 C 
ATOM     30  O   UNL     1       6.869   2.308  11.022  0.00  0.00    -0.270 OA
ATOM     31  H   UNL     1       5.064   4.679  12.096  0.00  0.00    +0.155 HD
BRANCH  14  15
ATOM     15  C   UNL     1       7.419   4.558  11.015  0.00  0.00    +0.037 A 
ATOM     16  C   UNL     1       7.820   5.468  12.091  0.00  0.00    +0.013 A 
ATOM     17  C   UNL     1       8.729   6.553  11.820  0.00  0.00    +0.005 A 
ATOM     18  C   UNL     1       9.246   6.733  10.466  0.00  0.00    -0.033 A 
ATOM     28  C   UNL     1       8.837   5.813   9.418  0.00  0.00    +0.005 A 
ATOM     29  C   UNL     1       7.944   4.749   9.679  0.00  0.00    +0.013 A 
BRANCH  18  19
ATOM     19  C   UNL     1      10.204   7.876  10.082  0.00  0.00    +0.119 C 
BRANCH  19  20
ATOM     20  N   UNL     1      11.612   7.505   9.748  0.00  0.00    -0.302 NA
ATOM     21  C   UNL     1      12.628   8.323  10.550  0.00  0.00    +0.066 C 
ATOM     22  C   UNL     1      14.094   7.906  10.205  0.00  0.00    -0.064 C 
ATOM     23  N   UNL     1      14.329   8.075   8.703  0.00  0.00    +0.379 N 
ATOM     24  C   UNL     1      15.724   7.739   8.384  0.00  0.00    -0.096 C 
ATOM     25  H   UNL     1      14.175   9.151   8.455  0.00  0.00    -0.082 HD
ATOM     26  C   UNL     1      13.322   7.267   7.897  0.00  0.00    -0.064 C 
ATOM     27  C   UNL     1      11.867   7.668   8.269  0.00  0.00    +0.066 C 
ENDBRANCH  19  20
ENDBRANCH  18  19
ENDBRANCH  14  15
ENDBRANCH  12  13
TORSDOF 6
ENDMDL
MODEL 5
REMARK VINA RESULT:      -9.5      2.805     13.037
REMARK  Name = C:\Users\Docking\Desktop\test protocol\1iep_ligandH.pdb
REMARK  8 active torsions:
REMARK  status: ('A' for Active; 'I' for Inactive)
REMARK    1  A    between atoms: _5  and  _11
REMARK    2  A    between atoms: _19  and  _21
REMARK    3  A    between atoms: _22  and  _66
REMARK    4  A    between atoms: _27  and  _30
REMARK    5  A    between atoms: _32  and  _33
REMARK    6  A    between atoms: _38  and  _43
REMARK    7  A    between atoms: _43  and  _46
REMARK    8  A    between atoms: _53  and  _55
REMARK                            x       y       z     vdW  Elec       q    Type
REMARK                         _______ _______ _______ _____ _____    ______ ____
ROOT
ATOM     10  C   UNL     1       7.305  -4.774  17.379  0.00  0.00    +0.038 A 
ATOM     11  C   UNL     1       7.031  -3.696  16.499  0.00  0.00    +0.047 A 
ATOM     12  C   UNL     1       7.987  -3.296  15.477  0.00  0.00    +0.035 A 
ATOM     32  C   UNL     1       9.212  -4.018  15.379  0.00  0.00    +0.024 A 
ATOM     33  C   UNL     1       9.508  -5.115  16.266  0.00  0.00    +0.007 A 
ATOM     34  C   UNL     1       8.570  -5.513  17.277  0.00  0.00    -0.029 A 
ATOM     35  C   UNL     1       8.942  -6.692  18.205  0.00  0.00    +0.045 C 
ENDROOT
BRANCH  10   9
ATOM      4  C   UNL     1       3.435  -7.218  18.821  0.00  0.00    +0.077 A 
ATOM      5  C   UNL     1       3.283  -7.849  17.541  0.00  0.00    +0.048 A 
ATOM      6  C   UNL     1       4.218  -7.512  16.537  0.00  0.00    +0.116 A 
ATOM      7  N   UNL     1       5.226  -6.610  16.803  0.00  0.00    -0.223 NA
ATOM      8  C   UNL     1       5.342  -6.019  18.048  0.00  0.00    +0.220 A 
ATOM      9  N   UNL     1       6.352  -5.115  18.341  0.00  0.00    -0.283 N 
ATOM     36  H   UNL     1       6.399  -4.695  19.269  0.00  0.00    +0.155 HD
ATOM     37  N   UNL     1       4.461  -6.323  19.023  0.00  0.00    -0.214 NA
BRANCH   4   3
ATOM      1  C   UNL     1       1.098  -6.707  21.916  0.00  0.00    +0.020 A 
ATOM      2  C   UNL     1       1.969  -6.406  20.803  0.00  0.00    +0.013 A 
ATOM      3  C   UNL     1       2.528  -7.475  19.984  0.00  0.00    +0.019 A 
ATOM     38  C   UNL     1       2.182  -8.848  20.320  0.00  0.00    +0.120 A 
ATOM     39  N   UNL     1       1.342  -9.107  21.398  0.00  0.00    -0.263 NA
ATOM     40  C   UNL     1       0.800  -8.088  22.194  0.00  0.00    +0.111 A 
ENDBRANCH   4   3
ENDBRANCH  10   9
BRANCH  12  13
ATOM     13  N   UNL     1       7.766  -2.205  14.561  0.00  0.00    -0.281 N 
ATOM     14  C   UNL     1       6.749  -2.066  13.631  0.00  0.00    +0.248 C 
ATOM     30  O   UNL     1       5.990  -2.964  13.298  0.00  0.00    -0.270 OA
ATOM     31  H   UNL     1       8.443  -1.443  14.602  0.00  0.00    +0.155 HD
BRANCH  14  15
ATOM     15  C   UNL     1       6.555  -0.742  12.966  0.00  0.00    +0.037 A 
ATOM     16  C   UNL     1       5.385   0.091  13.257  0.00  0.00    +0.013 A 
ATOM     17  C   UNL     1       5.214   1.356  12.588  0.00  0.00    +0.005 A 
ATOM     18  C   UNL     1       6.217   1.797  11.622  0.00  0.00    -0.033 A 
ATOM     28  C   UNL     1       7.370   0.954  11.356  0.00  0.00    +0.005 A 
ATOM     29  C   UNL     1       7.541  -0.287  12.009  0.00  0.00    +0.013 A 
BRANCH  18  19
ATOM     19  C   UNL     1       6.105   3.123  10.846  0.00  0.00    +0.119 C 
BRANCH  19  20
ATOM     20  N   UNL     1       7.305   4.012  10.834  0.00  0.00    -0.302 NA
ATOM     21  C   UNL     1       7.126   5.230  11.744  0.00  0.00    +0.066 C 
ATOM     22  C   UNL     1       8.400   6.137  11.737  0.00  0.00    -0.064 C 
ATOM     23  N   UNL     1       8.704   6.573  10.303  0.00  0.00    +0.379 N 
ATOM     24  C   UNL     1       9.866   7.473  10.299  0.00  0.00    -0.096 C 
ATOM     25  H   UNL     1       7.826   7.153   9.933  0.00  0.00    -0.082 HD
ATOM     26  C   UNL     1       8.879   5.368   9.390  0.00  0.00    -0.064 C 
ATOM     27  C   UNL     1       7.620   4.458   9.427  0.00  0.00    +0.066 C 
ENDBRANCH  19  20
ENDBRANCH  18  19
ENDBRANCH  14  15
ENDBRANCH  12  13
TORSDOF 6
ENDMDL
