MODEL 1
REMARK VINA RESULT:      -8.1      0.000      0.000
REMARK  Name = C:\Users\Docking\Desktop\test protocol\1iep_ligandH.pdb
REMARK  8 active torsions:
REMARK  status: ('A' for Active; 'I' for Inactive)
REMARK    1  A    between atoms: _5  and  _11
REMARK    2  A    between atoms: _19  and  _21
REMARK    3  A    between atoms: _22  and  _66
REMARK    4  A    between atoms: _27  and  _30
REMARK    5  A    between atoms: _32  and  _33
REMARK    6  A    between atoms: _38  and  _43
REMARK    7  A    between atoms: _43  and  _46
REMARK    8  A    between atoms: _53  and  _55
REMARK                            x       y       z     vdW  Elec       q    Type
REMARK                         _______ _______ _______ _____ _____    ______ ____
ROOT
ATOM     10  C   UNL     1       1.394   5.257   7.230  0.00  0.00    +0.038 A 
ATOM     11  C   UNL     1       1.288   4.158   8.121  0.00  0.00    +0.047 A 
ATOM     12  C   UNL     1       2.282   3.932   9.158  0.00  0.00    +0.035 A 
ATOM     32  C   UNL     1       3.370   4.847   9.263  0.00  0.00    +0.024 A 
ATOM     33  C   UNL     1       3.493   5.969   8.366  0.00  0.00    +0.007 A 
ATOM     34  C   UNL     1       2.517   6.195   7.338  0.00  0.00    -0.029 A 
ATOM     35  C   UNL     1       2.704   7.411   6.400  0.00  0.00    +0.045 C 
ENDROOT
BRANCH  10   9
ATOM      4  C   UNL     1      -0.237   4.781   2.741  0.00  0.00    +0.077 A 
ATOM      5  C   UNL     1       0.983   4.167   2.300  0.00  0.00    +0.048 A 
ATOM      6  C   UNL     1       2.007   3.999   3.258  0.00  0.00    +0.116 A 
ATOM      7  N   UNL     1       1.816   4.416   4.558  0.00  0.00    -0.223 NA
ATOM      8  C   UNL     1       0.628   5.006   4.949  0.00  0.00    +0.220 A 
ATOM      9  N   UNL     1       0.411   5.426   6.252  0.00  0.00    -0.283 N 
ATOM     36  H   UNL     1      -0.476   5.863   6.500  0.00  0.00    +0.155 HD
ATOM     37  N   UNL     1      -0.365   5.179   4.053  0.00  0.00    -0.214 NA
BRANCH   4   3
ATOM      1  C   UNL     1      -3.073   4.304   0.090  0.00  0.00    +0.020 A 
ATOM      2  C   UNL     1      -1.934   4.018   0.931  0.00  0.00    +0.013 A 
ATOM      3  C   UNL     1      -1.413   5.024   1.848  0.00  0.00    +0.019 A 
ATOM     38  C   UNL     1      -2.075   6.320   1.890  0.00  0.00    +0.120 A 
ATOM     39  N   UNL     1      -3.169   6.567   1.068  0.00  0.00    -0.263 NA
ATOM     40  C   UNL     1      -3.677   5.607   0.180  0.00  0.00    +0.111 A 
ENDBRANCH   4   3
ENDBRANCH  10   9
BRANCH  12  13
ATOM     13  N   UNL     1       2.232   2.829  10.086  0.00  0.00    -0.281 N 
ATOM     14  C   UNL     1       1.446   2.705  11.220  0.00  0.00    +0.248 C 
ATOM     30  O   UNL     1       0.819   3.622  11.730  0.00  0.00    -0.270 OA
ATOM     31  H   UNL     1       2.850   2.044   9.881  0.00  0.00    +0.155 HD
BRANCH  14  15
ATOM     15  C   UNL     1       1.355   1.374  11.894  0.00  0.00    +0.037 A 
ATOM     16  C   UNL     1       0.166   0.989  12.659  0.00  0.00    +0.013 A 
ATOM     17  C   UNL     1       0.112  -0.294  13.313  0.00  0.00    +0.005 A 
ATOM     18  C   UNL     1       1.250  -1.203  13.204  0.00  0.00    -0.033 A 
ATOM     28  C   UNL     1       2.415  -0.797  12.435  0.00  0.00    +0.005 A 
ATOM     29  C   UNL     1       2.473   0.460  11.793  0.00  0.00    +0.013 A 
BRANCH  18  19
ATOM     19  C   UNL     1       1.287  -2.583  13.887  0.00  0.00    +0.119 C 
BRANCH  19  20
ATOM     20  N   UNL     1       0.972  -3.773  13.042  0.00  0.00    -0.302 NA
ATOM     21  C   UNL     1       2.232  -4.404  12.445  0.00  0.00    +0.066 C 
ATOM     22  C   UNL     1       1.886  -5.661  11.582  0.00  0.00    -0.064 C 
ATOM     23  N   UNL     1       0.904  -5.263  10.478  0.00  0.00    +0.379 N 
ATOM     24  C   UNL     1       0.621  -6.430   9.629  0.00  0.00    -0.096 C 
ATOM     25  H   UNL     1       1.404  -4.496   9.842  0.00  0.00    -0.082 HD
ATOM     26  C   UNL     1      -0.351  -4.632  11.063  0.00  0.00    -0.064 C 
ATOM     27  C   UNL     1       0.007  -3.401  11.942  0.00  0.00    +0.066 C 
ENDBRANCH  19  20
ENDBRANCH  18  19
ENDBRANCH  14  15
ENDBRANCH  12  13
TORSDOF 6
ENDMDL
MODEL 2
REMARK VINA RESULT:      -8.0      7.233     12.233
REMARK  Name = C:\Users\Docking\Desktop\test protocol\1iep_ligandH.pdb
REMARK  8 active torsions:
REMARK  status: ('A' for Active; 'I' for Inactive)
REMARK    1  A    between atoms: _5  and  _11
REMARK    2  A    between atoms: _19  and  _21
REMARK    3  A    between atoms: _22  and  _66
REMARK    4  A    between atoms: _27  and  _30
REMARK    5  A    between atoms: _32  and  _33
REMARK    6  A    between atoms: _38  and  _43
REMARK    7  A    between atoms: _43  and  _46
REMARK    8  A    between atoms: _53  and  _55
REMARK                            x       y       z     vdW  Elec       q    Type
REMARK                         _______ _______ _______ _____ _____    ______ ____
ROOT
ATOM     10  C   UNL     1       3.260  -4.932  14.039  0.00  0.00    +0.038 A 
ATOM     11  C   UNL     1       2.643  -5.486  15.190  0.00  0.00    +0.047 A 
ATOM     12  C   UNL     1       2.912  -6.855  15.602  0.00  0.00    +0.035 A 
ATOM     32  C   UNL     1       3.817  -7.630  14.821  0.00  0.00    +0.024 A 
ATOM     33  C   UNL     1       4.453  -7.083  13.648  0.00  0.00    +0.007 A 
ATOM     34  C   UNL     1       4.190  -5.734  13.235  0.00  0.00    -0.029 A 
ATOM     35  C   UNL     1       4.894  -5.202  11.966  0.00  0.00    +0.045 C 
ENDROOT
BRANCH  10   9
ATOM      4  C   UNL     1       0.548  -1.642  11.835  0.00  0.00    +0.077 A 
ATOM      5  C   UNL     1      -0.342  -2.639  11.314  0.00  0.00    +0.048 A 
ATOM      6  C   UNL     1      -0.063  -3.987  11.631  0.00  0.00    +0.116 A 
ATOM      7  N   UNL     1       1.028  -4.303  12.412  0.00  0.00    -0.223 NA
ATOM      8  C   UNL     1       1.868  -3.318  12.896  0.00  0.00    +0.220 A 
ATOM      9  N   UNL     1       2.966  -3.612  13.689  0.00  0.00    -0.283 N 
ATOM     36  H   UNL     1       3.566  -2.857  14.021  0.00  0.00    +0.155 HD
ATOM     37  N   UNL     1       1.624  -2.023  12.606  0.00  0.00    -0.214 NA
BRANCH   4   3
ATOM      1  C   UNL     1       0.290   1.844  10.079  0.00  0.00    +0.020 A 
ATOM      2  C   UNL     1       0.456   0.420  10.261  0.00  0.00    +0.013 A 
ATOM      3  C   UNL     1       0.385  -0.174  11.590  0.00  0.00    +0.019 A 
ATOM     38  C   UNL     1       0.142   0.707  12.723  0.00  0.00    +0.120 A 
ATOM     39  N   UNL     1      -0.012   2.074  12.517  0.00  0.00    -0.263 NA
ATOM     40  C   UNL     1       0.056   2.658  11.243  0.00  0.00    +0.111 A 
ENDBRANCH   4   3
ENDBRANCH  10   9
BRANCH  12  13
ATOM     13  N   UNL     1       2.308  -7.474  16.756  0.00  0.00    -0.281 N 
ATOM     14  C   UNL     1       2.851  -7.628  18.021  0.00  0.00    +0.248 C 
ATOM     30  O   UNL     1       4.028  -7.446  18.296  0.00  0.00    -0.270 OA
ATOM     31  H   UNL     1       1.367  -7.844  16.624  0.00  0.00    +0.155 HD
BRANCH  14  15
ATOM     15  C   UNL     1       1.961  -8.062  19.141  0.00  0.00    +0.037 A 
ATOM     16  C   UNL     1       1.254  -9.345  19.097  0.00  0.00    +0.013 A 
ATOM     17  C   UNL     1       0.388  -9.731  20.182  0.00  0.00    +0.005 A 
ATOM     18  C   UNL     1       0.225  -8.833  21.323  0.00  0.00    -0.033 A 
ATOM     28  C   UNL     1       0.942  -7.568  21.343  0.00  0.00    +0.005 A 
ATOM     29  C   UNL     1       1.791  -7.186  20.281  0.00  0.00    +0.013 A 
BRANCH  18  19
ATOM     19  C   UNL     1      -0.695  -9.154  22.516  0.00  0.00    +0.119 C 
BRANCH  19  20
ATOM     20  N   UNL     1      -2.109  -8.680  22.436  0.00  0.00    -0.302 NA
ATOM     21  C   UNL     1      -2.891  -8.986  23.716  0.00  0.00    +0.066 C 
ATOM     22  C   UNL     1      -4.361  -8.464  23.624  0.00  0.00    -0.064 C 
ATOM     23  N   UNL     1      -5.047  -9.091  22.409  0.00  0.00    +0.379 N 
ATOM     24  C   UNL     1      -6.447  -8.647  22.352  0.00  0.00    -0.096 C 
ATOM     25  H   UNL     1      -5.048 -10.196  22.554  0.00  0.00    -0.082 HD
ATOM     26  C   UNL     1      -4.275  -8.794  21.131  0.00  0.00    -0.064 C 
ATOM     27  C   UNL     1      -2.806  -9.291  21.245  0.00  0.00    +0.066 C 
ENDBRANCH  19  20
ENDBRANCH  18  19
ENDBRANCH  14  15
ENDBRANCH  12  13
TORSDOF 6
ENDMDL
MODEL 3
REMARK VINA RESULT:      -8.0      7.574     12.311
REMARK  Name = C:\Users\Docking\Desktop\test protocol\1iep_ligandH.pdb
REMARK  8 active torsions:
REMARK  status: ('A' for Active; 'I' for Inactive)
REMARK    1  A    between atoms: _5  and  _11
REMARK    2  A    between atoms: _19  and  _21
REMARK    3  A    between atoms: _22  and  _66
REMARK    4  A    between atoms: _27  and  _30
REMARK    5  A    between atoms: _32  and  _33
REMARK    6  A    between atoms: _38  and  _43
REMARK    7  A    between atoms: _43  and  _46
REMARK    8  A    between atoms: _53  and  _55
REMARK                            x       y       z     vdW  Elec       q    Type
REMARK                         _______ _______ _______ _____ _____    ______ ____
ROOT
ATOM     10  C   UNL     1       4.087  -2.952  16.484  0.00  0.00    +0.038 A 
ATOM     11  C   UNL     1       3.252  -3.829  17.221  0.00  0.00    +0.047 A 
ATOM     12  C   UNL     1       3.801  -4.975  17.929  0.00  0.00    +0.035 A 
ATOM     32  C   UNL     1       5.208  -5.196  17.867  0.00  0.00    +0.024 A 
ATOM     33  C   UNL     1       6.072  -4.315  17.122  0.00  0.00    +0.007 A 
ATOM     34  C   UNL     1       5.535  -3.184  16.420  0.00  0.00    -0.029 A 
ATOM     35  C   UNL     1       6.508  -2.277  15.632  0.00  0.00    +0.045 C 
ENDROOT
BRANCH  10   9
ATOM      4  C   UNL     1       2.267  -0.864  12.565  0.00  0.00    +0.077 A 
ATOM      5  C   UNL     1       2.520  -2.023  11.758  0.00  0.00    +0.048 A 
ATOM      6  C   UNL     1       3.126  -3.132  12.388  0.00  0.00    +0.116 A 
ATOM      7  N   UNL     1       3.451  -3.076  13.726  0.00  0.00    -0.223 NA
ATOM      8  C   UNL     1       3.195  -1.942  14.475  0.00  0.00    +0.220 A 
ATOM      9  N   UNL     1       3.506  -1.867  15.824  0.00  0.00    -0.283 N 
ATOM     36  H   UNL     1       3.308  -1.010  16.340  0.00  0.00    +0.155 HD
ATOM     37  N   UNL     1       2.618  -0.869  13.896  0.00  0.00    -0.214 NA
BRANCH   4   3
ATOM      1  C   UNL     1      -0.202   1.623  10.826  0.00  0.00    +0.020 A 
ATOM      2  C   UNL     1       0.372   0.387  11.307  0.00  0.00    +0.013 A 
ATOM      3  C   UNL     1       1.629   0.387  12.044  0.00  0.00    +0.019 A 
ATOM     38  C   UNL     1       2.285   1.664  12.281  0.00  0.00    +0.120 A 
ATOM     39  N   UNL     1       1.710   2.838  11.804  0.00  0.00    -0.263 NA
ATOM     40  C   UNL     1       0.501   2.850  11.092  0.00  0.00    +0.111 A 
ENDBRANCH   4   3
ENDBRANCH  10   9
BRANCH  12  13
ATOM     13  N   UNL     1       3.001  -5.905  18.686  0.00  0.00    -0.281 N 
ATOM     14  C   UNL     1       3.011  -6.119  20.055  0.00  0.00    +0.248 C 
ATOM     30  O   UNL     1       3.867  -5.692  20.815  0.00  0.00    -0.270 OA
ATOM     31  H   UNL     1       2.348  -6.475  18.148  0.00  0.00    +0.155 HD
BRANCH  14  15
ATOM     15  C   UNL     1       1.920  -6.939  20.665  0.00  0.00    +0.037 A 
ATOM     16  C   UNL     1       1.605  -8.279  20.162  0.00  0.00    +0.013 A 
ATOM     17  C   UNL     1       0.536  -9.042  20.758  0.00  0.00    +0.005 A 
ATOM     18  C   UNL     1      -0.223  -8.466  21.866  0.00  0.00    -0.033 A 
ATOM     28  C   UNL     1       0.115  -7.137  22.348  0.00  0.00    +0.005 A 
ATOM     29  C   UNL     1       1.160  -6.386  21.766  0.00  0.00    +0.013 A 
BRANCH  18  19
ATOM     19  C   UNL     1      -1.393  -9.200  22.548  0.00  0.00    +0.119 C 
BRANCH  19  20
ATOM     20  N   UNL     1      -2.776  -8.761  22.192  0.00  0.00    -0.302 NA
ATOM     21  C   UNL     1      -3.791  -9.124  23.280  0.00  0.00    +0.066 C 
ATOM     22  C   UNL     1      -5.228  -8.637  22.902  0.00  0.00    -0.064 C 
ATOM     23  N   UNL     1      -5.633  -9.246  21.559  0.00  0.00    +0.379 N 
ATOM     24  C   UNL     1      -7.006  -8.838  21.228  0.00  0.00    -0.096 C 
ATOM     25  H   UNL     1      -5.628 -10.355  21.675  0.00  0.00    -0.082 HD
ATOM     26  C   UNL     1      -4.627  -8.893  20.472  0.00  0.00    -0.064 C 
ATOM     27  C   UNL     1      -3.197  -9.354  20.871  0.00  0.00    +0.066 C 
ENDBRANCH  19  20
ENDBRANCH  18  19
ENDBRANCH  14  15
ENDBRANCH  12  13
TORSDOF 6
ENDMDL
MODEL 4
REMARK VINA RESULT:      -8.0      8.302     12.077
REMARK  Name = C:\Users\Docking\Desktop\test protocol\1iep_ligandH.pdb
REMARK  8 active torsions:
REMARK  status: ('A' for Active; 'I' for Inactive)
REMARK    1  A    between atoms: _5  and  _11
REMARK    2  A    between atoms: _19  and  _21
REMARK    3  A    between atoms: _22  and  _66
REMARK    4  A    between atoms: _27  and  _30
REMARK    5  A    between atoms: _32  and  _33
REMARK    6  A    between atoms: _38  and  _43
REMARK    7  A    between atoms: _43  and  _46
REMARK    8  A    between atoms: _53  and  _55
REMARK                            x       y       z     vdW  Elec       q    Type
REMARK                         _______ _______ _______ _____ _____    ______ ____
ROOT
ATOM     10  C   UNL     1       0.972  -3.367  13.099  0.00  0.00    +0.038 A 
ATOM     11  C   UNL     1       1.900  -3.353  14.172  0.00  0.00    +0.047 A 
ATOM     12  C   UNL     1       2.187  -2.129  14.903  0.00  0.00    +0.035 A 
ATOM     32  C   UNL     1       1.510  -0.936  14.516  0.00  0.00    +0.024 A 
ATOM     33  C   UNL     1       0.565  -0.931  13.427  0.00  0.00    +0.007 A 
ATOM     34  C   UNL     1       0.279  -2.136  12.701  0.00  0.00    -0.029 A 
ATOM     35  C   UNL     1      -0.738  -2.070  11.538  0.00  0.00    +0.045 C 
ENDROOT
BRANCH  10   9
ATOM      4  C   UNL     1       1.621  -6.357   9.401  0.00  0.00    +0.077 A 
ATOM      5  C   UNL     1       2.486  -5.431   8.728  0.00  0.00    +0.048 A 
ATOM      6  C   UNL     1       2.733  -4.194   9.364  0.00  0.00    +0.116 A 
ATOM      7  N   UNL     1       2.153  -3.914  10.583  0.00  0.00    -0.223 NA
ATOM      8  C   UNL     1       1.322  -4.828  11.203  0.00  0.00    +0.220 A 
ATOM      9  N   UNL     1       0.734  -4.570  12.432  0.00  0.00    -0.283 N 
ATOM     36  H   UNL     1       0.121  -5.268  12.854  0.00  0.00    +0.155 HD
ATOM     37  N   UNL     1       1.069  -6.016  10.616  0.00  0.00    -0.214 NA
BRANCH   4   3
ATOM      1  C   UNL     1      -0.172  -9.777   8.779  0.00  0.00    +0.020 A 
ATOM      2  C   UNL     1       0.127  -8.479   9.338  0.00  0.00    +0.013 A 
ATOM      3  C   UNL     1       1.266  -7.706   8.858  0.00  0.00    +0.019 A 
ATOM     38  C   UNL     1       2.089  -8.280   7.804  0.00  0.00    +0.120 A 
ATOM     39  N   UNL     1       1.777  -9.533   7.286  0.00  0.00    -0.263 NA
ATOM     40  C   UNL     1       0.684 -10.287   7.740  0.00  0.00    +0.111 A 
ENDBRANCH   4   3
ENDBRANCH  10   9
BRANCH  12  13
ATOM     13  N   UNL     1       3.125  -2.053  15.996  0.00  0.00    -0.281 N 
ATOM     14  C   UNL     1       4.472  -1.734  15.942  0.00  0.00    +0.248 C 
ATOM     30  O   UNL     1       5.127  -1.674  14.912  0.00  0.00    -0.270 OA
ATOM     31  H   UNL     1       2.750  -2.259  16.922  0.00  0.00    +0.155 HD
BRANCH  14  15
ATOM     15  C   UNL     1       5.200  -1.456  17.217  0.00  0.00    +0.037 A 
ATOM     16  C   UNL     1       4.790  -2.080  18.478  0.00  0.00    +0.013 A 
ATOM     17  C   UNL     1       5.500  -1.781  19.696  0.00  0.00    +0.005 A 
ATOM     18  C   UNL     1       6.628  -0.855  19.659  0.00  0.00    -0.033 A 
ATOM     28  C   UNL     1       7.017  -0.254  18.394  0.00  0.00    +0.005 A 
ATOM     29  C   UNL     1       6.324  -0.544  17.198  0.00  0.00    +0.013 A 
BRANCH  18  19
ATOM     19  C   UNL     1       7.429  -0.462  20.915  0.00  0.00    +0.119 C 
BRANCH  19  20
ATOM     20  N   UNL     1       6.702   0.285  21.984  0.00  0.00    -0.302 NA
ATOM     21  C   UNL     1       5.837   1.411  21.411  0.00  0.00    +0.066 C 
ATOM     22  C   UNL     1       5.066   2.168  22.541  0.00  0.00    -0.064 C 
ATOM     23  N   UNL     1       6.068   2.719  23.558  0.00  0.00    +0.379 N 
ATOM     24  C   UNL     1       5.350   3.480  24.590  0.00  0.00    -0.096 C 
ATOM     25  H   UNL     1       6.740   3.427  23.020  0.00  0.00    -0.082 HD
ATOM     26  C   UNL     1       6.934   1.606  24.131  0.00  0.00    -0.064 C 
ATOM     27  C   UNL     1       7.673   0.841  22.997  0.00  0.00    +0.066 C 
ENDBRANCH  19  20
ENDBRANCH  18  19
ENDBRANCH  14  15
ENDBRANCH  12  13
TORSDOF 6
ENDMDL
MODEL 5
REMARK VINA RESULT:      -8.0      9.671     16.141
REMARK  Name = C:\Users\Docking\Desktop\test protocol\1iep_ligandH.pdb
REMARK  8 active torsions:
REMARK  status: ('A' for Active; 'I' for Inactive)
REMARK    1  A    between atoms: _5  and  _11
REMARK    2  A    between atoms: _19  and  _21
REMARK    3  A    between atoms: _22  and  _66
REMARK    4  A    between atoms: _27  and  _30
REMARK    5  A    between atoms: _32  and  _33
REMARK    6  A    between atoms: _38  and  _43
REMARK    7  A    between atoms: _43  and  _46
REMARK    8  A    between atoms: _53  and  _55
REMARK                            x       y       z     vdW  Elec       q    Type
REMARK                         _______ _______ _______ _____ _____    ______ ____
ROOT
ATOM     10  C   UNL     1       5.153  -0.626  22.540  0.00  0.00    +0.038 A 
ATOM     11  C   UNL     1       4.779  -0.622  21.171  0.00  0.00    +0.047 A 
ATOM     12  C   UNL     1       5.421  -1.509  20.213  0.00  0.00    +0.035 A 
ATOM     32  C   UNL     1       6.437  -2.390  20.684  0.00  0.00    +0.024 A 
ATOM     33  C   UNL     1       6.829  -2.408  22.072  0.00  0.00    +0.007 A 
ATOM     34  C   UNL     1       6.202  -1.533  23.021  0.00  0.00    -0.029 A 
ATOM     35  C   UNL     1       6.667  -1.590  24.494  0.00  0.00    +0.045 C 
ENDROOT
BRANCH  10   9
ATOM      4  C   UNL     1       4.957   3.426  25.104  0.00  0.00    +0.077 A 
ATOM      5  C   UNL     1       6.269   3.825  24.684  0.00  0.00    +0.048 A 
ATOM      6  C   UNL     1       6.964   2.956  23.813  0.00  0.00    +0.116 A 
ATOM      7  N   UNL     1       6.380   1.778  23.400  0.00  0.00    -0.223 NA
ATOM      8  C   UNL     1       5.113   1.422  23.825  0.00  0.00    +0.220 A 
ATOM      9  N   UNL     1       4.504   0.247  23.416  0.00  0.00    -0.283 N 
ATOM     36  H   UNL     1       3.571   0.016  23.758  0.00  0.00    +0.155 HD
ATOM     37  N   UNL     1       4.430   2.235  24.658  0.00  0.00    -0.214 NA
BRANCH   4   3
ATOM      1  C   UNL     1       3.697   5.543  28.143  0.00  0.00    +0.020 A 
ATOM      2  C   UNL     1       4.569   4.762  27.296  0.00  0.00    +0.013 A 
ATOM      3  C   UNL     1       4.096   4.239  26.020  0.00  0.00    +0.019 A 
ATOM     38  C   UNL     1       2.724   4.526  25.629  0.00  0.00    +0.120 A 
ATOM     39  N   UNL     1       1.907   5.279  26.466  0.00  0.00    -0.263 NA
ATOM     40  C   UNL     1       2.351   5.786  27.697  0.00  0.00    +0.111 A 
ENDBRANCH   4   3
ENDBRANCH  10   9
BRANCH  12  13
ATOM     13  N   UNL     1       5.089  -1.543  18.811  0.00  0.00    -0.281 N 
ATOM     14  C   UNL     1       4.446  -2.551  18.112  0.00  0.00    +0.248 C 
ATOM     30  O   UNL     1       4.246  -3.675  18.547  0.00  0.00    -0.270 OA
ATOM     31  H   UNL     1       5.362  -0.724  18.267  0.00  0.00    +0.155 HD
BRANCH  14  15
ATOM     15  C   UNL     1       3.967  -2.275  16.723  0.00  0.00    +0.037 A 
ATOM     16  C   UNL     1       2.837  -3.010  16.148  0.00  0.00    +0.013 A 
ATOM     17  C   UNL     1       2.407  -2.736  14.800  0.00  0.00    +0.005 A 
ATOM     18  C   UNL     1       3.107  -1.720  14.017  0.00  0.00    -0.033 A 
ATOM     28  C   UNL     1       4.221  -1.002  14.614  0.00  0.00    +0.005 A 
ATOM     29  C   UNL     1       4.646  -1.268  15.935  0.00  0.00    +0.013 A 
BRANCH  18  19
ATOM     19  C   UNL     1       2.729  -1.376  12.564  0.00  0.00    +0.119 C 
BRANCH  19  20
ATOM     20  N   UNL     1       2.254  -2.497  11.698  0.00  0.00    -0.302 NA
ATOM     21  C   UNL     1       3.402  -3.414  11.265  0.00  0.00    +0.066 C 
ATOM     22  C   UNL     1       2.884  -4.593  10.378  0.00  0.00    -0.064 C 
ATOM     23  N   UNL     1       2.152  -4.028   9.160  0.00  0.00    +0.379 N 
ATOM     24  C   UNL     1       1.714  -5.133   8.294  0.00  0.00    -0.096 C 
ATOM     25  H   UNL     1       2.881  -3.414   8.582  0.00  0.00    -0.082 HD
ATOM     26  C   UNL     1       1.011  -3.113   9.582  0.00  0.00    -0.064 C 
ATOM     27  C   UNL     1       1.532  -1.961  10.487  0.00  0.00    +0.066 C 
ENDBRANCH  19  20
ENDBRANCH  18  19
ENDBRANCH  14  15
ENDBRANCH  12  13
TORSDOF 6
ENDMDL
