MODEL 1
REMARK VINA RESULT:      -7.9      0.000      0.000
REMARK  Name = C:\Users\Docking\Desktop\test protocol\1iep_ligandH.pdb
REMARK  8 active torsions:
REMARK  status: ('A' for Active; 'I' for Inactive)
REMARK    1  A    between atoms: _5  and  _11
REMARK    2  A    between atoms: _19  and  _21
REMARK    3  A    between atoms: _22  and  _66
REMARK    4  A    between atoms: _27  and  _30
REMARK    5  A    between atoms: _32  and  _33
REMARK    6  A    between atoms: _38  and  _43
REMARK    7  A    between atoms: _43  and  _46
REMARK    8  A    between atoms: _53  and  _55
REMARK                            x       y       z     vdW  Elec       q    Type
REMARK                         _______ _______ _______ _____ _____    ______ ____
ROOT
ATOM     10  C   UNL     1       3.984  -4.447  15.511  0.00  0.00    +0.038 A 
ATOM     11  C   UNL     1       3.251  -5.059  16.560  0.00  0.00    +0.047 A 
ATOM     12  C   UNL     1       3.689  -6.313  17.153  0.00  0.00    +0.035 A 
ATOM     32  C   UNL     1       4.881  -6.915  16.655  0.00  0.00    +0.024 A 
ATOM     33  C   UNL     1       5.638  -6.308  15.589  0.00  0.00    +0.007 A 
ATOM     34  C   UNL     1       5.209  -5.072  14.998  0.00  0.00    -0.029 A 
ATOM     35  C   UNL     1       6.057  -4.470  13.854  0.00  0.00    +0.045 C 
ENDROOT
BRANCH  10   9
ATOM      4  C   UNL     1       1.036  -1.933  12.678  0.00  0.00    +0.077 A 
ATOM      5  C   UNL     1       0.388  -3.120  12.199  0.00  0.00    +0.048 A 
ATOM      6  C   UNL     1       0.848  -4.358  12.701  0.00  0.00    +0.116 A 
ATOM      7  N   UNL     1       1.880  -4.394  13.614  0.00  0.00    -0.223 NA
ATOM      8  C   UNL     1       2.484  -3.231  14.054  0.00  0.00    +0.220 A 
ATOM      9  N   UNL     1       3.517  -3.244  14.978  0.00  0.00    -0.283 N 
ATOM     36  H   UNL     1       3.942  -2.364  15.272  0.00  0.00    +0.155 HD
ATOM     37  N   UNL     1       2.063  -2.036  13.589  0.00  0.00    -0.214 NA
BRANCH   4   3
ATOM      1  C   UNL     1       0.453   1.270  10.510  0.00  0.00    +0.020 A 
ATOM      2  C   UNL     1       0.832  -0.075  10.877  0.00  0.00    +0.013 A 
ATOM      3  C   UNL     1       0.660  -0.550  12.245  0.00  0.00    +0.019 A 
ATOM     38  C   UNL     1       0.097   0.367  13.224  0.00  0.00    +0.120 A 
ATOM     39  N   UNL     1      -0.258   1.657  12.841  0.00  0.00    -0.263 NA
ATOM     40  C   UNL     1      -0.096   2.126  11.529  0.00  0.00    +0.111 A 
ENDBRANCH   4   3
ENDBRANCH  10   9
BRANCH  12  13
ATOM     13  N   UNL     1       2.981  -6.984  18.215  0.00  0.00    -0.281 N 
ATOM     14  C   UNL     1       2.947  -6.651  19.559  0.00  0.00    +0.248 C 
ATOM     30  O   UNL     1       3.696  -5.846  20.091  0.00  0.00    -0.270 OA
ATOM     31  H   UNL     1       2.440  -7.805  17.942  0.00  0.00    +0.155 HD
BRANCH  14  15
ATOM     15  C   UNL     1       1.945  -7.321  20.443  0.00  0.00    +0.037 A 
ATOM     16  C   UNL     1       1.548  -8.714  20.223  0.00  0.00    +0.013 A 
ATOM     17  C   UNL     1       0.567  -9.331  21.080  0.00  0.00    +0.005 A 
ATOM     18  C   UNL     1      -0.023  -8.554  22.168  0.00  0.00    -0.033 A 
ATOM     28  C   UNL     1       0.393  -7.175  22.367  0.00  0.00    +0.005 A 
ATOM     29  C   UNL     1       1.353  -6.567  21.528  0.00  0.00    +0.013 A 
BRANCH  18  19
ATOM     19  C   UNL     1      -1.093  -9.124  23.118  0.00  0.00    +0.119 C 
BRANCH  19  20
ATOM     20  N   UNL     1      -2.500  -8.666  22.917  0.00  0.00    -0.302 NA
ATOM     21  C   UNL     1      -3.414  -9.098  24.067  0.00  0.00    +0.066 C 
ATOM     22  C   UNL     1      -4.878  -8.591  23.852  0.00  0.00    -0.064 C 
ATOM     23  N   UNL     1      -5.405  -9.115  22.515  0.00  0.00    +0.379 N 
ATOM     24  C   UNL     1      -6.800  -8.688  22.336  0.00  0.00    -0.096 C 
ATOM     25  H   UNL     1      -5.394 -10.229  22.560  0.00  0.00    -0.082 HD
ATOM     26  C   UNL     1      -4.500  -8.692  21.366  0.00  0.00    -0.064 C 
ATOM     27  C   UNL     1      -3.042  -9.175  21.604  0.00  0.00    +0.066 C 
ENDBRANCH  19  20
ENDBRANCH  18  19
ENDBRANCH  14  15
ENDBRANCH  12  13
TORSDOF 6
ENDMDL
MODEL 2
REMARK VINA RESULT:      -7.8      7.637      9.237
REMARK  Name = C:\Users\Docking\Desktop\test protocol\1iep_ligandH.pdb
REMARK  8 active torsions:
REMARK  status: ('A' for Active; 'I' for Inactive)
REMARK    1  A    between atoms: _5  and  _11
REMARK    2  A    between atoms: _19  and  _21
REMARK    3  A    between atoms: _22  and  _66
REMARK    4  A    between atoms: _27  and  _30
REMARK    5  A    between atoms: _32  and  _33
REMARK    6  A    between atoms: _38  and  _43
REMARK    7  A    between atoms: _43  and  _46
REMARK    8  A    between atoms: _53  and  _55
REMARK                            x       y       z     vdW  Elec       q    Type
REMARK                         _______ _______ _______ _____ _____    ______ ____
ROOT
ATOM     10  C   UNL     1       4.896  -3.009  17.365  0.00  0.00    +0.038 A 
ATOM     11  C   UNL     1       4.598  -2.071  18.385  0.00  0.00    +0.047 A 
ATOM     12  C   UNL     1       5.606  -1.666  19.353  0.00  0.00    +0.035 A 
ATOM     32  C   UNL     1       6.909  -2.236  19.250  0.00  0.00    +0.024 A 
ATOM     33  C   UNL     1       7.228  -3.193  18.219  0.00  0.00    +0.007 A 
ATOM     34  C   UNL     1       6.237  -3.597  17.263  0.00  0.00    -0.029 A 
ATOM     35  C   UNL     1       6.634  -4.631  16.184  0.00  0.00    +0.045 C 
ENDROOT
BRANCH  10   9
ATOM      4  C   UNL     1       2.343  -2.263  13.369  0.00  0.00    +0.077 A 
ATOM      5  C   UNL     1       3.056  -1.055  13.068  0.00  0.00    +0.048 A 
ATOM      6  C   UNL     1       4.067  -0.657  13.971  0.00  0.00    +0.116 A 
ATOM      7  N   UNL     1       4.337  -1.418  15.088  0.00  0.00    -0.223 NA
ATOM      8  C   UNL     1       3.630  -2.577  15.349  0.00  0.00    +0.220 A 
ATOM      9  N   UNL     1       3.890  -3.362  16.462  0.00  0.00    -0.283 N 
ATOM     36  H   UNL     1       3.341  -4.206  16.623  0.00  0.00    +0.155 HD
ATOM     37  N   UNL     1       2.658  -2.978  14.503  0.00  0.00    -0.214 NA
BRANCH   4   3
ATOM      1  C   UNL     1      -1.152  -2.932  11.745  0.00  0.00    +0.020 A 
ATOM      2  C   UNL     1      -0.134  -2.365  12.599  0.00  0.00    +0.013 A 
ATOM      3  C   UNL     1       1.249  -2.817  12.510  0.00  0.00    +0.019 A 
ATOM     38  C   UNL     1       1.571  -3.852  11.539  0.00  0.00    +0.120 A 
ATOM     39  N   UNL     1       0.569  -4.380  10.731  0.00  0.00    -0.263 NA
ATOM     40  C   UNL     1      -0.766  -3.955  10.809  0.00  0.00    +0.111 A 
ENDBRANCH   4   3
ENDBRANCH  10   9
BRANCH  12  13
ATOM     13  N   UNL     1       5.360  -0.724  20.416  0.00  0.00    -0.281 N 
ATOM     14  C   UNL     1       5.413  -0.948  21.782  0.00  0.00    +0.248 C 
ATOM     30  O   UNL     1       5.471  -2.054  22.299  0.00  0.00    -0.270 OA
ATOM     31  H   UNL     1       5.118   0.224  20.126  0.00  0.00    +0.155 HD
BRANCH  14  15
ATOM     15  C   UNL     1       5.381   0.225  22.708  0.00  0.00    +0.037 A 
ATOM     16  C   UNL     1       5.849   0.113  24.092  0.00  0.00    +0.013 A 
ATOM     17  C   UNL     1       5.791   1.256  24.969  0.00  0.00    +0.005 A 
ATOM     18  C   UNL     1       5.265   2.521  24.463  0.00  0.00    -0.033 A 
ATOM     28  C   UNL     1       4.813   2.606  23.084  0.00  0.00    +0.005 A 
ATOM     29  C   UNL     1       4.867   1.488  22.222  0.00  0.00    +0.013 A 
BRANCH  18  19
ATOM     19  C   UNL     1       5.147   3.786  25.334  0.00  0.00    +0.119 C 
BRANCH  19  20
ATOM     20  N   UNL     1       3.945   3.902  26.213  0.00  0.00    -0.302 NA
ATOM     21  C   UNL     1       2.791   4.627  25.515  0.00  0.00    +0.066 C 
ATOM     22  C   UNL     1       1.535   4.720  26.440  0.00  0.00    -0.064 C 
ATOM     23  N   UNL     1       1.913   5.430  27.741  0.00  0.00    +0.379 N 
ATOM     24  C   UNL     1       0.721   5.570  28.589  0.00  0.00    -0.096 C 
ATOM     25  H   UNL     1       2.263   6.455  27.477  0.00  0.00    -0.082 HD
ATOM     26  C   UNL     1       3.062   4.716  28.440  0.00  0.00    -0.064 C 
ATOM     27  C   UNL     1       4.296   4.604  27.501  0.00  0.00    +0.066 C 
ENDBRANCH  19  20
ENDBRANCH  18  19
ENDBRANCH  14  15
ENDBRANCH  12  13
TORSDOF 6
ENDMDL
MODEL 3
REMARK VINA RESULT:      -7.7      7.814     12.156
REMARK  Name = C:\Users\Docking\Desktop\test protocol\1iep_ligandH.pdb
REMARK  8 active torsions:
REMARK  status: ('A' for Active; 'I' for Inactive)
REMARK    1  A    between atoms: _5  and  _11
REMARK    2  A    between atoms: _19  and  _21
REMARK    3  A    between atoms: _22  and  _66
REMARK    4  A    between atoms: _27  and  _30
REMARK    5  A    between atoms: _32  and  _33
REMARK    6  A    between atoms: _38  and  _43
REMARK    7  A    between atoms: _43  and  _46
REMARK    8  A    between atoms: _53  and  _55
REMARK                            x       y       z     vdW  Elec       q    Type
REMARK                         _______ _______ _______ _____ _____    ______ ____
ROOT
ATOM     10  C   UNL     1       5.107  -0.689  22.504  0.00  0.00    +0.038 A 
ATOM     11  C   UNL     1       4.723  -0.682  21.139  0.00  0.00    +0.047 A 
ATOM     12  C   UNL     1       5.353  -1.571  20.175  0.00  0.00    +0.035 A 
ATOM     32  C   UNL     1       6.371  -2.456  20.638  0.00  0.00    +0.024 A 
ATOM     33  C   UNL     1       6.775  -2.475  22.021  0.00  0.00    +0.007 A 
ATOM     34  C   UNL     1       6.158  -1.598  22.976  0.00  0.00    -0.029 A 
ATOM     35  C   UNL     1       6.636  -1.657  24.446  0.00  0.00    +0.045 C 
ENDROOT
BRANCH  10   9
ATOM      4  C   UNL     1       4.920   3.391  25.026  0.00  0.00    +0.077 A 
ATOM      5  C   UNL     1       6.217   3.802  24.570  0.00  0.00    +0.048 A 
ATOM      6  C   UNL     1       6.902   2.931  23.692  0.00  0.00    +0.116 A 
ATOM      7  N   UNL     1       6.324   1.741  23.307  0.00  0.00    -0.223 NA
ATOM      8  C   UNL     1       5.072   1.374  23.767  0.00  0.00    +0.220 A 
ATOM      9  N   UNL     1       4.468   0.186  23.386  0.00  0.00    -0.283 N 
ATOM     36  H   UNL     1       3.547  -0.052  23.753  0.00  0.00    +0.155 HD
ATOM     37  N   UNL     1       4.398   2.187  24.607  0.00  0.00    -0.214 NA
BRANCH   4   3
ATOM      1  C   UNL     1       3.645   5.374  28.147  0.00  0.00    +0.020 A 
ATOM      2  C   UNL     1       4.503   4.588  27.291  0.00  0.00    +0.013 A 
ATOM      3  C   UNL     1       4.071   4.203  25.954  0.00  0.00    +0.019 A 
ATOM     38  C   UNL     1       2.754   4.634  25.509  0.00  0.00    +0.120 A 
ATOM     39  N   UNL     1       1.949   5.389  26.355  0.00  0.00    -0.263 NA
ATOM     40  C   UNL     1       2.354   5.764  27.645  0.00  0.00    +0.111 A 
ENDBRANCH   4   3
ENDBRANCH  10   9
BRANCH  12  13
ATOM     13  N   UNL     1       5.010  -1.604  18.775  0.00  0.00    -0.281 N 
ATOM     14  C   UNL     1       4.417  -2.637  18.068  0.00  0.00    +0.248 C 
ATOM     30  O   UNL     1       4.285  -3.776  18.489  0.00  0.00    -0.270 OA
ATOM     31  H   UNL     1       5.231  -0.764  18.241  0.00  0.00    +0.155 HD
BRANCH  14  15
ATOM     15  C   UNL     1       3.909  -2.368  16.688  0.00  0.00    +0.037 A 
ATOM     16  C   UNL     1       2.734  -3.067  16.161  0.00  0.00    +0.013 A 
ATOM     17  C   UNL     1       2.276  -2.802  14.820  0.00  0.00    +0.005 A 
ATOM     18  C   UNL     1       2.994  -1.831  13.997  0.00  0.00    -0.033 A 
ATOM     28  C   UNL     1       4.153  -1.149  14.547  0.00  0.00    +0.005 A 
ATOM     29  C   UNL     1       4.606  -1.407  15.860  0.00  0.00    +0.013 A 
BRANCH  18  19
ATOM     19  C   UNL     1       2.588  -1.502  12.548  0.00  0.00    +0.119 C 
BRANCH  19  20
ATOM     20  N   UNL     1       2.269  -2.651  11.649  0.00  0.00    -0.302 NA
ATOM     21  C   UNL     1       3.499  -3.517  11.365  0.00  0.00    +0.066 C 
ATOM     22  C   UNL     1       3.142  -4.727  10.441  0.00  0.00    -0.064 C 
ATOM     23  N   UNL     1       2.533  -4.207   9.138  0.00  0.00    +0.379 N 
ATOM     24  C   UNL     1       2.250  -5.339   8.243  0.00  0.00    -0.096 C 
ATOM     25  H   UNL     1       3.296  -3.565   8.640  0.00  0.00    -0.082 HD
ATOM     26  C   UNL     1       1.310  -3.343   9.411  0.00  0.00    -0.064 C 
ATOM     27  C   UNL     1       1.669  -2.160  10.354  0.00  0.00    +0.066 C 
ENDBRANCH  19  20
ENDBRANCH  18  19
ENDBRANCH  14  15
ENDBRANCH  12  13
TORSDOF 6
ENDMDL
MODEL 4
REMARK VINA RESULT:      -7.7      7.161      9.854
REMARK  Name = C:\Users\Docking\Desktop\test protocol\1iep_ligandH.pdb
REMARK  8 active torsions:
REMARK  status: ('A' for Active; 'I' for Inactive)
REMARK    1  A    between atoms: _5  and  _11
REMARK    2  A    between atoms: _19  and  _21
REMARK    3  A    between atoms: _22  and  _66
REMARK    4  A    between atoms: _27  and  _30
REMARK    5  A    between atoms: _32  and  _33
REMARK    6  A    between atoms: _38  and  _43
REMARK    7  A    between atoms: _43  and  _46
REMARK    8  A    between atoms: _53  and  _55
REMARK                            x       y       z     vdW  Elec       q    Type
REMARK                         _______ _______ _______ _____ _____    ______ ____
ROOT
ATOM     10  C   UNL     1       1.082  -3.408  13.072  0.00  0.00    +0.038 A 
ATOM     11  C   UNL     1       2.068  -3.281  14.085  0.00  0.00    +0.047 A 
ATOM     12  C   UNL     1       2.297  -2.012  14.757  0.00  0.00    +0.035 A 
ATOM     32  C   UNL     1       1.502  -0.892  14.375  0.00  0.00    +0.024 A 
ATOM     33  C   UNL     1       0.497  -1.003  13.347  0.00  0.00    +0.007 A 
ATOM     34  C   UNL     1       0.268  -2.252  12.679  0.00  0.00    -0.029 A 
ATOM     35  C   UNL     1      -0.818  -2.311  11.580  0.00  0.00    +0.045 C 
ENDROOT
BRANCH  10   9
ATOM      4  C   UNL     1       1.751  -6.469   9.436  0.00  0.00    +0.077 A 
ATOM      5  C   UNL     1       2.495  -5.502   8.681  0.00  0.00    +0.048 A 
ATOM      6  C   UNL     1       2.677  -4.227   9.261  0.00  0.00    +0.116 A 
ATOM      7  N   UNL     1       2.150  -3.950  10.504  0.00  0.00    -0.223 NA
ATOM      8  C   UNL     1       1.436  -4.905  11.205  0.00  0.00    +0.220 A 
ATOM      9  N   UNL     1       0.905  -4.651  12.460  0.00  0.00    -0.283 N 
ATOM     36  H   UNL     1       0.378  -5.379  12.941  0.00  0.00    +0.155 HD
ATOM     37  N   UNL     1       1.247  -6.130  10.672  0.00  0.00    -0.214 NA
BRANCH   4   3
ATOM      1  C   UNL     1       0.028  -9.919   8.780  0.00  0.00    +0.020 A 
ATOM      2  C   UNL     1       0.243  -8.575   9.265  0.00  0.00    +0.013 A 
ATOM      3  C   UNL     1       1.477  -7.862   8.960  0.00  0.00    +0.019 A 
ATOM     38  C   UNL     1       2.480  -8.541   8.154  0.00  0.00    +0.120 A 
ATOM     39  N   UNL     1       2.246  -9.836   7.702  0.00  0.00    -0.263 NA
ATOM     40  C   UNL     1       1.063 -10.533   7.991  0.00  0.00    +0.111 A 
ENDBRANCH   4   3
ENDBRANCH  10   9
BRANCH  12  13
ATOM     13  N   UNL     1       3.288  -1.821  15.786  0.00  0.00    -0.281 N 
ATOM     14  C   UNL     1       4.585  -1.356  15.644  0.00  0.00    +0.248 C 
ATOM     30  O   UNL     1       5.162  -1.235  14.573  0.00  0.00    -0.270 OA
ATOM     31  H   UNL     1       2.999  -2.057  16.735  0.00  0.00    +0.155 HD
BRANCH  14  15
ATOM     15  C   UNL     1       5.358  -0.986  16.868  0.00  0.00    +0.037 A 
ATOM     16  C   UNL     1       6.369   0.074  16.837  0.00  0.00    +0.013 A 
ATOM     17  C   UNL     1       7.113   0.400  18.028  0.00  0.00    +0.005 A 
ATOM     18  C   UNL     1       6.846  -0.335  19.262  0.00  0.00    -0.033 A 
ATOM     28  C   UNL     1       5.834  -1.379  19.266  0.00  0.00    +0.005 A 
ATOM     29  C   UNL     1       5.104  -1.701  18.100  0.00  0.00    +0.013 A 
BRANCH  18  19
ATOM     19  C   UNL     1       7.607  -0.069  20.575  0.00  0.00    +0.119 C 
BRANCH  19  20
ATOM     20  N   UNL     1       6.816   0.453  21.729  0.00  0.00    -0.302 NA
ATOM     21  C   UNL     1       5.998   1.692  21.351  0.00  0.00    +0.066 C 
ATOM     22  C   UNL     1       5.160   2.212  22.564  0.00  0.00    -0.064 C 
ATOM     23  N   UNL     1       6.096   2.517  23.734  0.00  0.00    +0.379 N 
ATOM     24  C   UNL     1       5.318   3.061  24.856  0.00  0.00    -0.096 C 
ATOM     25  H   UNL     1       6.807   3.309  23.400  0.00  0.00    -0.082 HD
ATOM     26  C   UNL     1       6.915   1.292  24.114  0.00  0.00    -0.064 C 
ATOM     27  C   UNL     1       7.722   0.766  22.894  0.00  0.00    +0.066 C 
ENDBRANCH  19  20
ENDBRANCH  18  19
ENDBRANCH  14  15
ENDBRANCH  12  13
TORSDOF 6
ENDMDL
MODEL 5
REMARK VINA RESULT:      -7.5      7.625     12.738
REMARK  Name = C:\Users\Docking\Desktop\test protocol\1iep_ligandH.pdb
REMARK  8 active torsions:
REMARK  status: ('A' for Active; 'I' for Inactive)
REMARK    1  A    between atoms: _5  and  _11
REMARK    2  A    between atoms: _19  and  _21
REMARK    3  A    between atoms: _22  and  _66
REMARK    4  A    between atoms: _27  and  _30
REMARK    5  A    between atoms: _32  and  _33
REMARK    6  A    between atoms: _38  and  _43
REMARK    7  A    between atoms: _43  and  _46
REMARK    8  A    between atoms: _53  and  _55
REMARK                            x       y       z     vdW  Elec       q    Type
REMARK                         _______ _______ _______ _____ _____    ______ ____
ROOT
ATOM     10  C   UNL     1       1.415   5.135   7.170  0.00  0.00    +0.038 A 
ATOM     11  C   UNL     1       1.322   4.032   8.057  0.00  0.00    +0.047 A 
ATOM     12  C   UNL     1       2.296   3.836   9.119  0.00  0.00    +0.035 A 
ATOM     32  C   UNL     1       3.352   4.784   9.251  0.00  0.00    +0.024 A 
ATOM     33  C   UNL     1       3.463   5.910   8.358  0.00  0.00    +0.007 A 
ATOM     34  C   UNL     1       2.506   6.108   7.307  0.00  0.00    -0.029 A 
ATOM     35  C   UNL     1       2.678   7.330   6.374  0.00  0.00    +0.045 C 
ENDROOT
BRANCH  10   9
ATOM      4  C   UNL     1      -0.081   4.634   2.637  0.00  0.00    +0.077 A 
ATOM      5  C   UNL     1       1.172   4.070   2.224  0.00  0.00    +0.048 A 
ATOM      6  C   UNL     1       2.178   3.932   3.207  0.00  0.00    +0.116 A 
ATOM      7  N   UNL     1       1.937   4.332   4.504  0.00  0.00    -0.223 NA
ATOM      8  C   UNL     1       0.718   4.874   4.869  0.00  0.00    +0.220 A 
ATOM      9  N   UNL     1       0.452   5.275   6.168  0.00  0.00    -0.283 N 
ATOM     36  H   UNL     1      -0.457   5.677   6.396  0.00  0.00    +0.155 HD
ATOM     37  N   UNL     1      -0.258   5.017   3.948  0.00  0.00    -0.214 NA
BRANCH   4   3
ATOM      1  C   UNL     1      -3.645   5.451   1.248  0.00  0.00    +0.020 A 
ATOM      2  C   UNL     1      -2.556   5.266   2.180  0.00  0.00    +0.013 A 
ATOM      3  C   UNL     1      -1.242   4.840   1.715  0.00  0.00    +0.019 A 
ATOM     38  C   UNL     1      -1.060   4.610   0.290  0.00  0.00    +0.120 A 
ATOM     39  N   UNL     1      -2.127   4.795  -0.584  0.00  0.00    -0.263 NA
ATOM     40  C   UNL     1      -3.397   5.202  -0.148  0.00  0.00    +0.111 A 
ENDBRANCH   4   3
ENDBRANCH  10   9
BRANCH  12  13
ATOM     13  N   UNL     1       2.257   2.730  10.044  0.00  0.00    -0.281 N 
ATOM     14  C   UNL     1       1.511   2.619  11.206  0.00  0.00    +0.248 C 
ATOM     30  O   UNL     1       0.922   3.546  11.742  0.00  0.00    -0.270 OA
ATOM     31  H   UNL     1       2.851   1.934   9.815  0.00  0.00    +0.155 HD
BRANCH  14  15
ATOM     15  C   UNL     1       1.417   1.287  11.879  0.00  0.00    +0.037 A 
ATOM     16  C   UNL     1       0.235   0.911  12.659  0.00  0.00    +0.013 A 
ATOM     17  C   UNL     1       0.178  -0.373  13.312  0.00  0.00    +0.005 A 
ATOM     18  C   UNL     1       1.307  -1.291  13.186  0.00  0.00    -0.033 A 
ATOM     28  C   UNL     1       2.464  -0.895  12.401  0.00  0.00    +0.005 A 
ATOM     29  C   UNL     1       2.525   0.363  11.761  0.00  0.00    +0.013 A 
BRANCH  18  19
ATOM     19  C   UNL     1       1.341  -2.673  13.865  0.00  0.00    +0.119 C 
BRANCH  19  20
ATOM     20  N   UNL     1       1.051  -3.863  13.011  0.00  0.00    -0.302 NA
ATOM     21  C   UNL     1       2.321  -4.438  12.378  0.00  0.00    +0.066 C 
ATOM     22  C   UNL     1       2.002  -5.696  11.505  0.00  0.00    -0.064 C 
ATOM     23  N   UNL     1       0.982  -5.321  10.429  0.00  0.00    +0.379 N 
ATOM     24  C   UNL     1       0.724  -6.487   9.571  0.00  0.00    -0.096 C 
ATOM     25  H   UNL     1       1.438  -4.527   9.793  0.00  0.00    -0.082 HD
ATOM     26  C   UNL     1      -0.283  -4.746  11.050  0.00  0.00    -0.064 C 
ATOM     27  C   UNL     1       0.049  -3.514  11.938  0.00  0.00    +0.066 C 
ENDBRANCH  19  20
ENDBRANCH  18  19
ENDBRANCH  14  15
ENDBRANCH  12  13
TORSDOF 6
ENDMDL
