MODEL 1
REMARK VINA RESULT:      -8.0      0.000      0.000
REMARK  Name = C:\Users\Docking\Desktop\test protocol\1iep_ligandH.pdb
REMARK  8 active torsions:
REMARK  status: ('A' for Active; 'I' for Inactive)
REMARK    1  A    between atoms: _5  and  _11
REMARK    2  A    between atoms: _19  and  _21
REMARK    3  A    between atoms: _22  and  _66
REMARK    4  A    between atoms: _27  and  _30
REMARK    5  A    between atoms: _32  and  _33
REMARK    6  A    between atoms: _38  and  _43
REMARK    7  A    between atoms: _43  and  _46
REMARK    8  A    between atoms: _53  and  _55
REMARK                            x       y       z     vdW  Elec       q    Type
REMARK                         _______ _______ _______ _____ _____    ______ ____
ROOT
ATOM     10  C   UNL     1       3.415  -4.379  14.443  0.00  0.00    +0.038 A 
ATOM     11  C   UNL     1       2.813  -4.866  15.631  0.00  0.00    +0.047 A 
ATOM     12  C   UNL     1       3.074  -6.214  16.110  0.00  0.00    +0.035 A 
ATOM     32  C   UNL     1       3.957  -7.040  15.354  0.00  0.00    +0.024 A 
ATOM     33  C   UNL     1       4.577  -6.562  14.143  0.00  0.00    +0.007 A 
ATOM     34  C   UNL     1       4.321  -5.233  13.665  0.00  0.00    -0.029 A 
ATOM     35  C   UNL     1       5.007  -4.775  12.357  0.00  0.00    +0.045 C 
ENDROOT
BRANCH  10   9
ATOM      4  C   UNL     1       0.810  -1.201  11.963  0.00  0.00    +0.077 A 
ATOM      5  C   UNL     1      -0.036  -2.226  11.423  0.00  0.00    +0.048 A 
ATOM      6  C   UNL     1       0.238  -3.560  11.803  0.00  0.00    +0.116 A 
ATOM      7  N   UNL     1       1.281  -3.835  12.660  0.00  0.00    -0.223 NA
ATOM      8  C   UNL     1       2.079  -2.823  13.161  0.00  0.00    +0.220 A 
ATOM      9  N   UNL     1       3.129  -3.076  14.030  0.00  0.00    -0.283 N 
ATOM     36  H   UNL     1       3.698  -2.302  14.372  0.00  0.00    +0.155 HD
ATOM     37  N   UNL     1       1.839  -1.541  12.812  0.00  0.00    -0.214 NA
BRANCH   4   3
ATOM      1  C   UNL     1       0.636   2.222  10.078  0.00  0.00    +0.020 A 
ATOM      2  C   UNL     1       0.806   0.808  10.319  0.00  0.00    +0.013 A 
ATOM      3  C   UNL     1       0.645   0.256  11.658  0.00  0.00    +0.019 A 
ATOM     38  C   UNL     1       0.309   1.169  12.740  0.00  0.00    +0.120 A 
ATOM     39  N   UNL     1       0.153   2.526  12.479  0.00  0.00    -0.263 NA
ATOM     40  C   UNL     1       0.307   3.069  11.194  0.00  0.00    +0.111 A 
ENDBRANCH   4   3
ENDBRANCH  10   9
BRANCH  12  13
ATOM     13  N   UNL     1       2.486  -6.766  17.305  0.00  0.00    -0.281 N 
ATOM     14  C   UNL     1       2.858  -6.541  18.620  0.00  0.00    +0.248 C 
ATOM     30  O   UNL     1       3.897  -5.994  18.960  0.00  0.00    -0.270 OA
ATOM     31  H   UNL     1       1.699  -7.399  17.164  0.00  0.00    +0.155 HD
BRANCH  14  15
ATOM     15  C   UNL     1       1.953  -7.003  19.716  0.00  0.00    +0.037 A 
ATOM     16  C   UNL     1       1.504  -8.395  19.795  0.00  0.00    +0.013 A 
ATOM     17  C   UNL     1       0.618  -8.810  20.853  0.00  0.00    +0.005 A 
ATOM     18  C   UNL     1       0.175  -7.830  21.842  0.00  0.00    -0.033 A 
ATOM     28  C   UNL     1       0.640  -6.457  21.743  0.00  0.00    +0.005 A 
ATOM     29  C   UNL     1       1.509  -6.046  20.707  0.00  0.00    +0.013 A 
BRANCH  18  19
ATOM     19  C   UNL     1      -0.787  -8.180  22.993  0.00  0.00    +0.119 C 
BRANCH  19  20
ATOM     20  N   UNL     1      -2.201  -8.497  22.630  0.00  0.00    -0.302 NA
ATOM     21  C   UNL     1      -2.971  -7.252  22.181  0.00  0.00    +0.066 C 
ATOM     22  C   UNL     1      -4.441  -7.605  21.783  0.00  0.00    -0.064 C 
ATOM     23  N   UNL     1      -5.140  -8.277  22.967  0.00  0.00    +0.379 N 
ATOM     24  C   UNL     1      -6.539  -8.558  22.616  0.00  0.00    -0.096 C 
ATOM     25  H   UNL     1      -5.142  -7.552  23.814  0.00  0.00    -0.082 HD
ATOM     26  C   UNL     1      -4.378  -9.514  23.421  0.00  0.00    -0.064 C 
ATOM     27  C   UNL     1      -2.910  -9.157  23.786  0.00  0.00    +0.066 C 
ENDBRANCH  19  20
ENDBRANCH  18  19
ENDBRANCH  14  15
ENDBRANCH  12  13
TORSDOF 6
ENDMDL
MODEL 2
REMARK VINA RESULT:      -8.0      2.262      2.699
REMARK  Name = C:\Users\Docking\Desktop\test protocol\1iep_ligandH.pdb
REMARK  8 active torsions:
REMARK  status: ('A' for Active; 'I' for Inactive)
REMARK    1  A    between atoms: _5  and  _11
REMARK    2  A    between atoms: _19  and  _21
REMARK    3  A    between atoms: _22  and  _66
REMARK    4  A    between atoms: _27  and  _30
REMARK    5  A    between atoms: _32  and  _33
REMARK    6  A    between atoms: _38  and  _43
REMARK    7  A    between atoms: _43  and  _46
REMARK    8  A    between atoms: _53  and  _55
REMARK                            x       y       z     vdW  Elec       q    Type
REMARK                         _______ _______ _______ _____ _____    ______ ____
ROOT
ATOM     10  C   UNL     1       3.889  -2.850  16.847  0.00  0.00    +0.038 A 
ATOM     11  C   UNL     1       2.960  -3.694  17.509  0.00  0.00    +0.047 A 
ATOM     12  C   UNL     1       3.399  -4.889  18.213  0.00  0.00    +0.035 A 
ATOM     32  C   UNL     1       4.791  -5.193  18.225  0.00  0.00    +0.024 A 
ATOM     33  C   UNL     1       5.749  -4.346  17.558  0.00  0.00    +0.007 A 
ATOM     34  C   UNL     1       5.322  -3.168  16.859  0.00  0.00    -0.029 A 
ATOM     35  C   UNL     1       6.392  -2.301  16.155  0.00  0.00    +0.045 C 
ENDROOT
BRANCH  10   9
ATOM      4  C   UNL     1       2.102  -0.642  12.978  0.00  0.00    +0.077 A 
ATOM      5  C   UNL     1       2.145  -1.846  12.198  0.00  0.00    +0.048 A 
ATOM      6  C   UNL     1       2.641  -3.009  12.828  0.00  0.00    +0.116 A 
ATOM      7  N   UNL     1       3.059  -2.961  14.140  0.00  0.00    -0.223 NA
ATOM      8  C   UNL     1       3.005  -1.784  14.863  0.00  0.00    +0.220 A 
ATOM      9  N   UNL     1       3.413  -1.715  16.187  0.00  0.00    -0.283 N 
ATOM     36  H   UNL     1       3.364  -0.826  16.683  0.00  0.00    +0.155 HD
ATOM     37  N   UNL     1       2.537  -0.659  14.284  0.00  0.00    -0.214 NA
BRANCH   4   3
ATOM      1  C   UNL     1      -0.199   2.151  11.492  0.00  0.00    +0.020 A 
ATOM      2  C   UNL     1       0.234   0.865  11.988  0.00  0.00    +0.013 A 
ATOM      3  C   UNL     1       1.601   0.668  12.455  0.00  0.00    +0.019 A 
ATOM     38  C   UNL     1       2.511   1.802  12.406  0.00  0.00    +0.120 A 
ATOM     39  N   UNL     1       2.066   3.029  11.922  0.00  0.00    -0.263 NA
ATOM     40  C   UNL     1       0.754   3.229  11.469  0.00  0.00    +0.111 A 
ENDBRANCH   4   3
ENDBRANCH  10   9
BRANCH  12  13
ATOM     13  N   UNL     1       2.501  -5.787  18.895  0.00  0.00    -0.281 N 
ATOM     14  C   UNL     1       2.509  -6.145  20.234  0.00  0.00    +0.248 C 
ATOM     30  O   UNL     1       3.425  -5.909  21.007  0.00  0.00    -0.270 OA
ATOM     31  H   UNL     1       1.772  -6.212  18.322  0.00  0.00    +0.155 HD
BRANCH  14  15
ATOM     15  C   UNL     1       1.335  -6.884  20.790  0.00  0.00    +0.037 A 
ATOM     16  C   UNL     1       1.190  -8.330  20.605  0.00  0.00    +0.013 A 
ATOM     17  C   UNL     1       0.039  -9.015  21.138  0.00  0.00    +0.005 A 
ATOM     18  C   UNL     1      -0.976  -8.254  21.863  0.00  0.00    -0.033 A 
ATOM     28  C   UNL     1      -0.804  -6.822  22.036  0.00  0.00    +0.005 A 
ATOM     29  C   UNL     1       0.322  -6.146  21.515  0.00  0.00    +0.013 A 
BRANCH  18  19
ATOM     19  C   UNL     1      -2.246  -8.900  22.447  0.00  0.00    +0.119 C 
BRANCH  19  20
ATOM     20  N   UNL     1      -3.348  -9.227  21.493  0.00  0.00    -0.302 NA
ATOM     21  C   UNL     1      -3.072 -10.517  20.717  0.00  0.00    +0.066 C 
ATOM     22  C   UNL     1      -4.244 -10.856  19.740  0.00  0.00    -0.064 C 
ATOM     23  N   UNL     1      -4.461  -9.684  18.781  0.00  0.00    +0.379 N 
ATOM     24  C   UNL     1      -5.524 -10.023  17.824  0.00  0.00    -0.096 C 
ATOM     25  H   UNL     1      -3.518  -9.541  18.203  0.00  0.00    -0.082 HD
ATOM     26  C   UNL     1      -4.733  -8.396  19.545  0.00  0.00    -0.064 C 
ATOM     27  C   UNL     1      -3.576  -8.084  20.534  0.00  0.00    +0.066 C 
ENDBRANCH  19  20
ENDBRANCH  18  19
ENDBRANCH  14  15
ENDBRANCH  12  13
TORSDOF 6
ENDMDL
MODEL 3
REMARK VINA RESULT:      -7.6      8.042     12.888
REMARK  Name = C:\Users\Docking\Desktop\test protocol\1iep_ligandH.pdb
REMARK  8 active torsions:
REMARK  status: ('A' for Active; 'I' for Inactive)
REMARK    1  A    between atoms: _5  and  _11
REMARK    2  A    between atoms: _19  and  _21
REMARK    3  A    between atoms: _22  and  _66
REMARK    4  A    between atoms: _27  and  _30
REMARK    5  A    between atoms: _32  and  _33
REMARK    6  A    between atoms: _38  and  _43
REMARK    7  A    between atoms: _43  and  _46
REMARK    8  A    between atoms: _53  and  _55
REMARK                            x       y       z     vdW  Elec       q    Type
REMARK                         _______ _______ _______ _____ _____    ______ ____
ROOT
ATOM     10  C   UNL     1       5.251  -0.478  22.721  0.00  0.00    +0.038 A 
ATOM     11  C   UNL     1       5.007  -0.434  21.324  0.00  0.00    +0.047 A 
ATOM     12  C   UNL     1       5.686  -1.343  20.413  0.00  0.00    +0.035 A 
ATOM     32  C   UNL     1       6.605  -2.285  20.960  0.00  0.00    +0.024 A 
ATOM     33  C   UNL     1       6.866  -2.342  22.376  0.00  0.00    +0.007 A 
ATOM     34  C   UNL     1       6.201  -1.447  23.280  0.00  0.00    -0.029 A 
ATOM     35  C   UNL     1       6.524  -1.549  24.789  0.00  0.00    +0.045 C 
ENDROOT
BRANCH  10   9
ATOM      4  C   UNL     1       4.991   3.609  25.225  0.00  0.00    +0.077 A 
ATOM      5  C   UNL     1       6.332   3.978  24.874  0.00  0.00    +0.048 A 
ATOM      6  C   UNL     1       7.057   3.086  24.053  0.00  0.00    +0.116 A 
ATOM      7  N   UNL     1       6.475   1.914  23.621  0.00  0.00    -0.223 NA
ATOM      8  C   UNL     1       5.180   1.587  23.979  0.00  0.00    +0.220 A 
ATOM      9  N   UNL     1       4.571   0.418  23.550  0.00  0.00    -0.283 N 
ATOM     36  H   UNL     1       3.617   0.210  23.842  0.00  0.00    +0.155 HD
ATOM     37  N   UNL     1       4.466   2.422  24.763  0.00  0.00    -0.214 NA
BRANCH   4   3
ATOM      1  C   UNL     1       3.649   5.908  28.091  0.00  0.00    +0.020 A 
ATOM      2  C   UNL     1       4.554   5.107  27.299  0.00  0.00    +0.013 A 
ATOM      3  C   UNL     1       4.096   4.449  26.082  0.00  0.00    +0.019 A 
ATOM     38  C   UNL     1       2.706   4.624  25.690  0.00  0.00    +0.120 A 
ATOM     39  N   UNL     1       1.857   5.400  26.474  0.00  0.00    -0.263 NA
ATOM     40  C   UNL     1       2.286   6.037  27.648  0.00  0.00    +0.111 A 
ENDBRANCH   4   3
ENDBRANCH  10   9
BRANCH  12  13
ATOM     13  N   UNL     1       5.485  -1.340  18.986  0.00  0.00    -0.281 N 
ATOM     14  C   UNL     1       4.645  -2.153  18.242  0.00  0.00    +0.248 C 
ATOM     30  O   UNL     1       4.095  -3.155  18.672  0.00  0.00    -0.270 OA
ATOM     31  H   UNL     1       6.028  -0.655  18.459  0.00  0.00    +0.155 HD
BRANCH  14  15
ATOM     15  C   UNL     1       4.391  -1.810  16.809  0.00  0.00    +0.037 A 
ATOM     16  C   UNL     1       3.358  -2.503  16.034  0.00  0.00    +0.013 A 
ATOM     17  C   UNL     1       3.145  -2.165  14.649  0.00  0.00    +0.005 A 
ATOM     18  C   UNL     1       3.967  -1.127  14.031  0.00  0.00    -0.033 A 
ATOM     28  C   UNL     1       4.981  -0.453  14.824  0.00  0.00    +0.005 A 
ATOM     29  C   UNL     1       5.193  -0.782  16.182  0.00  0.00    +0.013 A 
BRANCH  18  19
ATOM     19  C   UNL     1       3.823  -0.717  12.553  0.00  0.00    +0.119 C 
BRANCH  19  20
ATOM     20  N   UNL     1       2.782   0.302  12.225  0.00  0.00    -0.302 NA
ATOM     21  C   UNL     1       1.715  -0.253  11.276  0.00  0.00    +0.066 C 
ATOM     22  C   UNL     1       0.621   0.819  10.961  0.00  0.00    -0.064 C 
ATOM     23  N   UNL     1       1.285   2.061  10.363  0.00  0.00    +0.379 N 
ATOM     24  C   UNL     1       0.254   3.048  10.012  0.00  0.00    -0.096 C 
ATOM     25  H   UNL     1       1.793   1.751   9.420  0.00  0.00    -0.082 HD
ATOM     26  C   UNL     1       2.349   2.617  11.299  0.00  0.00    -0.064 C 
ATOM     27  C   UNL     1       3.415   1.535  11.629  0.00  0.00    +0.066 C 
ENDBRANCH  19  20
ENDBRANCH  18  19
ENDBRANCH  14  15
ENDBRANCH  12  13
TORSDOF 6
ENDMDL
MODEL 4
REMARK VINA RESULT:      -7.5     16.169     19.419
REMARK  Name = C:\Users\Docking\Desktop\test protocol\1iep_ligandH.pdb
REMARK  8 active torsions:
REMARK  status: ('A' for Active; 'I' for Inactive)
REMARK    1  A    between atoms: _5  and  _11
REMARK    2  A    between atoms: _19  and  _21
REMARK    3  A    between atoms: _22  and  _66
REMARK    4  A    between atoms: _27  and  _30
REMARK    5  A    between atoms: _32  and  _33
REMARK    6  A    between atoms: _38  and  _43
REMARK    7  A    between atoms: _43  and  _46
REMARK    8  A    between atoms: _53  and  _55
REMARK                            x       y       z     vdW  Elec       q    Type
REMARK                         _______ _______ _______ _____ _____    ______ ____
ROOT
ATOM     10  C   UNL     1       4.523   7.535  30.830  0.00  0.00    +0.038 A 
ATOM     11  C   UNL     1       4.925   6.638  29.808  0.00  0.00    +0.047 A 
ATOM     12  C   UNL     1       3.947   5.872  29.051  0.00  0.00    +0.035 A 
ATOM     32  C   UNL     1       2.567   6.046  29.359  0.00  0.00    +0.024 A 
ATOM     33  C   UNL     1       2.140   6.953  30.396  0.00  0.00    +0.007 A 
ATOM     34  C   UNL     1       3.100   7.709  31.147  0.00  0.00    -0.029 A 
ATOM     35  C   UNL     1       2.586   8.662  32.252  0.00  0.00    +0.045 C 
ENDROOT
BRANCH  10   9
ATOM      4  C   UNL     1       7.986   7.834  34.139  0.00  0.00    +0.077 A 
ATOM      5  C   UNL     1       7.807   6.466  34.536  0.00  0.00    +0.048 A 
ATOM      6  C   UNL     1       6.808   5.723  33.868  0.00  0.00    +0.116 A 
ATOM      7  N   UNL     1       6.051   6.313  32.879  0.00  0.00    -0.223 NA
ATOM      8  C   UNL     1       6.248   7.634  32.522  0.00  0.00    +0.220 A 
ATOM      9  N   UNL     1       5.504   8.245  31.525  0.00  0.00    -0.283 N 
ATOM     36  H   UNL     1       5.675   9.224  31.296  0.00  0.00    +0.155 HD
ATOM     37  N   UNL     1       7.195   8.366  33.146  0.00  0.00    -0.214 NA
BRANCH   4   3
ATOM      1  C   UNL     1      10.154  10.981  34.970  0.00  0.00    +0.020 A 
ATOM      2  C   UNL     1       9.156  10.141  34.349  0.00  0.00    +0.013 A 
ATOM      3  C   UNL     1       9.003   8.748  34.749  0.00  0.00    +0.019 A 
ATOM     38  C   UNL     1       9.881   8.232  35.788  0.00  0.00    +0.120 A 
ATOM     39  N   UNL     1      10.834   9.065  36.367  0.00  0.00    -0.263 NA
ATOM     40  C   UNL     1      10.992  10.407  35.990  0.00  0.00    +0.111 A 
ENDBRANCH   4   3
ENDBRANCH  10   9
BRANCH  12  13
ATOM     13  N   UNL     1       4.297   4.940  28.007  0.00  0.00    -0.281 N 
ATOM     14  C   UNL     1       4.099   5.075  26.643  0.00  0.00    +0.248 C 
ATOM     30  O   UNL     1       3.393   5.930  26.129  0.00  0.00    -0.270 OA
ATOM     31  H   UNL     1       4.746   4.076  28.311  0.00  0.00    +0.155 HD
BRANCH  14  15
ATOM     15  C   UNL     1       4.770   4.113  25.717  0.00  0.00    +0.037 A 
ATOM     16  C   UNL     1       6.166   4.296  25.313  0.00  0.00    +0.013 A 
ATOM     17  C   UNL     1       6.785   3.363  24.404  0.00  0.00    +0.005 A 
ATOM     18  C   UNL     1       6.006   2.236  23.895  0.00  0.00    -0.033 A 
ATOM     28  C   UNL     1       4.624   2.076  24.317  0.00  0.00    +0.005 A 
ATOM     29  C   UNL     1       4.015   2.989  25.206  0.00  0.00    +0.013 A 
BRANCH  18  19
ATOM     19  C   UNL     1       6.578   1.203  22.906  0.00  0.00    +0.119 C 
BRANCH  19  20
ATOM     20  N   UNL     1       5.783  -0.041  22.681  0.00  0.00    -0.302 NA
ATOM     21  C   UNL     1       6.285  -1.206  23.538  0.00  0.00    +0.066 C 
ATOM     22  C   UNL     1       5.428  -2.493  23.307  0.00  0.00    -0.064 C 
ATOM     23  N   UNL     1       5.456  -2.861  21.822  0.00  0.00    +0.379 N 
ATOM     24  C   UNL     1       4.699  -4.103  21.610  0.00  0.00    -0.096 C 
ATOM     25  H   UNL     1       6.517  -3.059  21.543  0.00  0.00    -0.082 HD
ATOM     26  C   UNL     1       4.961  -1.707  20.963  0.00  0.00    -0.064 C 
ATOM     27  C   UNL     1       5.800  -0.425  21.222  0.00  0.00    +0.066 C 
ENDBRANCH  19  20
ENDBRANCH  18  19
ENDBRANCH  14  15
ENDBRANCH  12  13
TORSDOF 6
ENDMDL
MODEL 5
REMARK VINA RESULT:      -7.5      5.397      7.294
REMARK  Name = C:\Users\Docking\Desktop\test protocol\1iep_ligandH.pdb
REMARK  8 active torsions:
REMARK  status: ('A' for Active; 'I' for Inactive)
REMARK    1  A    between atoms: _5  and  _11
REMARK    2  A    between atoms: _19  and  _21
REMARK    3  A    between atoms: _22  and  _66
REMARK    4  A    between atoms: _27  and  _30
REMARK    5  A    between atoms: _32  and  _33
REMARK    6  A    between atoms: _38  and  _43
REMARK    7  A    between atoms: _43  and  _46
REMARK    8  A    between atoms: _53  and  _55
REMARK                            x       y       z     vdW  Elec       q    Type
REMARK                         _______ _______ _______ _____ _____    ______ ____
ROOT
ATOM     10  C   UNL     1       2.818  -2.382  13.447  0.00  0.00    +0.038 A 
ATOM     11  C   UNL     1       3.134  -2.251  14.824  0.00  0.00    +0.047 A 
ATOM     12  C   UNL     1       2.965  -3.364  15.744  0.00  0.00    +0.035 A 
ATOM     32  C   UNL     1       2.474  -4.599  15.227  0.00  0.00    +0.024 A 
ATOM     33  C   UNL     1       2.147  -4.749  13.831  0.00  0.00    +0.007 A 
ATOM     34  C   UNL     1       2.309  -3.653  12.919  0.00  0.00    -0.029 A 
ATOM     35  C   UNL     1       1.936  -3.869  11.434  0.00  0.00    +0.045 C 
ENDROOT
BRANCH  10   9
ATOM      4  C   UNL     1       1.377   1.798  11.579  0.00  0.00    +0.077 A 
ATOM      5  C   UNL     1       0.147   1.771  12.315  0.00  0.00    +0.048 A 
ATOM      6  C   UNL     1      -0.080   0.661  13.159  0.00  0.00    +0.116 A 
ATOM      7  N   UNL     1       0.860  -0.342  13.251  0.00  0.00    -0.223 NA
ATOM      8  C   UNL     1       2.036  -0.286  12.525  0.00  0.00    +0.220 A 
ATOM      9  N   UNL     1       2.999  -1.280  12.608  0.00  0.00    -0.283 N 
ATOM     36  H   UNL     1       3.850  -1.205  12.051  0.00  0.00    +0.155 HD
ATOM     37  N   UNL     1       2.276   0.763  11.712  0.00  0.00    -0.214 NA
BRANCH   4   3
ATOM      1  C   UNL     1       1.441   4.291   8.564  0.00  0.00    +0.020 A 
ATOM      2  C   UNL     1       1.027   3.209   9.428  0.00  0.00    +0.013 A 
ATOM      3  C   UNL     1       1.763   2.906  10.649  0.00  0.00    +0.019 A 
ATOM     38  C   UNL     1       2.924   3.724  10.969  0.00  0.00    +0.120 A 
ATOM     39  N   UNL     1       3.300   4.758  10.118  0.00  0.00    -0.263 NA
ATOM     40  C   UNL     1       2.600   5.057   8.940  0.00  0.00    +0.111 A 
ENDBRANCH   4   3
ENDBRANCH  10   9
BRANCH  12  13
ATOM     13  N   UNL     1       3.261  -3.288  17.153  0.00  0.00    -0.281 N 
ATOM     14  C   UNL     1       4.456  -3.583  17.789  0.00  0.00    +0.248 C 
ATOM     30  O   UNL     1       5.393  -4.165  17.263  0.00  0.00    -0.270 OA
ATOM     31  H   UNL     1       2.498  -2.979  17.754  0.00  0.00    +0.155 HD
BRANCH  14  15
ATOM     15  C   UNL     1       4.630  -3.187  19.219  0.00  0.00    +0.037 A 
ATOM     16  C   UNL     1       4.705  -4.193  20.282  0.00  0.00    +0.013 A 
ATOM     17  C   UNL     1       4.855  -3.783  21.656  0.00  0.00    +0.005 A 
ATOM     18  C   UNL     1       4.933  -2.359  21.974  0.00  0.00    -0.033 A 
ATOM     28  C   UNL     1       4.861  -1.383  20.900  0.00  0.00    +0.005 A 
ATOM     29  C   UNL     1       4.712  -1.781  19.552  0.00  0.00    +0.013 A 
BRANCH  18  19
ATOM     19  C   UNL     1       5.072  -1.830  23.414  0.00  0.00    +0.119 C 
BRANCH  19  20
ATOM     20  N   UNL     1       6.455  -1.677  23.956  0.00  0.00    -0.302 NA
ATOM     21  C   UNL     1       6.902  -2.909  24.748  0.00  0.00    +0.066 C 
ATOM     22  C   UNL     1       8.359  -2.742  25.288  0.00  0.00    -0.064 C 
ATOM     23  N   UNL     1       8.438  -1.483  26.154  0.00  0.00    +0.379 N 
ATOM     24  C   UNL     1       9.792  -1.354  26.710  0.00  0.00    -0.096 C 
ATOM     25  H   UNL     1       7.733  -1.616  27.007  0.00  0.00    -0.082 HD
ATOM     26  C   UNL     1       7.993  -0.254  25.375  0.00  0.00    -0.064 C 
ATOM     27  C   UNL     1       6.554  -0.443  24.818  0.00  0.00    +0.066 C 
ENDBRANCH  19  20
ENDBRANCH  18  19
ENDBRANCH  14  15
ENDBRANCH  12  13
TORSDOF 6
ENDMDL
