MODEL 1
REMARK VINA RESULT:      -8.8      0.000      0.000
REMARK  Name = C:\Users\Docking\Desktop\test protocol\1iep_ligandH.pdb
REMARK  8 active torsions:
REMARK  status: ('A' for Active; 'I' for Inactive)
REMARK    1  A    between atoms: _5  and  _11
REMARK    2  A    between atoms: _19  and  _21
REMARK    3  A    between atoms: _22  and  _66
REMARK    4  A    between atoms: _27  and  _30
REMARK    5  A    between atoms: _32  and  _33
REMARK    6  A    between atoms: _38  and  _43
REMARK    7  A    between atoms: _43  and  _46
REMARK    8  A    between atoms: _53  and  _55
REMARK                            x       y       z     vdW  Elec       q    Type
REMARK                         _______ _______ _______ _____ _____    ______ ____
ROOT
ATOM     10  C   UNL     1      21.726 -31.205  -1.793  0.00  0.00    +0.038 A 
ATOM     11  C   UNL     1      22.495 -30.539  -0.805  0.00  0.00    +0.047 A 
ATOM     12  C   UNL     1      21.941 -30.244   0.507  0.00  0.00    +0.035 A 
ATOM     32  C   UNL     1      20.601 -30.644   0.781  0.00  0.00    +0.024 A 
ATOM     33  C   UNL     1      19.804 -31.321  -0.212  0.00  0.00    +0.007 A 
ATOM     34  C   UNL     1      20.344 -31.613  -1.509  0.00  0.00    -0.029 A 
ATOM     35  C   UNL     1      19.443 -32.336  -2.537  0.00  0.00    +0.045 C 
ENDROOT
BRANCH  10   9
ATOM      4  C   UNL     1      24.085 -29.812  -5.734  0.00  0.00    +0.077 A 
ATOM      5  C   UNL     1      24.139 -28.448  -5.290  0.00  0.00    +0.048 A 
ATOM      6  C   UNL     1      23.542 -28.146  -4.046  0.00  0.00    +0.116 A 
ATOM      7  N   UNL     1      22.939 -29.141  -3.308  0.00  0.00    -0.223 NA
ATOM      8  C   UNL     1      22.902 -30.446  -3.765  0.00  0.00    +0.220 A 
ATOM      9  N   UNL     1      22.307 -31.464  -3.036  0.00  0.00    -0.283 N 
ATOM     36  H   UNL     1      22.295 -32.412  -3.411  0.00  0.00    +0.155 HD
ATOM     37  N   UNL     1      23.464 -30.760  -4.951  0.00  0.00    -0.214 NA
BRANCH   4   3
ATOM      1  C   UNL     1      24.484 -31.050  -9.422  0.00  0.00    +0.020 A 
ATOM      2  C   UNL     1      23.866 -30.593  -8.199  0.00  0.00    +0.013 A 
ATOM      3  C   UNL     1      24.674 -30.289  -7.025  0.00  0.00    +0.019 A 
ATOM     38  C   UNL     1      26.116 -30.458  -7.122  0.00  0.00    +0.120 A 
ATOM     39  N   UNL     1      26.683 -30.902  -8.313  0.00  0.00    -0.263 NA
ATOM     40  C   UNL     1      25.916 -31.199  -9.449  0.00  0.00    +0.111 A 
ENDBRANCH   4   3
ENDBRANCH  10   9
BRANCH  12  13
ATOM     13  N   UNL     1      22.672 -29.563   1.547  0.00  0.00    -0.281 N 
ATOM     14  C   UNL     1      22.771 -28.198   1.764  0.00  0.00    +0.248 C 
ATOM     30  O   UNL     1      22.419 -27.344   0.965  0.00  0.00    -0.270 OA
ATOM     31  H   UNL     1      23.176 -30.159   2.203  0.00  0.00    +0.155 HD
BRANCH  14  15
ATOM     15  C   UNL     1      23.361 -27.712   3.049  0.00  0.00    +0.037 A 
ATOM     16  C   UNL     1      23.670 -26.295   3.256  0.00  0.00    +0.013 A 
ATOM     17  C   UNL     1      24.254 -25.856   4.498  0.00  0.00    +0.005 A 
ATOM     18  C   UNL     1      24.532 -26.836   5.545  0.00  0.00    -0.033 A 
ATOM     28  C   UNL     1      24.211 -28.235   5.315  0.00  0.00    +0.005 A 
ATOM     29  C   UNL     1      23.639 -28.670   4.098  0.00  0.00    +0.013 A 
BRANCH  18  19
ATOM     19  C   UNL     1      25.173 -26.461   6.894  0.00  0.00    +0.119 C 
BRANCH  19  20
ATOM     20  N   UNL     1      26.252 -27.355   7.411  0.00  0.00    -0.302 NA
ATOM     21  C   UNL     1      26.419 -27.235   8.928  0.00  0.00    +0.066 C 
ATOM     22  C   UNL     1      27.536 -28.194   9.455  0.00  0.00    -0.064 C 
ATOM     23  N   UNL     1      28.851 -27.882   8.739  0.00  0.00    +0.379 N 
ATOM     24  C   UNL     1      29.917 -28.742   9.273  0.00  0.00    -0.096 C 
ATOM     25  H   UNL     1      29.121 -26.825   8.971  0.00  0.00    -0.082 HD
ATOM     26  C   UNL     1      28.693 -27.996   7.229  0.00  0.00    -0.064 C 
ATOM     27  C   UNL     1      27.561 -27.061   6.720  0.00  0.00    +0.066 C 
ENDBRANCH  19  20
ENDBRANCH  18  19
ENDBRANCH  14  15
ENDBRANCH  12  13
TORSDOF 6
ENDMDL
MODEL 2
REMARK VINA RESULT:      -8.4      7.146     12.581
REMARK  Name = C:\Users\Docking\Desktop\test protocol\1iep_ligandH.pdb
REMARK  8 active torsions:
REMARK  status: ('A' for Active; 'I' for Inactive)
REMARK    1  A    between atoms: _5  and  _11
REMARK    2  A    between atoms: _19  and  _21
REMARK    3  A    between atoms: _22  and  _66
REMARK    4  A    between atoms: _27  and  _30
REMARK    5  A    between atoms: _32  and  _33
REMARK    6  A    between atoms: _38  and  _43
REMARK    7  A    between atoms: _43  and  _46
REMARK    8  A    between atoms: _53  and  _55
REMARK                            x       y       z     vdW  Elec       q    Type
REMARK                         _______ _______ _______ _____ _____    ______ ____
ROOT
ATOM     10  C   UNL     1      20.535 -29.728  -2.596  0.00  0.00    +0.038 A 
ATOM     11  C   UNL     1      19.408 -29.064  -3.145  0.00  0.00    +0.047 A 
ATOM     12  C   UNL     1      18.055 -29.509  -2.851  0.00  0.00    +0.035 A 
ATOM     32  C   UNL     1      17.885 -30.634  -1.991  0.00  0.00    +0.024 A 
ATOM     33  C   UNL     1      19.019 -31.321  -1.426  0.00  0.00    +0.007 A 
ATOM     34  C   UNL     1      20.357 -30.888  -1.714  0.00  0.00    -0.029 A 
ATOM     35  C   UNL     1      21.535 -31.667  -1.085  0.00  0.00    +0.045 C 
ENDROOT
BRANCH  10   9
ATOM      4  C   UNL     1      24.549 -29.822  -5.225  0.00  0.00    +0.077 A 
ATOM      5  C   UNL     1      24.074 -30.917  -6.020  0.00  0.00    +0.048 A 
ATOM      6  C   UNL     1      22.794 -31.433  -5.715  0.00  0.00    +0.116 A 
ATOM      7  N   UNL     1      22.053 -30.885  -4.690  0.00  0.00    -0.223 NA
ATOM      8  C   UNL     1      22.542 -29.830  -3.942  0.00  0.00    +0.220 A 
ATOM      9  N   UNL     1      21.811 -29.258  -2.912  0.00  0.00    -0.283 N 
ATOM     36  H   UNL     1      22.210 -28.486  -2.379  0.00  0.00    +0.155 HD
ATOM     37  N   UNL     1      23.762 -29.321  -4.212  0.00  0.00    -0.214 NA
BRANCH   4   3
ATOM      1  C   UNL     1      28.396 -29.221  -5.597  0.00  0.00    +0.020 A 
ATOM      2  C   UNL     1      27.138 -29.901  -5.395  0.00  0.00    +0.013 A 
ATOM      3  C   UNL     1      25.880 -29.166  -5.427  0.00  0.00    +0.019 A 
ATOM     38  C   UNL     1      25.930 -27.732  -5.668  0.00  0.00    +0.120 A 
ATOM     39  N   UNL     1      27.157 -27.103  -5.858  0.00  0.00    -0.263 NA
ATOM     40  C   UNL     1      28.374 -27.800  -5.827  0.00  0.00    +0.111 A 
ENDBRANCH   4   3
ENDBRANCH  10   9
BRANCH  12  13
ATOM     13  N   UNL     1      16.873 -28.879  -3.385  0.00  0.00    -0.281 N 
ATOM     14  C   UNL     1      15.914 -28.149  -2.703  0.00  0.00    +0.248 C 
ATOM     30  O   UNL     1      15.815 -28.107  -1.485  0.00  0.00    -0.270 OA
ATOM     31  H   UNL     1      16.726 -28.985  -4.389  0.00  0.00    +0.155 HD
BRANCH  14  15
ATOM     15  C   UNL     1      14.912 -27.363  -3.485  0.00  0.00    +0.037 A 
ATOM     16  C   UNL     1      14.099 -26.323  -2.850  0.00  0.00    +0.013 A 
ATOM     17  C   UNL     1      13.127 -25.592  -3.625  0.00  0.00    +0.005 A 
ATOM     18  C   UNL     1      12.965 -25.898  -5.044  0.00  0.00    -0.033 A 
ATOM     28  C   UNL     1      13.789 -26.931  -5.649  0.00  0.00    +0.005 A 
ATOM     29  C   UNL     1      14.742 -27.651  -4.893  0.00  0.00    +0.013 A 
BRANCH  18  19
ATOM     19  C   UNL     1      11.938 -25.182  -5.942  0.00  0.00    +0.119 C 
BRANCH  19  20
ATOM     20  N   UNL     1      12.079 -25.361  -7.418  0.00  0.00    -0.302 NA
ATOM     21  C   UNL     1      13.004 -24.310  -8.038  0.00  0.00    +0.066 C 
ATOM     22  C   UNL     1      13.158 -24.525  -9.579  0.00  0.00    -0.064 C 
ATOM     23  N   UNL     1      11.778 -24.487 -10.236  0.00  0.00    +0.379 N 
ATOM     24  C   UNL     1      11.924 -24.631 -11.692  0.00  0.00    -0.096 C 
ATOM     25  H   UNL     1      11.337 -23.483 -10.038  0.00  0.00    -0.082 HD
ATOM     26  C   UNL     1      10.850 -25.527  -9.624  0.00  0.00    -0.064 C 
ATOM     27  C   UNL     1      10.728 -25.322  -8.088  0.00  0.00    +0.066 C 
ENDBRANCH  19  20
ENDBRANCH  18  19
ENDBRANCH  14  15
ENDBRANCH  12  13
TORSDOF 6
ENDMDL
MODEL 3
REMARK VINA RESULT:      -8.1      7.474     12.486
REMARK  Name = C:\Users\Docking\Desktop\test protocol\1iep_ligandH.pdb
REMARK  8 active torsions:
REMARK  status: ('A' for Active; 'I' for Inactive)
REMARK    1  A    between atoms: _5  and  _11
REMARK    2  A    between atoms: _19  and  _21
REMARK    3  A    between atoms: _22  and  _66
REMARK    4  A    between atoms: _27  and  _30
REMARK    5  A    between atoms: _32  and  _33
REMARK    6  A    between atoms: _38  and  _43
REMARK    7  A    between atoms: _43  and  _46
REMARK    8  A    between atoms: _53  and  _55
REMARK                            x       y       z     vdW  Elec       q    Type
REMARK                         _______ _______ _______ _____ _____    ______ ____
ROOT
ATOM     10  C   UNL     1      20.651 -29.816  -2.342  0.00  0.00    +0.038 A 
ATOM     11  C   UNL     1      19.543 -29.200  -2.978  0.00  0.00    +0.047 A 
ATOM     12  C   UNL     1      18.180 -29.607  -2.677  0.00  0.00    +0.035 A 
ATOM     32  C   UNL     1      17.980 -30.643  -1.719  0.00  0.00    +0.024 A 
ATOM     33  C   UNL     1      19.094 -31.282  -1.064  0.00  0.00    +0.007 A 
ATOM     34  C   UNL     1      20.442 -30.886  -1.359  0.00  0.00    -0.029 A 
ATOM     35  C   UNL     1      21.598 -31.610  -0.630  0.00  0.00    +0.045 C 
ENDROOT
BRANCH  10   9
ATOM      4  C   UNL     1      24.587 -29.946  -5.086  0.00  0.00    +0.077 A 
ATOM      5  C   UNL     1      24.042 -30.976  -5.922  0.00  0.00    +0.048 A 
ATOM      6  C   UNL     1      22.749 -31.450  -5.608  0.00  0.00    +0.116 A 
ATOM      7  N   UNL     1      22.061 -30.926  -4.535  0.00  0.00    -0.223 NA
ATOM      8  C   UNL     1      22.616 -29.934  -3.748  0.00  0.00    +0.220 A 
ATOM      9  N   UNL     1      21.939 -29.386  -2.669  0.00  0.00    -0.283 N 
ATOM     36  H   UNL     1      22.386 -28.661  -2.108  0.00  0.00    +0.155 HD
ATOM     37  N   UNL     1      23.850 -29.465  -4.026  0.00  0.00    -0.214 NA
BRANCH   4   3
ATOM      1  C   UNL     1      28.440 -29.499  -5.592  0.00  0.00    +0.020 A 
ATOM      2  C   UNL     1      27.157 -30.134  -5.392  0.00  0.00    +0.013 A 
ATOM      3  C   UNL     1      25.940 -29.339  -5.291  0.00  0.00    +0.019 A 
ATOM     38  C   UNL     1      26.055 -27.892  -5.398  0.00  0.00    +0.120 A 
ATOM     39  N   UNL     1      27.304 -27.308  -5.589  0.00  0.00    -0.263 NA
ATOM     40  C   UNL     1      28.482 -28.063  -5.685  0.00  0.00    +0.111 A 
ENDBRANCH   4   3
ENDBRANCH  10   9
BRANCH  12  13
ATOM     13  N   UNL     1      17.017 -29.023  -3.297  0.00  0.00    -0.281 N 
ATOM     14  C   UNL     1      16.144 -28.090  -2.762  0.00  0.00    +0.248 C 
ATOM     30  O   UNL     1      16.109 -27.773  -1.582  0.00  0.00    -0.270 OA
ATOM     31  H   UNL     1      16.812 -29.335  -4.247  0.00  0.00    +0.155 HD
BRANCH  14  15
ATOM     15  C   UNL     1      15.157 -27.422  -3.665  0.00  0.00    +0.037 A 
ATOM     16  C   UNL     1      13.908 -26.862  -3.144  0.00  0.00    +0.013 A 
ATOM     17  C   UNL     1      12.966 -26.238  -4.039  0.00  0.00    +0.005 A 
ATOM     18  C   UNL     1      13.271 -26.172  -5.467  0.00  0.00    -0.033 A 
ATOM     28  C   UNL     1      14.520 -26.732  -5.956  0.00  0.00    +0.005 A 
ATOM     29  C   UNL     1      15.445 -27.344  -5.081  0.00  0.00    +0.013 A 
BRANCH  18  19
ATOM     19  C   UNL     1      12.314 -25.544  -6.498  0.00  0.00    +0.119 C 
BRANCH  19  20
ATOM     20  N   UNL     1      11.039 -24.963  -5.982  0.00  0.00    -0.302 NA
ATOM     21  C   UNL     1       9.851 -25.284  -6.893  0.00  0.00    +0.066 C 
ATOM     22  C   UNL     1       8.522 -24.687  -6.327  0.00  0.00    -0.064 C 
ATOM     23  N   UNL     1       8.678 -23.175  -6.154  0.00  0.00    +0.379 N 
ATOM     24  C   UNL     1       7.410 -22.603  -5.676  0.00  0.00    -0.096 C 
ATOM     25  H   UNL     1       8.889 -22.740  -7.158  0.00  0.00    -0.082 HD
ATOM     26  C   UNL     1       9.858 -22.847  -5.251  0.00  0.00    -0.064 C 
ATOM     27  C   UNL     1      11.169 -23.469  -5.807  0.00  0.00    +0.066 C 
ENDBRANCH  19  20
ENDBRANCH  18  19
ENDBRANCH  14  15
ENDBRANCH  12  13
TORSDOF 6
ENDMDL
MODEL 4
REMARK VINA RESULT:      -7.9     29.673     31.960
REMARK  Name = C:\Users\Docking\Desktop\test protocol\1iep_ligandH.pdb
REMARK  8 active torsions:
REMARK  status: ('A' for Active; 'I' for Inactive)
REMARK    1  A    between atoms: _5  and  _11
REMARK    2  A    between atoms: _19  and  _21
REMARK    3  A    between atoms: _22  and  _66
REMARK    4  A    between atoms: _27  and  _30
REMARK    5  A    between atoms: _32  and  _33
REMARK    6  A    between atoms: _38  and  _43
REMARK    7  A    between atoms: _43  and  _46
REMARK    8  A    between atoms: _53  and  _55
REMARK                            x       y       z     vdW  Elec       q    Type
REMARK                         _______ _______ _______ _____ _____    ______ ____
ROOT
ATOM     10  C   UNL     1      34.307   3.687  -3.008  0.00  0.00    +0.038 A 
ATOM     11  C   UNL     1      34.219   2.324  -2.626  0.00  0.00    +0.047 A 
ATOM     12  C   UNL     1      33.038   1.806  -1.953  0.00  0.00    +0.035 A 
ATOM     32  C   UNL     1      31.964   2.704  -1.687  0.00  0.00    +0.024 A 
ATOM     33  C   UNL     1      32.037   4.093  -2.068  0.00  0.00    +0.007 A 
ATOM     34  C   UNL     1      33.200   4.610  -2.729  0.00  0.00    -0.029 A 
ATOM     35  C   UNL     1      33.227   6.109  -3.108  0.00  0.00    +0.045 C 
ENDROOT
BRANCH  10   9
ATOM      4  C   UNL     1      37.357   3.682  -6.714  0.00  0.00    +0.077 A 
ATOM      5  C   UNL     1      36.593   2.691  -7.417  0.00  0.00    +0.048 A 
ATOM      6  C   UNL     1      35.426   2.204  -6.787  0.00  0.00    +0.116 A 
ATOM      7  N   UNL     1      35.060   2.679  -5.547  0.00  0.00    -0.223 NA
ATOM      8  C   UNL     1      35.819   3.633  -4.895  0.00  0.00    +0.220 A 
ATOM      9  N   UNL     1      35.465   4.131  -3.651  0.00  0.00    -0.283 N 
ATOM     36  H   UNL     1      36.056   4.829  -3.200  0.00  0.00    +0.155 HD
ATOM     37  N   UNL     1      36.939   4.114  -5.475  0.00  0.00    -0.214 NA
BRANCH   4   3
ATOM      1  C   UNL     1      40.804   5.512  -6.968  0.00  0.00    +0.020 A 
ATOM      2  C   UNL     1      39.608   4.934  -6.399  0.00  0.00    +0.013 A 
ATOM      3  C   UNL     1      38.612   4.296  -7.251  0.00  0.00    +0.019 A 
ATOM     38  C   UNL     1      38.859   4.259  -8.684  0.00  0.00    +0.120 A 
ATOM     39  N   UNL     1      40.019   4.825  -9.203  0.00  0.00    -0.263 NA
ATOM     40  C   UNL     1      40.984   5.443  -8.394  0.00  0.00    +0.111 A 
ENDBRANCH   4   3
ENDBRANCH  10   9
BRANCH  12  13
ATOM     13  N   UNL     1      32.895   0.433  -1.534  0.00  0.00    -0.281 N 
ATOM     14  C   UNL     1      32.374  -0.044  -0.343  0.00  0.00    +0.248 C 
ATOM     30  O   UNL     1      32.146   0.649   0.638  0.00  0.00    -0.270 OA
ATOM     31  H   UNL     1      33.218  -0.272  -2.197  0.00  0.00    +0.155 HD
BRANCH  14  15
ATOM     15  C   UNL     1      32.076  -1.503  -0.218  0.00  0.00    +0.037 A 
ATOM     16  C   UNL     1      32.341  -2.430  -1.321  0.00  0.00    +0.013 A 
ATOM     17  C   UNL     1      32.028  -3.830  -1.181  0.00  0.00    +0.005 A 
ATOM     18  C   UNL     1      31.448  -4.312   0.070  0.00  0.00    -0.033 A 
ATOM     28  C   UNL     1      31.200  -3.371   1.151  0.00  0.00    +0.005 A 
ATOM     29  C   UNL     1      31.504  -1.998   1.016  0.00  0.00    +0.013 A 
BRANCH  18  19
ATOM     19  C   UNL     1      31.063  -5.785   0.301  0.00  0.00    +0.119 C 
BRANCH  19  20
ATOM     20  N   UNL     1      31.330  -6.358   1.654  0.00  0.00    -0.302 NA
ATOM     21  C   UNL     1      32.093  -7.684   1.576  0.00  0.00    +0.066 C 
ATOM     22  C   UNL     1      32.384  -8.258   3.001  0.00  0.00    -0.064 C 
ATOM     23  N   UNL     1      31.065  -8.435   3.755  0.00  0.00    +0.379 N 
ATOM     24  C   UNL     1      31.331  -9.029   5.074  0.00  0.00    -0.096 C 
ATOM     25  H   UNL     1      30.441  -9.156   3.178  0.00  0.00    -0.082 HD
ATOM     26  C   UNL     1      30.299  -7.122   3.835  0.00  0.00    -0.064 C 
ATOM     27  C   UNL     1      30.041  -6.546   2.415  0.00  0.00    +0.066 C 
ENDBRANCH  19  20
ENDBRANCH  18  19
ENDBRANCH  14  15
ENDBRANCH  12  13
TORSDOF 6
ENDMDL
MODEL 5
REMARK VINA RESULT:      -7.8     28.299     30.690
REMARK  Name = C:\Users\Docking\Desktop\test protocol\1iep_ligandH.pdb
REMARK  8 active torsions:
REMARK  status: ('A' for Active; 'I' for Inactive)
REMARK    1  A    between atoms: _5  and  _11
REMARK    2  A    between atoms: _19  and  _21
REMARK    3  A    between atoms: _22  and  _66
REMARK    4  A    between atoms: _27  and  _30
REMARK    5  A    between atoms: _32  and  _33
REMARK    6  A    between atoms: _38  and  _43
REMARK    7  A    between atoms: _43  and  _46
REMARK    8  A    between atoms: _53  and  _55
REMARK                            x       y       z     vdW  Elec       q    Type
REMARK                         _______ _______ _______ _____ _____    ______ ____
ROOT
ATOM     10  C   UNL     1      33.220   2.706  -2.082  0.00  0.00    +0.038 A 
ATOM     11  C   UNL     1      33.141   1.386  -1.570  0.00  0.00    +0.047 A 
ATOM     12  C   UNL     1      31.977   0.938  -0.821  0.00  0.00    +0.035 A 
ATOM     32  C   UNL     1      30.910   1.860  -0.616  0.00  0.00    +0.024 A 
ATOM     33  C   UNL     1      30.974   3.206  -1.129  0.00  0.00    +0.007 A 
ATOM     34  C   UNL     1      32.121   3.654  -1.865  0.00  0.00    -0.029 A 
ATOM     35  C   UNL     1      32.139   5.110  -2.387  0.00  0.00    +0.045 C 
ENDROOT
BRANCH  10   9
ATOM      4  C   UNL     1      35.819   2.914  -6.112  0.00  0.00    +0.077 A 
ATOM      5  C   UNL     1      34.831   2.187  -6.857  0.00  0.00    +0.048 A 
ATOM      6  C   UNL     1      33.672   1.771  -6.164  0.00  0.00    +0.116 A 
ATOM      7  N   UNL     1      33.522   2.066  -4.826  0.00  0.00    -0.223 NA
ATOM      8  C   UNL     1      34.495   2.768  -4.137  0.00  0.00    +0.220 A 
ATOM      9  N   UNL     1      34.361   3.082  -2.794  0.00  0.00    -0.283 N 
ATOM     36  H   UNL     1      35.104   3.595  -2.319  0.00  0.00    +0.155 HD
ATOM     37  N   UNL     1      35.611   3.175  -4.776  0.00  0.00    -0.214 NA
BRANCH   4   3
ATOM      1  C   UNL     1      39.353   4.537  -6.532  0.00  0.00    +0.020 A 
ATOM      2  C   UNL     1      38.138   4.063  -5.911  0.00  0.00    +0.013 A 
ATOM      3  C   UNL     1      37.096   3.423  -6.705  0.00  0.00    +0.019 A 
ATOM     38  C   UNL     1      37.316   3.278  -8.136  0.00  0.00    +0.120 A 
ATOM     39  N   UNL     1      38.496   3.745  -8.706  0.00  0.00    -0.263 NA
ATOM     40  C   UNL     1      39.505   4.364  -7.953  0.00  0.00    +0.111 A 
ENDBRANCH   4   3
ENDBRANCH  10   9
BRANCH  12  13
ATOM     13  N   UNL     1      31.843  -0.388  -0.270  0.00  0.00    -0.281 N 
ATOM     14  C   UNL     1      31.763  -1.591  -0.953  0.00  0.00    +0.248 C 
ATOM     30  O   UNL     1      31.579  -1.690  -2.157  0.00  0.00    -0.270 OA
ATOM     31  H   UNL     1      31.803  -0.447   0.748  0.00  0.00    +0.155 HD
BRANCH  14  15
ATOM     15  C   UNL     1      31.893  -2.867  -0.186  0.00  0.00    +0.037 A 
ATOM     16  C   UNL     1      31.574  -2.931   1.243  0.00  0.00    +0.013 A 
ATOM     17  C   UNL     1      31.724  -4.170   1.962  0.00  0.00    +0.005 A 
ATOM     18  C   UNL     1      32.194  -5.358   1.253  0.00  0.00    -0.033 A 
ATOM     28  C   UNL     1      32.498  -5.268  -0.165  0.00  0.00    +0.005 A 
ATOM     29  C   UNL     1      32.353  -4.054  -0.874  0.00  0.00    +0.013 A 
BRANCH  18  19
ATOM     19  C   UNL     1      32.404  -6.718   1.946  0.00  0.00    +0.119 C 
BRANCH  19  20
ATOM     20  N   UNL     1      31.191  -7.410   2.474  0.00  0.00    -0.302 NA
ATOM     21  C   UNL     1      31.540  -8.433   3.559  0.00  0.00    +0.066 C 
ATOM     22  C   UNL     1      30.257  -9.131   4.116  0.00  0.00    -0.064 C 
ATOM     23  N   UNL     1      29.502  -9.799   2.966  0.00  0.00    +0.379 N 
ATOM     24  C   UNL     1      28.327 -10.506   3.494  0.00  0.00    -0.096 C 
ATOM     25  H   UNL     1      30.180 -10.560   2.514  0.00  0.00    -0.082 HD
ATOM     26  C   UNL     1      29.154  -8.790   1.881  0.00  0.00    -0.064 C 
ATOM     27  C   UNL     1      30.432  -8.080   1.355  0.00  0.00    +0.066 C 
ENDBRANCH  19  20
ENDBRANCH  18  19
ENDBRANCH  14  15
ENDBRANCH  12  13
TORSDOF 6
ENDMDL
