MODEL 1
REMARK VINA RESULT:      -8.0      0.000      0.000
REMARK  Name = C:\Users\Docking\Desktop\test protocol\1iep_ligandH.pdb
REMARK  8 active torsions:
REMARK  status: ('A' for Active; 'I' for Inactive)
REMARK    1  A    between atoms: _5  and  _11
REMARK    2  A    between atoms: _19  and  _21
REMARK    3  A    between atoms: _22  and  _66
REMARK    4  A    between atoms: _27  and  _30
REMARK    5  A    between atoms: _32  and  _33
REMARK    6  A    between atoms: _38  and  _43
REMARK    7  A    between atoms: _43  and  _46
REMARK    8  A    between atoms: _53  and  _55
REMARK                            x       y       z     vdW  Elec       q    Type
REMARK                         _______ _______ _______ _____ _____    ______ ____
ROOT
ATOM     10  C   UNL     1      11.573  10.412  -0.975  0.00  0.00    +0.038 A 
ATOM     11  C   UNL     1      11.244  11.476  -1.853  0.00  0.00    +0.047 A 
ATOM     12  C   UNL     1      11.651  11.451  -3.250  0.00  0.00    +0.035 A 
ATOM     32  C   UNL     1      12.390  10.326  -3.719  0.00  0.00    +0.024 A 
ATOM     33  C   UNL     1      12.733   9.236  -2.839  0.00  0.00    +0.007 A 
ATOM     34  C   UNL     1      12.337   9.256  -1.460  0.00  0.00    -0.029 A 
ATOM     35  C   UNL     1      12.738   8.063  -0.562  0.00  0.00    +0.045 C 
ENDROOT
BRANCH  10   9
ATOM      4  C   UNL     1      12.138  11.879   3.560  0.00  0.00    +0.077 A 
ATOM      5  C   UNL     1      13.381  12.529   3.257  0.00  0.00    +0.048 A 
ATOM      6  C   UNL     1      13.843  12.455   1.924  0.00  0.00    +0.116 A 
ATOM      7  N   UNL     1      13.109  11.781   0.973  0.00  0.00    -0.223 NA
ATOM      8  C   UNL     1      11.915  11.164   1.299  0.00  0.00    +0.220 A 
ATOM      9  N   UNL     1      11.157  10.487   0.356  0.00  0.00    -0.283 N 
ATOM     36  H   UNL     1      10.285  10.039   0.638  0.00  0.00    +0.155 HD
ATOM     37  N   UNL     1      11.453  11.218   2.565  0.00  0.00    -0.214 NA
BRANCH   4   3
ATOM      1  C   UNL     1       9.663  11.286   6.530  0.00  0.00    +0.020 A 
ATOM      2  C   UNL     1      10.218  11.268   5.197  0.00  0.00    +0.013 A 
ATOM      3  C   UNL     1      11.516  11.871   4.922  0.00  0.00    +0.019 A 
ATOM     38  C   UNL     1      12.233  12.489   6.027  0.00  0.00    +0.120 A 
ATOM     39  N   UNL     1      11.672  12.493   7.301  0.00  0.00    -0.263 NA
ATOM     40  C   UNL     1      10.423  11.917   7.577  0.00  0.00    +0.111 A 
ENDBRANCH   4   3
ENDBRANCH  10   9
BRANCH  12  13
ATOM     13  N   UNL     1      11.353  12.506  -4.187  0.00  0.00    -0.281 N 
ATOM     14  C   UNL     1      12.226  13.437  -4.726  0.00  0.00    +0.248 C 
ATOM     30  O   UNL     1      13.360  13.639  -4.319  0.00  0.00    -0.270 OA
ATOM     31  H   UNL     1      10.381  12.575  -4.488  0.00  0.00    +0.155 HD
BRANCH  14  15
ATOM     15  C   UNL     1      11.767  14.275  -5.875  0.00  0.00    +0.037 A 
ATOM     16  C   UNL     1      10.525  13.971  -6.590  0.00  0.00    +0.013 A 
ATOM     17  C   UNL     1      10.114  14.785  -7.706  0.00  0.00    +0.005 A 
ATOM     18  C   UNL     1      10.946  15.915  -8.113  0.00  0.00    -0.033 A 
ATOM     28  C   UNL     1      12.171  16.198  -7.383  0.00  0.00    +0.005 A 
ATOM     29  C   UNL     1      12.577  15.401  -6.290  0.00  0.00    +0.013 A 
BRANCH  18  19
ATOM     19  C   UNL     1      10.596  16.825  -9.305  0.00  0.00    +0.119 C 
BRANCH  19  20
ATOM     20  N   UNL     1      11.715  17.589  -9.934  0.00  0.00    -0.302 NA
ATOM     21  C   UNL     1      11.552  19.101  -9.751  0.00  0.00    +0.066 C 
ATOM     22  C   UNL     1      12.742  19.883 -10.395  0.00  0.00    -0.064 C 
ATOM     23  N   UNL     1      12.841  19.525 -11.879  0.00  0.00    +0.379 N 
ATOM     24  C   UNL     1      13.923  20.303 -12.500  0.00  0.00    -0.096 C 
ATOM     25  H   UNL     1      11.885  19.827 -12.364  0.00  0.00    -0.082 HD
ATOM     26  C   UNL     1      13.001  18.023 -12.070  0.00  0.00    -0.064 C 
ATOM     27  C   UNL     1      11.828  17.253 -11.401  0.00  0.00    +0.066 C 
ENDBRANCH  19  20
ENDBRANCH  18  19
ENDBRANCH  14  15
ENDBRANCH  12  13
TORSDOF 6
ENDMDL
MODEL 2
REMARK VINA RESULT:      -7.7     24.566     30.233
REMARK  Name = C:\Users\Docking\Desktop\test protocol\1iep_ligandH.pdb
REMARK  8 active torsions:
REMARK  status: ('A' for Active; 'I' for Inactive)
REMARK    1  A    between atoms: _5  and  _11
REMARK    2  A    between atoms: _19  and  _21
REMARK    3  A    between atoms: _22  and  _66
REMARK    4  A    between atoms: _27  and  _30
REMARK    5  A    between atoms: _32  and  _33
REMARK    6  A    between atoms: _38  and  _43
REMARK    7  A    between atoms: _43  and  _46
REMARK    8  A    between atoms: _53  and  _55
REMARK                            x       y       z     vdW  Elec       q    Type
REMARK                         _______ _______ _______ _____ _____    ______ ____
ROOT
ATOM     10  C   UNL     1       6.619 -10.146   4.045  0.00  0.00    +0.038 A 
ATOM     11  C   UNL     1       6.653 -10.595   5.390  0.00  0.00    +0.047 A 
ATOM     12  C   UNL     1       7.443  -9.901   6.395  0.00  0.00    +0.035 A 
ATOM     32  C   UNL     1       8.184  -8.750   5.997  0.00  0.00    +0.024 A 
ATOM     33  C   UNL     1       8.161  -8.280   4.634  0.00  0.00    +0.007 A 
ATOM     34  C   UNL     1       7.386  -8.962   3.637  0.00  0.00    -0.029 A 
ATOM     35  C   UNL     1       7.404  -8.418   2.190  0.00  0.00    +0.045 C 
ENDROOT
BRANCH  10   9
ATOM      4  C   UNL     1       5.729 -14.008   1.338  0.00  0.00    +0.077 A 
ATOM      5  C   UNL     1       6.923 -14.668   1.783  0.00  0.00    +0.048 A 
ATOM      6  C   UNL     1       7.743 -13.976   2.702  0.00  0.00    +0.116 A 
ATOM      7  N   UNL     1       7.385 -12.719   3.139  0.00  0.00    -0.223 NA
ATOM      8  C   UNL     1       6.227 -12.110   2.689  0.00  0.00    +0.220 A 
ATOM      9  N   UNL     1       5.844 -10.850   3.121  0.00  0.00    -0.283 N 
ATOM     36  H   UNL     1       4.987 -10.433   2.760  0.00  0.00    +0.155 HD
ATOM     37  N   UNL     1       5.428 -12.750   1.810  0.00  0.00    -0.214 NA
BRANCH   4   3
ATOM      1  C   UNL     1       3.729 -16.575  -0.832  0.00  0.00    +0.020 A 
ATOM      2  C   UNL     1       4.684 -16.044   0.113  0.00  0.00    +0.013 A 
ATOM      3  C   UNL     1       4.759 -14.611   0.370  0.00  0.00    +0.019 A 
ATOM     38  C   UNL     1       3.846 -13.737  -0.350  0.00  0.00    +0.120 A 
ATOM     39  N   UNL     1       2.937 -14.277  -1.255  0.00  0.00    -0.263 NA
ATOM     40  C   UNL     1       2.857 -15.654  -1.512  0.00  0.00    +0.111 A 
ENDBRANCH   4   3
ENDBRANCH  10   9
BRANCH  12  13
ATOM     13  N   UNL     1       7.523 -10.316   7.774  0.00  0.00    -0.281 N 
ATOM     14  C   UNL     1       8.194 -11.409   8.297  0.00  0.00    +0.248 C 
ATOM     30  O   UNL     1       8.654 -12.322   7.628  0.00  0.00    -0.270 OA
ATOM     31  H   UNL     1       7.024  -9.733   8.446  0.00  0.00    +0.155 HD
BRANCH  14  15
ATOM     15  C   UNL     1       8.367 -11.509   9.778  0.00  0.00    +0.037 A 
ATOM     16  C   UNL     1       7.791 -10.508  10.680  0.00  0.00    +0.013 A 
ATOM     17  C   UNL     1       7.987 -10.619  12.104  0.00  0.00    +0.005 A 
ATOM     18  C   UNL     1       8.762 -11.738  12.635  0.00  0.00    -0.033 A 
ATOM     28  C   UNL     1       9.317 -12.720  11.718  0.00  0.00    +0.005 A 
ATOM     29  C   UNL     1       9.128 -12.613  10.322  0.00  0.00    +0.013 A 
BRANCH  18  19
ATOM     19  C   UNL     1       9.039 -11.924  14.138  0.00  0.00    +0.119 C 
BRANCH  19  20
ATOM     20  N   UNL     1       9.156 -10.690  14.970  0.00  0.00    -0.302 NA
ATOM     21  C   UNL     1      10.596 -10.175  15.036  0.00  0.00    +0.066 C 
ATOM     22  C   UNL     1      10.696  -8.870  15.891  0.00  0.00    -0.064 C 
ATOM     23  N   UNL     1      10.154  -9.142  17.295  0.00  0.00    +0.379 N 
ATOM     24  C   UNL     1      10.300  -7.933  18.120  0.00  0.00    -0.096 C 
ATOM     25  H   UNL     1      10.783  -9.941  17.752  0.00  0.00    -0.082 HD
ATOM     26  C   UNL     1       8.723  -9.657  17.239  0.00  0.00    -0.064 C 
ATOM     27  C   UNL     1       8.629 -10.937  16.363  0.00  0.00    +0.066 C 
ENDBRANCH  19  20
ENDBRANCH  18  19
ENDBRANCH  14  15
ENDBRANCH  12  13
TORSDOF 6
ENDMDL
MODEL 3
REMARK VINA RESULT:      -7.5     26.110     31.277
REMARK  Name = C:\Users\Docking\Desktop\test protocol\1iep_ligandH.pdb
REMARK  8 active torsions:
REMARK  status: ('A' for Active; 'I' for Inactive)
REMARK    1  A    between atoms: _5  and  _11
REMARK    2  A    between atoms: _19  and  _21
REMARK    3  A    between atoms: _22  and  _66
REMARK    4  A    between atoms: _27  and  _30
REMARK    5  A    between atoms: _32  and  _33
REMARK    6  A    between atoms: _38  and  _43
REMARK    7  A    between atoms: _43  and  _46
REMARK    8  A    between atoms: _53  and  _55
REMARK                            x       y       z     vdW  Elec       q    Type
REMARK                         _______ _______ _______ _____ _____    ______ ____
ROOT
ATOM     10  C   UNL     1       3.706 -18.576  -2.130  0.00  0.00    +0.038 A 
ATOM     11  C   UNL     1       3.692 -17.255  -1.612  0.00  0.00    +0.047 A 
ATOM     12  C   UNL     1       4.812 -16.737  -0.843  0.00  0.00    +0.035 A 
ATOM     32  C   UNL     1       5.932 -17.590  -0.622  0.00  0.00    +0.024 A 
ATOM     33  C   UNL     1       5.963 -18.935  -1.140  0.00  0.00    +0.007 A 
ATOM     34  C   UNL     1       4.860 -19.453  -1.898  0.00  0.00    -0.029 A 
ATOM     35  C   UNL     1       4.944 -20.905  -2.424  0.00  0.00    +0.045 C 
ENDROOT
BRANCH  10   9
ATOM      4  C   UNL     1       1.298 -19.123  -6.246  0.00  0.00    +0.077 A 
ATOM      5  C   UNL     1       2.310 -18.438  -6.998  0.00  0.00    +0.048 A 
ATOM      6  C   UNL     1       3.431 -17.954  -6.286  0.00  0.00    +0.116 A 
ATOM      7  N   UNL     1       3.523 -18.147  -4.925  0.00  0.00    -0.223 NA
ATOM      8  C   UNL     1       2.528 -18.810  -4.230  0.00  0.00    +0.220 A 
ATOM      9  N   UNL     1       2.603 -19.022  -2.862  0.00  0.00    -0.283 N 
ATOM     36  H   UNL     1       1.845 -19.509  -2.385  0.00  0.00    +0.155 HD
ATOM     37  N   UNL     1       1.447 -19.280  -4.886  0.00  0.00    -0.214 NA
BRANCH   4   3
ATOM      1  C   UNL     1      -2.379 -20.349  -6.772  0.00  0.00    +0.020 A 
ATOM      2  C   UNL     1      -1.208 -19.789  -6.137  0.00  0.00    +0.013 A 
ATOM      3  C   UNL     1       0.056 -19.695  -6.856  0.00  0.00    +0.019 A 
ATOM     38  C   UNL     1       0.103 -20.180  -8.227  0.00  0.00    +0.120 A 
ATOM     39  N   UNL     1      -1.040 -20.716  -8.812  0.00  0.00    -0.263 NA
ATOM     40  C   UNL     1      -2.262 -20.813  -8.129  0.00  0.00    +0.111 A 
ENDBRANCH   4   3
ENDBRANCH  10   9
BRANCH  12  13
ATOM     13  N   UNL     1       4.851 -15.408  -0.285  0.00  0.00    -0.281 N 
ATOM     14  C   UNL     1       5.446 -14.277  -0.820  0.00  0.00    +0.248 C 
ATOM     30  O   UNL     1       6.224 -14.285  -1.762  0.00  0.00    -0.270 OA
ATOM     31  H   UNL     1       4.382 -15.286   0.613  0.00  0.00    +0.155 HD
BRANCH  14  15
ATOM     15  C   UNL     1       5.145 -12.946  -0.210  0.00  0.00    +0.037 A 
ATOM     16  C   UNL     1       4.479 -11.891  -0.979  0.00  0.00    +0.013 A 
ATOM     17  C   UNL     1       4.216 -10.610  -0.372  0.00  0.00    +0.005 A 
ATOM     18  C   UNL     1       4.619 -10.378   1.013  0.00  0.00    -0.033 A 
ATOM     28  C   UNL     1       5.273 -11.443   1.754  0.00  0.00    +0.005 A 
ATOM     29  C   UNL     1       5.534 -12.700   1.162  0.00  0.00    +0.013 A 
BRANCH  18  19
ATOM     19  C   UNL     1       4.397  -9.035   1.735  0.00  0.00    +0.119 C 
BRANCH  19  20
ATOM     20  N   UNL     1       5.612  -8.284   2.170  0.00  0.00    -0.302 NA
ATOM     21  C   UNL     1       5.279  -7.202   3.201  0.00  0.00    +0.066 C 
ATOM     22  C   UNL     1       6.565  -6.441   3.662  0.00  0.00    -0.064 C 
ATOM     23  N   UNL     1       7.259  -5.833   2.443  0.00  0.00    +0.379 N 
ATOM     24  C   UNL     1       8.437  -5.068   2.880  0.00  0.00    -0.096 C 
ATOM     25  H   UNL     1       6.547  -5.117   1.970  0.00  0.00    -0.082 HD
ATOM     26  C   UNL     1       7.591  -6.902   1.412  0.00  0.00    -0.064 C 
ATOM     27  C   UNL     1       6.311  -7.671   0.982  0.00  0.00    +0.066 C 
ENDBRANCH  19  20
ENDBRANCH  18  19
ENDBRANCH  14  15
ENDBRANCH  12  13
TORSDOF 6
ENDMDL
MODEL 4
REMARK VINA RESULT:      -7.4      8.950     12.227
REMARK  Name = C:\Users\Docking\Desktop\test protocol\1iep_ligandH.pdb
REMARK  8 active torsions:
REMARK  status: ('A' for Active; 'I' for Inactive)
REMARK    1  A    between atoms: _5  and  _11
REMARK    2  A    between atoms: _19  and  _21
REMARK    3  A    between atoms: _22  and  _66
REMARK    4  A    between atoms: _27  and  _30
REMARK    5  A    between atoms: _32  and  _33
REMARK    6  A    between atoms: _38  and  _43
REMARK    7  A    between atoms: _43  and  _46
REMARK    8  A    between atoms: _53  and  _55
REMARK                            x       y       z     vdW  Elec       q    Type
REMARK                         _______ _______ _______ _____ _____    ______ ____
ROOT
ATOM     10  C   UNL     1      21.533  11.576  -4.956  0.00  0.00    +0.038 A 
ATOM     11  C   UNL     1      20.161  11.871  -5.162  0.00  0.00    +0.047 A 
ATOM     12  C   UNL     1      19.280  12.172  -4.045  0.00  0.00    +0.035 A 
ATOM     32  C   UNL     1      19.831  12.168  -2.730  0.00  0.00    +0.024 A 
ATOM     33  C   UNL     1      21.223  11.869  -2.502  0.00  0.00    +0.007 A 
ATOM     34  C   UNL     1      22.097  11.569  -3.601  0.00  0.00    -0.029 A 
ATOM     35  C   UNL     1      23.579  11.250  -3.297  0.00  0.00    +0.045 C 
ENDROOT
BRANCH  10   9
ATOM      4  C   UNL     1      23.499   8.517  -8.089  0.00  0.00    +0.077 A 
ATOM      5  C   UNL     1      22.903   7.382  -7.445  0.00  0.00    +0.048 A 
ATOM      6  C   UNL     1      22.103   7.628  -6.306  0.00  0.00    +0.116 A 
ATOM      7  N   UNL     1      21.920   8.917  -5.855  0.00  0.00    -0.223 NA
ATOM      8  C   UNL     1      22.511   9.989  -6.498  0.00  0.00    +0.220 A 
ATOM      9  N   UNL     1      22.334  11.294  -6.066  0.00  0.00    -0.283 N 
ATOM     36  H   UNL     1      22.793  12.057  -6.563  0.00  0.00    +0.155 HD
ATOM     37  N   UNL     1      23.280   9.780  -7.587  0.00  0.00    -0.214 NA
BRANCH   4   3
ATOM      1  C   UNL     1      26.255   9.220 -10.774  0.00  0.00    +0.020 A 
ATOM      2  C   UNL     1      25.445   9.359  -9.585  0.00  0.00    +0.013 A 
ATOM      3  C   UNL     1      24.367   8.419  -9.305  0.00  0.00    +0.019 A 
ATOM     38  C   UNL     1      24.134   7.341 -10.254  0.00  0.00    +0.120 A 
ATOM     39  N   UNL     1      24.929   7.234 -11.390  0.00  0.00    -0.263 NA
ATOM     40  C   UNL     1      25.968   8.133 -11.672  0.00  0.00    +0.111 A 
ENDBRANCH   4   3
ENDBRANCH  10   9
BRANCH  12  13
ATOM     13  N   UNL     1      17.877  12.471  -4.192  0.00  0.00    -0.281 N 
ATOM     14  C   UNL     1      17.240  13.684  -3.993  0.00  0.00    +0.248 C 
ATOM     30  O   UNL     1      17.750  14.652  -3.449  0.00  0.00    -0.270 OA
ATOM     31  H   UNL     1      17.282  11.693  -4.477  0.00  0.00    +0.155 HD
BRANCH  14  15
ATOM     15  C   UNL     1      15.826  13.840  -4.453  0.00  0.00    +0.037 A 
ATOM     16  C   UNL     1      15.012  12.678  -4.815  0.00  0.00    +0.013 A 
ATOM     17  C   UNL     1      13.656  12.858  -5.272  0.00  0.00    +0.005 A 
ATOM     18  C   UNL     1      13.106  14.208  -5.367  0.00  0.00    -0.033 A 
ATOM     28  C   UNL     1      13.934  15.343  -4.996  0.00  0.00    +0.005 A 
ATOM     29  C   UNL     1      15.263  15.171  -4.549  0.00  0.00    +0.013 A 
BRANCH  18  19
ATOM     19  C   UNL     1      11.677  14.495  -5.864  0.00  0.00    +0.119 C 
BRANCH  19  20
ATOM     20  N   UNL     1      11.282  13.915  -7.182  0.00  0.00    -0.302 NA
ATOM     21  C   UNL     1      11.949  14.642  -8.353  0.00  0.00    +0.066 C 
ATOM     22  C   UNL     1      11.542  14.007  -9.723  0.00  0.00    -0.064 C 
ATOM     23  N   UNL     1      10.019  14.038  -9.864  0.00  0.00    +0.379 N 
ATOM     24  C   UNL     1       9.637  13.495 -11.175  0.00  0.00    -0.096 C 
ATOM     25  H   UNL     1       9.698  15.105  -9.832  0.00  0.00    -0.082 HD
ATOM     26  C   UNL     1       9.348  13.319  -8.702  0.00  0.00    -0.064 C 
ATOM     27  C   UNL     1       9.782  13.939  -7.344  0.00  0.00    +0.066 C 
ENDBRANCH  19  20
ENDBRANCH  18  19
ENDBRANCH  14  15
ENDBRANCH  12  13
TORSDOF 6
ENDMDL
MODEL 5
REMARK VINA RESULT:      -7.4      7.685     12.906
REMARK  Name = C:\Users\Docking\Desktop\test protocol\1iep_ligandH.pdb
REMARK  8 active torsions:
REMARK  status: ('A' for Active; 'I' for Inactive)
REMARK    1  A    between atoms: _5  and  _11
REMARK    2  A    between atoms: _19  and  _21
REMARK    3  A    between atoms: _22  and  _66
REMARK    4  A    between atoms: _27  and  _30
REMARK    5  A    between atoms: _32  and  _33
REMARK    6  A    between atoms: _38  and  _43
REMARK    7  A    between atoms: _43  and  _46
REMARK    8  A    between atoms: _53  and  _55
REMARK                            x       y       z     vdW  Elec       q    Type
REMARK                         _______ _______ _______ _____ _____    ______ ____
ROOT
ATOM     10  C   UNL     1      12.022  16.329 -12.696  0.00  0.00    +0.038 A 
ATOM     11  C   UNL     1      13.319  15.974 -13.146  0.00  0.00    +0.047 A 
ATOM     12  C   UNL     1      14.102  16.878 -13.974  0.00  0.00    +0.035 A 
ATOM     32  C   UNL     1      13.534  18.138 -14.323  0.00  0.00    +0.024 A 
ATOM     33  C   UNL     1      12.217  18.515 -13.875  0.00  0.00    +0.007 A 
ATOM     34  C   UNL     1      11.439  17.626 -13.060  0.00  0.00    -0.029 A 
ATOM     35  C   UNL     1      10.029  18.080 -12.614  0.00  0.00    +0.045 C 
ENDROOT
BRANCH  10   9
ATOM      4  C   UNL     1      10.794  14.492  -8.436  0.00  0.00    +0.077 A 
ATOM      5  C   UNL     1      11.655  15.397  -7.731  0.00  0.00    +0.048 A 
ATOM      6  C   UNL     1      12.403  16.315  -8.502  0.00  0.00    +0.116 A 
ATOM      7  N   UNL     1      12.289  16.318  -9.875  0.00  0.00    -0.223 NA
ATOM      8  C   UNL     1      11.450  15.431 -10.524  0.00  0.00    +0.220 A 
ATOM      9  N   UNL     1      11.314  15.423 -11.904  0.00  0.00    -0.283 N 
ATOM     36  H   UNL     1      10.691  14.747 -12.345  0.00  0.00    +0.155 HD
ATOM     37  N   UNL     1      10.727  14.544  -9.810  0.00  0.00    -0.214 NA
BRANCH   4   3
ATOM      1  C   UNL     1       9.295  11.083  -7.239  0.00  0.00    +0.020 A 
ATOM      2  C   UNL     1      10.150  12.032  -7.914  0.00  0.00    +0.013 A 
ATOM      3  C   UNL     1       9.938  13.466  -7.761  0.00  0.00    +0.019 A 
ATOM     38  C   UNL     1       8.843  13.910  -6.911  0.00  0.00    +0.120 A 
ATOM     39  N   UNL     1       8.035  12.972  -6.275  0.00  0.00    -0.263 NA
ATOM     40  C   UNL     1       8.228  11.590  -6.416  0.00  0.00    +0.111 A 
ENDBRANCH   4   3
ENDBRANCH  10   9
BRANCH  12  13
ATOM     13  N   UNL     1      15.422  16.568 -14.467  0.00  0.00    -0.281 N 
ATOM     14  C   UNL     1      15.795  16.263 -15.766  0.00  0.00    +0.248 C 
ATOM     30  O   UNL     1      15.012  16.000 -16.667  0.00  0.00    -0.270 OA
ATOM     31  H   UNL     1      16.171  16.574 -13.775  0.00  0.00    +0.155 HD
BRANCH  14  15
ATOM     15  C   UNL     1      17.249  16.232 -16.111  0.00  0.00    +0.037 A 
ATOM     16  C   UNL     1      18.131  17.356 -15.786  0.00  0.00    +0.013 A 
ATOM     17  C   UNL     1      19.527  17.307 -16.145  0.00  0.00    +0.005 A 
ATOM     18  C   UNL     1      20.049  16.128 -16.832  0.00  0.00    -0.033 A 
ATOM     28  C   UNL     1      19.153  15.025 -17.137  0.00  0.00    +0.005 A 
ATOM     29  C   UNL     1      17.784  15.070 -16.788  0.00  0.00    +0.013 A 
BRANCH  18  19
ATOM     19  C   UNL     1      21.519  15.999 -17.271  0.00  0.00    +0.119 C 
BRANCH  19  20
ATOM     20  N   UNL     1      22.476  17.030 -16.769  0.00  0.00    -0.302 NA
ATOM     21  C   UNL     1      23.606  17.299 -17.766  0.00  0.00    +0.066 C 
ATOM     22  C   UNL     1      24.585  18.397 -17.235  0.00  0.00    -0.064 C 
ATOM     23  N   UNL     1      25.150  17.961 -15.882  0.00  0.00    +0.379 N 
ATOM     24  C   UNL     1      26.114  18.963 -15.407  0.00  0.00    -0.096 C 
ATOM     25  H   UNL     1      25.703  17.006 -16.039  0.00  0.00    -0.082 HD
ATOM     26  C   UNL     1      24.032  17.688 -14.885  0.00  0.00    -0.064 C 
ATOM     27  C   UNL     1      23.049  16.618 -15.435  0.00  0.00    +0.066 C 
ENDBRANCH  19  20
ENDBRANCH  18  19
ENDBRANCH  14  15
ENDBRANCH  12  13
TORSDOF 6
ENDMDL
