MODEL 1
REMARK VINA RESULT:      -7.7      0.000      0.000
REMARK  Name = C:\Users\Docking\Desktop\test protocol\1iep_ligandH.pdb
REMARK  8 active torsions:
REMARK  status: ('A' for Active; 'I' for Inactive)
REMARK    1  A    between atoms: _5  and  _11
REMARK    2  A    between atoms: _19  and  _21
REMARK    3  A    between atoms: _22  and  _66
REMARK    4  A    between atoms: _27  and  _30
REMARK    5  A    between atoms: _32  and  _33
REMARK    6  A    between atoms: _38  and  _43
REMARK    7  A    between atoms: _43  and  _46
REMARK    8  A    between atoms: _53  and  _55
REMARK                            x       y       z     vdW  Elec       q    Type
REMARK                         _______ _______ _______ _____ _____    ______ ____
ROOT
ATOM     10  C   UNL     1      34.293   2.259  -2.466  0.00  0.00    +0.038 A 
ATOM     11  C   UNL     1      34.270   0.985  -1.842  0.00  0.00    +0.047 A 
ATOM     12  C   UNL     1      33.256   0.649  -0.856  0.00  0.00    +0.035 A 
ATOM     32  C   UNL     1      32.277   1.632  -0.531  0.00  0.00    +0.024 A 
ATOM     33  C   UNL     1      32.285   2.932  -1.155  0.00  0.00    +0.007 A 
ATOM     34  C   UNL     1      33.285   3.271  -2.126  0.00  0.00    -0.029 A 
ATOM     35  C   UNL     1      33.250   4.682  -2.759  0.00  0.00    +0.045 C 
ENDROOT
BRANCH  10   9
ATOM      4  C   UNL     1      36.105   2.009  -6.904  0.00  0.00    +0.077 A 
ATOM      5  C   UNL     1      34.983   1.255  -7.383  0.00  0.00    +0.048 A 
ATOM      6  C   UNL     1      33.964   0.945  -6.454  0.00  0.00    +0.116 A 
ATOM      7  N   UNL     1      34.070   1.365  -5.146  0.00  0.00    -0.223 NA
ATOM      8  C   UNL     1      35.166   2.090  -4.716  0.00  0.00    +0.220 A 
ATOM      9  N   UNL     1      35.289   2.529  -3.407  0.00  0.00    -0.283 N 
ATOM     36  H   UNL     1      36.117   3.054  -3.127  0.00  0.00    +0.155 HD
ATOM     37  N   UNL     1      36.153   2.397  -5.583  0.00  0.00    -0.214 NA
BRANCH   4   3
ATOM      1  C   UNL     1      39.061   1.936  -9.465  0.00  0.00    +0.020 A 
ATOM      2  C   UNL     1      37.951   1.491  -8.653  0.00  0.00    +0.013 A 
ATOM      3  C   UNL     1      37.260   2.417  -7.765  0.00  0.00    +0.019 A 
ATOM     38  C   UNL     1      37.719   3.797  -7.722  0.00  0.00    +0.120 A 
ATOM     39  N   UNL     1      38.791   4.196  -8.513  0.00  0.00    -0.263 NA
ATOM     40  C   UNL     1      39.465   3.314  -9.371  0.00  0.00    +0.111 A 
ENDBRANCH   4   3
ENDBRANCH  10   9
BRANCH  12  13
ATOM     13  N   UNL     1      33.188  -0.625  -0.183  0.00  0.00    -0.281 N 
ATOM     14  C   UNL     1      32.208  -1.598  -0.298  0.00  0.00    +0.248 C 
ATOM     30  O   UNL     1      31.125  -1.428  -0.839  0.00  0.00    -0.270 OA
ATOM     31  H   UNL     1      33.955  -0.835   0.456  0.00  0.00    +0.155 HD
BRANCH  14  15
ATOM     15  C   UNL     1      32.462  -2.951   0.284  0.00  0.00    +0.037 A 
ATOM     16  C   UNL     1      33.124  -4.001  -0.493  0.00  0.00    +0.013 A 
ATOM     17  C   UNL     1      33.342  -5.302   0.087  0.00  0.00    +0.005 A 
ATOM     18  C   UNL     1      32.896  -5.560   1.454  0.00  0.00    -0.033 A 
ATOM     28  C   UNL     1      32.246  -4.499   2.205  0.00  0.00    +0.005 A 
ATOM     29  C   UNL     1      32.031  -3.222   1.639  0.00  0.00    +0.013 A 
BRANCH  18  19
ATOM     19  C   UNL     1      33.068  -6.926   2.146  0.00  0.00    +0.119 C 
BRANCH  19  20
ATOM     20  N   UNL     1      31.827  -7.630   2.585  0.00  0.00    -0.302 NA
ATOM     21  C   UNL     1      32.092  -8.591   3.747  0.00  0.00    +0.066 C 
ATOM     22  C   UNL     1      30.779  -9.303   4.209  0.00  0.00    -0.064 C 
ATOM     23  N   UNL     1      30.161 -10.046   3.022  0.00  0.00    +0.379 N 
ATOM     24  C   UNL     1      28.957 -10.764   3.466  0.00  0.00    -0.096 C 
ATOM     25  H   UNL     1      30.901 -10.805   2.677  0.00  0.00    -0.082 HD
ATOM     26  C   UNL     1      29.897  -9.098   1.861  0.00  0.00    -0.064 C 
ATOM     27  C   UNL     1      31.202  -8.374   1.430  0.00  0.00    +0.066 C 
ENDBRANCH  19  20
ENDBRANCH  18  19
ENDBRANCH  14  15
ENDBRANCH  12  13
TORSDOF 6
ENDMDL
MODEL 2
REMARK VINA RESULT:      -7.6      1.781      2.578
REMARK  Name = C:\Users\Docking\Desktop\test protocol\1iep_ligandH.pdb
REMARK  8 active torsions:
REMARK  status: ('A' for Active; 'I' for Inactive)
REMARK    1  A    between atoms: _5  and  _11
REMARK    2  A    between atoms: _19  and  _21
REMARK    3  A    between atoms: _22  and  _66
REMARK    4  A    between atoms: _27  and  _30
REMARK    5  A    between atoms: _32  and  _33
REMARK    6  A    between atoms: _38  and  _43
REMARK    7  A    between atoms: _43  and  _46
REMARK    8  A    between atoms: _53  and  _55
REMARK                            x       y       z     vdW  Elec       q    Type
REMARK                         _______ _______ _______ _____ _____    ______ ____
ROOT
ATOM     10  C   UNL     1      35.256   3.662  -3.223  0.00  0.00    +0.038 A 
ATOM     11  C   UNL     1      35.184   2.309  -2.804  0.00  0.00    +0.047 A 
ATOM     12  C   UNL     1      34.006   1.794  -2.123  0.00  0.00    +0.035 A 
ATOM     32  C   UNL     1      32.919   2.685  -1.886  0.00  0.00    +0.024 A 
ATOM     33  C   UNL     1      32.977   4.064  -2.304  0.00  0.00    +0.007 A 
ATOM     34  C   UNL     1      34.137   4.578  -2.974  0.00  0.00    -0.029 A 
ATOM     35  C   UNL     1      34.146   6.066  -3.394  0.00  0.00    +0.045 C 
ENDROOT
BRANCH  10   9
ATOM      4  C   UNL     1      38.371   3.530  -6.873  0.00  0.00    +0.077 A 
ATOM      5  C   UNL     1      37.651   2.475  -7.526  0.00  0.00    +0.048 A 
ATOM      6  C   UNL     1      36.489   1.989  -6.886  0.00  0.00    +0.116 A 
ATOM      7  N   UNL     1      36.085   2.526  -5.683  0.00  0.00    -0.223 NA
ATOM      8  C   UNL     1      36.803   3.542  -5.079  0.00  0.00    +0.220 A 
ATOM      9  N   UNL     1      36.411   4.103  -3.873  0.00  0.00    -0.283 N 
ATOM     36  H   UNL     1      36.972   4.845  -3.457  0.00  0.00    +0.155 HD
ATOM     37  N   UNL     1      37.918   4.022  -5.669  0.00  0.00    -0.214 NA
BRANCH   4   3
ATOM      1  C   UNL     1      41.868   5.258  -7.164  0.00  0.00    +0.020 A 
ATOM      2  C   UNL     1      40.685   4.669  -6.580  0.00  0.00    +0.013 A 
ATOM      3  C   UNL     1      39.616   4.150  -7.425  0.00  0.00    +0.019 A 
ATOM     38  C   UNL     1      39.777   4.244  -8.868  0.00  0.00    +0.120 A 
ATOM     39  N   UNL     1      40.927   4.818  -9.402  0.00  0.00    -0.263 NA
ATOM     40  C   UNL     1      41.961   5.322  -8.599  0.00  0.00    +0.111 A 
ENDBRANCH   4   3
ENDBRANCH  10   9
BRANCH  12  13
ATOM     13  N   UNL     1      33.878   0.432  -1.668  0.00  0.00    -0.281 N 
ATOM     14  C   UNL     1      33.284  -0.024  -0.503  0.00  0.00    +0.248 C 
ATOM     30  O   UNL     1      32.958   0.691   0.433  0.00  0.00    -0.270 OA
ATOM     31  H   UNL     1      34.275  -0.282  -2.278  0.00  0.00    +0.155 HD
BRANCH  14  15
ATOM     15  C   UNL     1      33.027  -1.489  -0.349  0.00  0.00    +0.037 A 
ATOM     16  C   UNL     1      33.342  -2.433  -1.424  0.00  0.00    +0.013 A 
ATOM     17  C   UNL     1      33.069  -3.838  -1.256  0.00  0.00    +0.005 A 
ATOM     18  C   UNL     1      32.478  -4.308  -0.006  0.00  0.00    -0.033 A 
ATOM     28  C   UNL     1      32.180  -3.351   1.047  0.00  0.00    +0.005 A 
ATOM     29  C   UNL     1      32.445  -1.972   0.885  0.00  0.00    +0.013 A 
BRANCH  18  19
ATOM     19  C   UNL     1      32.133  -5.787   0.253  0.00  0.00    +0.119 C 
BRANCH  19  20
ATOM     20  N   UNL     1      32.405  -6.324   1.619  0.00  0.00    -0.302 NA
ATOM     21  C   UNL     1      33.076  -7.699   1.573  0.00  0.00    +0.066 C 
ATOM     22  C   UNL     1      33.374  -8.236   3.011  0.00  0.00    -0.064 C 
ATOM     23  N   UNL     1      32.071  -8.296   3.809  0.00  0.00    +0.379 N 
ATOM     24  C   UNL     1      32.338  -8.855   5.143  0.00  0.00    -0.096 C 
ATOM     25  H   UNL     1      31.382  -8.996   3.281  0.00  0.00    -0.082 HD
ATOM     26  C   UNL     1      31.395  -6.933   3.858  0.00  0.00    -0.064 C 
ATOM     27  C   UNL     1      31.130  -6.396   2.424  0.00  0.00    +0.066 C 
ENDBRANCH  19  20
ENDBRANCH  18  19
ENDBRANCH  14  15
ENDBRANCH  12  13
TORSDOF 6
ENDMDL
MODEL 3
REMARK VINA RESULT:      -7.5     28.256     31.348
REMARK  Name = C:\Users\Docking\Desktop\test protocol\1iep_ligandH.pdb
REMARK  8 active torsions:
REMARK  status: ('A' for Active; 'I' for Inactive)
REMARK    1  A    between atoms: _5  and  _11
REMARK    2  A    between atoms: _19  and  _21
REMARK    3  A    between atoms: _22  and  _66
REMARK    4  A    between atoms: _27  and  _30
REMARK    5  A    between atoms: _32  and  _33
REMARK    6  A    between atoms: _38  and  _43
REMARK    7  A    between atoms: _43  and  _46
REMARK    8  A    between atoms: _53  and  _55
REMARK                            x       y       z     vdW  Elec       q    Type
REMARK                         _______ _______ _______ _____ _____    ______ ____
ROOT
ATOM     10  C   UNL     1      22.510 -29.650  -3.158  0.00  0.00    +0.038 A 
ATOM     11  C   UNL     1      21.334 -29.181  -3.798  0.00  0.00    +0.047 A 
ATOM     12  C   UNL     1      20.223 -28.642  -3.029  0.00  0.00    +0.035 A 
ATOM     32  C   UNL     1      20.345 -28.592  -1.610  0.00  0.00    +0.024 A 
ATOM     33  C   UNL     1      21.532 -29.065  -0.943  0.00  0.00    +0.007 A 
ATOM     34  C   UNL     1      22.630 -29.601  -1.696  0.00  0.00    -0.029 A 
ATOM     35  C   UNL     1      23.876 -30.099  -0.927  0.00  0.00    +0.045 C 
ENDROOT
BRANCH  10   9
ATOM      4  C   UNL     1      26.571 -29.125  -5.662  0.00  0.00    +0.077 A 
ATOM      5  C   UNL     1      26.618 -27.715  -5.404  0.00  0.00    +0.048 A 
ATOM      6  C   UNL     1      25.574 -27.162  -4.628  0.00  0.00    +0.116 A 
ATOM      7  N   UNL     1      24.564 -27.969  -4.151  0.00  0.00    -0.223 NA
ATOM      8  C   UNL     1      24.548 -29.326  -4.421  0.00  0.00    +0.220 A 
ATOM      9  N   UNL     1      23.546 -30.158  -3.945  0.00  0.00    -0.283 N 
ATOM     36  H   UNL     1      23.566 -31.152  -4.172  0.00  0.00    +0.155 HD
ATOM     37  N   UNL     1      25.532 -29.877  -5.160  0.00  0.00    -0.214 NA
BRANCH   4   3
ATOM      1  C   UNL     1      29.890 -30.876  -6.764  0.00  0.00    +0.020 A 
ATOM      2  C   UNL     1      28.931 -30.167  -5.949  0.00  0.00    +0.013 A 
ATOM      3  C   UNL     1      27.603 -29.856  -6.463  0.00  0.00    +0.019 A 
ATOM     38  C   UNL     1      27.275 -30.281  -7.816  0.00  0.00    +0.120 A 
ATOM     39  N   UNL     1      28.220 -30.961  -8.578  0.00  0.00    -0.263 NA
ATOM     40  C   UNL     1      29.501 -31.264  -8.094  0.00  0.00    +0.111 A 
ENDBRANCH   4   3
ENDBRANCH  10   9
BRANCH  12  13
ATOM     13  N   UNL     1      19.001 -28.159  -3.623  0.00  0.00    -0.281 N 
ATOM     14  C   UNL     1      17.700 -28.464  -3.262  0.00  0.00    +0.248 C 
ATOM     30  O   UNL     1      17.388 -29.371  -2.504  0.00  0.00    -0.270 OA
ATOM     31  H   UNL     1      19.109 -27.513  -4.406  0.00  0.00    +0.155 HD
BRANCH  14  15
ATOM     15  C   UNL     1      16.582 -27.655  -3.835  0.00  0.00    +0.037 A 
ATOM     16  C   UNL     1      16.576 -26.193  -3.740  0.00  0.00    +0.013 A 
ATOM     17  C   UNL     1      15.477 -25.436  -4.286  0.00  0.00    +0.005 A 
ATOM     18  C   UNL     1      14.375 -26.142  -4.935  0.00  0.00    -0.033 A 
ATOM     28  C   UNL     1      14.408 -27.593  -5.020  0.00  0.00    +0.005 A 
ATOM     29  C   UNL     1      15.483 -28.337  -4.485  0.00  0.00    +0.013 A 
BRANCH  18  19
ATOM     19  C   UNL     1      13.151 -25.418  -5.527  0.00  0.00    +0.119 C 
BRANCH  19  20
ATOM     20  N   UNL     1      12.931 -25.540  -6.999  0.00  0.00    -0.302 NA
ATOM     21  C   UNL     1      13.734 -24.501  -7.788  0.00  0.00    +0.066 C 
ATOM     22  C   UNL     1      13.509 -24.657  -9.327  0.00  0.00    -0.064 C 
ATOM     23  N   UNL     1      12.016 -24.537  -9.637  0.00  0.00    +0.379 N 
ATOM     24  C   UNL     1      11.808 -24.625 -11.089  0.00  0.00    -0.096 C 
ATOM     25  H   UNL     1      11.684 -23.525  -9.308  0.00  0.00    -0.082 HD
ATOM     26  C   UNL     1      11.210 -25.564  -8.855  0.00  0.00    -0.064 C 
ATOM     27  C   UNL     1      11.463 -25.419  -7.328  0.00  0.00    +0.066 C 
ENDBRANCH  19  20
ENDBRANCH  18  19
ENDBRANCH  14  15
ENDBRANCH  12  13
TORSDOF 6
ENDMDL
MODEL 4
REMARK VINA RESULT:      -7.4     28.634     36.016
REMARK  Name = C:\Users\Docking\Desktop\test protocol\1iep_ligandH.pdb
REMARK  8 active torsions:
REMARK  status: ('A' for Active; 'I' for Inactive)
REMARK    1  A    between atoms: _5  and  _11
REMARK    2  A    between atoms: _19  and  _21
REMARK    3  A    between atoms: _22  and  _66
REMARK    4  A    between atoms: _27  and  _30
REMARK    5  A    between atoms: _32  and  _33
REMARK    6  A    between atoms: _38  and  _43
REMARK    7  A    between atoms: _43  and  _46
REMARK    8  A    between atoms: _53  and  _55
REMARK                            x       y       z     vdW  Elec       q    Type
REMARK                         _______ _______ _______ _____ _____    ______ ____
ROOT
ATOM     10  C   UNL     1      25.097 -33.345 -11.182  0.00  0.00    +0.038 A 
ATOM     11  C   UNL     1      23.817 -32.985 -11.676  0.00  0.00    +0.047 A 
ATOM     12  C   UNL     1      23.011 -33.930 -12.434  0.00  0.00    +0.035 A 
ATOM     32  C   UNL     1      23.538 -35.233 -12.667  0.00  0.00    +0.024 A 
ATOM     33  C   UNL     1      24.837 -35.615 -12.173  0.00  0.00    +0.007 A 
ATOM     34  C   UNL     1      25.639 -34.687 -11.427  0.00  0.00    -0.029 A 
ATOM     35  C   UNL     1      27.027 -35.149 -10.927  0.00  0.00    +0.045 C 
ENDROOT
BRANCH  10   9
ATOM      4  C   UNL     1      26.241 -31.092  -7.101  0.00  0.00    +0.077 A 
ATOM      5  C   UNL     1      25.281 -31.846  -6.347  0.00  0.00    +0.048 A 
ATOM      6  C   UNL     1      24.508 -32.798  -7.048  0.00  0.00    +0.116 A 
ATOM      7  N   UNL     1      24.690 -32.976  -8.402  0.00  0.00    -0.223 NA
ATOM      8  C   UNL     1      25.624 -32.231  -9.100  0.00  0.00    +0.220 A 
ATOM      9  N   UNL     1      25.829 -32.399 -10.461  0.00  0.00    -0.283 N 
ATOM     36  H   UNL     1      26.522 -31.825 -10.940  0.00  0.00    +0.155 HD
ATOM     37  N   UNL     1      26.373 -31.314  -8.453  0.00  0.00    -0.214 NA
BRANCH   4   3
ATOM      1  C   UNL     1      28.910 -29.296  -4.876  0.00  0.00    +0.020 A 
ATOM      2  C   UNL     1      28.069 -30.337  -5.419  0.00  0.00    +0.013 A 
ATOM      3  C   UNL     1      27.135 -30.052  -6.501  0.00  0.00    +0.019 A 
ATOM     38  C   UNL     1      27.078 -28.692  -7.016  0.00  0.00    +0.120 A 
ATOM     39  N   UNL     1      27.900 -27.710  -6.473  0.00  0.00    -0.263 NA
ATOM     40  C   UNL     1      28.801 -27.972  -5.430  0.00  0.00    +0.111 A 
ENDBRANCH   4   3
ENDBRANCH  10   9
BRANCH  12  13
ATOM     13  N   UNL     1      21.708 -33.619 -12.967  0.00  0.00    -0.281 N 
ATOM     14  C   UNL     1      21.406 -32.940 -14.136  0.00  0.00    +0.248 C 
ATOM     30  O   UNL     1      22.217 -32.307 -14.797  0.00  0.00    -0.270 OA
ATOM     31  H   UNL     1      20.911 -33.938 -12.416  0.00  0.00    +0.155 HD
BRANCH  14  15
ATOM     15  C   UNL     1      19.998 -32.954 -14.637  0.00  0.00    +0.037 A 
ATOM     16  C   UNL     1      19.255 -34.209 -14.781  0.00  0.00    +0.013 A 
ATOM     17  C   UNL     1      17.904 -34.196 -15.282  0.00  0.00    +0.005 A 
ATOM     18  C   UNL     1      17.286 -32.922 -15.642  0.00  0.00    -0.033 A 
ATOM     28  C   UNL     1      18.044 -31.692 -15.485  0.00  0.00    +0.005 A 
ATOM     29  C   UNL     1      19.369 -31.700 -14.995  0.00  0.00    +0.013 A 
BRANCH  18  19
ATOM     19  C   UNL     1      15.856 -32.815 -16.205  0.00  0.00    +0.119 C 
BRANCH  19  20
ATOM     20  N   UNL     1      14.814 -33.693 -15.594  0.00  0.00    -0.302 NA
ATOM     21  C   UNL     1      13.592 -33.852 -16.502  0.00  0.00    +0.066 C 
ATOM     22  C   UNL     1      12.521 -34.791 -15.857  0.00  0.00    -0.064 C 
ATOM     23  N   UNL     1      12.112 -34.232 -14.493  0.00  0.00    +0.379 N 
ATOM     24  C   UNL     1      11.063 -35.081 -13.910  0.00  0.00    -0.096 C 
ATOM     25  H   UNL     1      11.675 -33.220 -14.659  0.00  0.00    -0.082 HD
ATOM     26  C   UNL     1      13.322 -34.069 -13.584  0.00  0.00    -0.064 C 
ATOM     27  C   UNL     1      14.393 -33.158 -14.247  0.00  0.00    +0.066 C 
ENDBRANCH  19  20
ENDBRANCH  18  19
ENDBRANCH  14  15
ENDBRANCH  12  13
TORSDOF 6
ENDMDL
MODEL 5
REMARK VINA RESULT:      -7.3     18.590     27.880
REMARK  Name = C:\Users\Docking\Desktop\test protocol\1iep_ligandH.pdb
REMARK  8 active torsions:
REMARK  status: ('A' for Active; 'I' for Inactive)
REMARK    1  A    between atoms: _5  and  _11
REMARK    2  A    between atoms: _19  and  _21
REMARK    3  A    between atoms: _22  and  _66
REMARK    4  A    between atoms: _27  and  _30
REMARK    5  A    between atoms: _32  and  _33
REMARK    6  A    between atoms: _38  and  _43
REMARK    7  A    between atoms: _43  and  _46
REMARK    8  A    between atoms: _53  and  _55
REMARK                            x       y       z     vdW  Elec       q    Type
REMARK                         _______ _______ _______ _____ _____    ______ ____
ROOT
ATOM     10  C   UNL     1      23.501 -27.870  -3.539  0.00  0.00    +0.038 A 
ATOM     11  C   UNL     1      23.638 -26.535  -3.996  0.00  0.00    +0.047 A 
ATOM     12  C   UNL     1      23.721 -25.424  -3.060  0.00  0.00    +0.035 A 
ATOM     32  C   UNL     1      23.663 -25.710  -1.665  0.00  0.00    +0.024 A 
ATOM     33  C   UNL     1      23.522 -27.062  -1.183  0.00  0.00    +0.007 A 
ATOM     34  C   UNL     1      23.438 -28.161  -2.102  0.00  0.00    -0.029 A 
ATOM     35  C   UNL     1      23.281 -29.589  -1.529  0.00  0.00    +0.045 C 
ENDROOT
BRANCH  10   9
ATOM      4  C   UNL     1      25.527 -31.204  -6.336  0.00  0.00    +0.077 A 
ATOM      5  C   UNL     1      26.848 -30.849  -5.903  0.00  0.00    +0.048 A 
ATOM      6  C   UNL     1      26.963 -29.799  -4.965  0.00  0.00    +0.116 A 
ATOM      7  N   UNL     1      25.834 -29.158  -4.501  0.00  0.00    -0.223 NA
ATOM      8  C   UNL     1      24.575 -29.524  -4.940  0.00  0.00    +0.220 A 
ATOM      9  N   UNL     1      23.426 -28.899  -4.481  0.00  0.00    -0.283 N 
ATOM     36  H   UNL     1      22.516 -29.193  -4.836  0.00  0.00    +0.155 HD
ATOM     37  N   UNL     1      24.439 -30.523  -5.837  0.00  0.00    -0.214 NA
BRANCH   4   3
ATOM      1  C   UNL     1      23.739 -34.039  -8.352  0.00  0.00    +0.020 A 
ATOM      2  C   UNL     1      23.963 -32.993  -7.382  0.00  0.00    +0.013 A 
ATOM      3  C   UNL     1      25.241 -32.295  -7.321  0.00  0.00    +0.019 A 
ATOM     38  C   UNL     1      26.280 -32.682  -8.264  0.00  0.00    +0.120 A 
ATOM     39  N   UNL     1      26.035 -33.694  -9.187  0.00  0.00    -0.263 NA
ATOM     40  C   UNL     1      24.810 -34.374  -9.254  0.00  0.00    +0.111 A 
ENDBRANCH   4   3
ENDBRANCH  10   9
BRANCH  12  13
ATOM     13  N   UNL     1      23.853 -24.047  -3.466  0.00  0.00    -0.281 N 
ATOM     14  C   UNL     1      22.843 -23.132  -3.716  0.00  0.00    +0.248 C 
ATOM     30  O   UNL     1      21.662 -23.422  -3.837  0.00  0.00    -0.270 OA
ATOM     31  H   UNL     1      24.806 -23.704  -3.582  0.00  0.00    +0.155 HD
BRANCH  14  15
ATOM     15  C   UNL     1      23.198 -21.688  -3.869  0.00  0.00    +0.037 A 
ATOM     16  C   UNL     1      23.210 -21.044  -5.184  0.00  0.00    +0.013 A 
ATOM     17  C   UNL     1      23.572 -19.654  -5.306  0.00  0.00    +0.005 A 
ATOM     18  C   UNL     1      23.925 -18.899  -4.106  0.00  0.00    -0.033 A 
ATOM     28  C   UNL     1      23.899 -19.561  -2.813  0.00  0.00    +0.005 A 
ATOM     29  C   UNL     1      23.545 -20.924  -2.690  0.00  0.00    +0.013 A 
BRANCH  18  19
ATOM     19  C   UNL     1      24.345 -17.417  -4.144  0.00  0.00    +0.119 C 
BRANCH  19  20
ATOM     20  N   UNL     1      25.807 -17.123  -4.223  0.00  0.00    -0.302 NA
ATOM     21  C   UNL     1      26.082 -15.629  -4.416  0.00  0.00    +0.066 C 
ATOM     22  C   UNL     1      27.617 -15.336  -4.474  0.00  0.00    -0.064 C 
ATOM     23  N   UNL     1      28.247 -16.154  -5.603  0.00  0.00    +0.379 N 
ATOM     24  C   UNL     1      29.680 -15.837  -5.698  0.00  0.00    -0.096 C 
ATOM     25  H   UNL     1      27.767 -15.838  -6.558  0.00  0.00    -0.082 HD
ATOM     26  C   UNL     1      27.976 -17.640  -5.420  0.00  0.00    -0.064 C 
ATOM     27  C   UNL     1      26.449 -17.917  -5.334  0.00  0.00    +0.066 C 
ENDBRANCH  19  20
ENDBRANCH  18  19
ENDBRANCH  14  15
ENDBRANCH  12  13
TORSDOF 6
ENDMDL
