MODEL 1
REMARK VINA RESULT:      -8.7      0.000      0.000
REMARK  Name = C:\Users\Docking\Desktop\test protocol\1iep_ligandH.pdb
REMARK  8 active torsions:
REMARK  status: ('A' for Active; 'I' for Inactive)
REMARK    1  A    between atoms: _5  and  _11
REMARK    2  A    between atoms: _19  and  _21
REMARK    3  A    between atoms: _22  and  _66
REMARK    4  A    between atoms: _27  and  _30
REMARK    5  A    between atoms: _32  and  _33
REMARK    6  A    between atoms: _38  and  _43
REMARK    7  A    between atoms: _43  and  _46
REMARK    8  A    between atoms: _53  and  _55
REMARK                            x       y       z     vdW  Elec       q    Type
REMARK                         _______ _______ _______ _____ _____    ______ ____
ROOT
ATOM     10  C   UNL     1      11.725   9.079  -1.295  0.00  0.00    +0.038 A 
ATOM     11  C   UNL     1      11.493   9.545   0.024  0.00  0.00    +0.047 A 
ATOM     12  C   UNL     1      12.149   8.929   1.167  0.00  0.00    +0.035 A 
ATOM     32  C   UNL     1      13.039   7.841   0.929  0.00  0.00    +0.024 A 
ATOM     33  C   UNL     1      13.286   7.354  -0.406  0.00  0.00    +0.007 A 
ATOM     34  C   UNL     1      12.639   7.956  -1.536  0.00  0.00    -0.029 A 
ATOM     35  C   UNL     1      12.937   7.389  -2.944  0.00  0.00    +0.045 C 
ENDROOT
BRANCH  10   9
ATOM      4  C   UNL     1      11.557  12.279  -4.869  0.00  0.00    +0.077 A 
ATOM      5  C   UNL     1      12.879  12.756  -4.583  0.00  0.00    +0.048 A 
ATOM      6  C   UNL     1      13.566  12.157  -3.504  0.00  0.00    +0.116 A 
ATOM      7  N   UNL     1      12.966  11.155  -2.772  0.00  0.00    -0.223 NA
ATOM      8  C   UNL     1      11.688  10.719  -3.073  0.00  0.00    +0.220 A 
ATOM      9  N   UNL     1      11.068   9.708  -2.355  0.00  0.00    -0.283 N 
ATOM     36  H   UNL     1      10.122   9.420  -2.604  0.00  0.00    +0.155 HD
ATOM     37  N   UNL     1      11.011  11.277  -4.098  0.00  0.00    -0.214 NA
BRANCH   4   3
ATOM      1  C   UNL     1       8.518  13.009  -7.221  0.00  0.00    +0.020 A 
ATOM      2  C   UNL     1       9.296  12.468  -6.131  0.00  0.00    +0.013 A 
ATOM      3  C   UNL     1      10.705  12.810  -5.980  0.00  0.00    +0.019 A 
ATOM     38  C   UNL     1      11.301  13.708  -6.957  0.00  0.00    +0.120 A 
ATOM     39  N   UNL     1      10.527  14.212  -7.998  0.00  0.00    -0.263 NA
ATOM     40  C   UNL     1       9.171  13.889  -8.154  0.00  0.00    +0.111 A 
ENDBRANCH   4   3
ENDBRANCH  10   9
BRANCH  12  13
ATOM     13  N   UNL     1      11.945   9.354   2.529  0.00  0.00    -0.281 N 
ATOM     14  C   UNL     1      11.903  10.648   3.021  0.00  0.00    +0.248 C 
ATOM     30  O   UNL     1      12.249  11.638   2.392  0.00  0.00    -0.270 OA
ATOM     31  H   UNL     1      11.817   8.610   3.215  0.00  0.00    +0.155 HD
BRANCH  14  15
ATOM     15  C   UNL     1      11.421  10.875   4.417  0.00  0.00    +0.037 A 
ATOM     16  C   UNL     1      10.093  11.436   4.681  0.00  0.00    +0.013 A 
ATOM     17  C   UNL     1       9.659  11.661   6.037  0.00  0.00    +0.005 A 
ATOM     18  C   UNL     1      10.555  11.323   7.140  0.00  0.00    -0.033 A 
ATOM     28  C   UNL     1      11.865  10.764   6.851  0.00  0.00    +0.005 A 
ATOM     29  C   UNL     1      12.294  10.543   5.523  0.00  0.00    +0.013 A 
BRANCH  18  19
ATOM     19  C   UNL     1      10.184  11.549   8.618  0.00  0.00    +0.119 C 
BRANCH  19  20
ATOM     20  N   UNL     1       9.332  12.735   8.935  0.00  0.00    -0.302 NA
ATOM     21  C   UNL     1       9.874  13.528  10.128  0.00  0.00    +0.066 C 
ATOM     22  C   UNL     1       8.984  14.777  10.432  0.00  0.00    -0.064 C 
ATOM     23  N   UNL     1       7.546  14.324  10.691  0.00  0.00    +0.379 N 
ATOM     24  C   UNL     1       6.718  15.490  11.034  0.00  0.00    -0.096 C 
ATOM     25  H   UNL     1       7.559  13.646  11.576  0.00  0.00    -0.082 HD
ATOM     26  C   UNL     1       7.000  13.532   9.511  0.00  0.00    -0.064 C 
ATOM     27  C   UNL     1       7.908  12.310   9.199  0.00  0.00    +0.066 C 
ENDBRANCH  19  20
ENDBRANCH  18  19
ENDBRANCH  14  15
ENDBRANCH  12  13
TORSDOF 6
ENDMDL
MODEL 2
REMARK VINA RESULT:      -8.4      8.577     14.556
REMARK  Name = C:\Users\Docking\Desktop\test protocol\1iep_ligandH.pdb
REMARK  8 active torsions:
REMARK  status: ('A' for Active; 'I' for Inactive)
REMARK    1  A    between atoms: _5  and  _11
REMARK    2  A    between atoms: _19  and  _21
REMARK    3  A    between atoms: _22  and  _66
REMARK    4  A    between atoms: _27  and  _30
REMARK    5  A    between atoms: _32  and  _33
REMARK    6  A    between atoms: _38  and  _43
REMARK    7  A    between atoms: _43  and  _46
REMARK    8  A    between atoms: _53  and  _55
REMARK                            x       y       z     vdW  Elec       q    Type
REMARK                         _______ _______ _______ _____ _____    ______ ____
ROOT
ATOM     10  C   UNL     1      15.832  13.854  -3.289  0.00  0.00    +0.038 A 
ATOM     11  C   UNL     1      16.951  13.219  -3.887  0.00  0.00    +0.047 A 
ATOM     12  C   UNL     1      18.309  13.637  -3.576  0.00  0.00    +0.035 A 
ATOM     32  C   UNL     1      18.492  14.703  -2.647  0.00  0.00    +0.024 A 
ATOM     33  C   UNL     1      17.366  15.360  -2.030  0.00  0.00    +0.007 A 
ATOM     34  C   UNL     1      16.024  14.954  -2.336  0.00  0.00    -0.029 A 
ATOM     35  C   UNL     1      14.855  15.698  -1.649  0.00  0.00    +0.045 C 
ENDROOT
BRANCH  10   9
ATOM      4  C   UNL     1      11.902  13.967  -6.042  0.00  0.00    +0.077 A 
ATOM      5  C   UNL     1      12.437  15.012  -6.865  0.00  0.00    +0.048 A 
ATOM      6  C   UNL     1      13.724  15.498  -6.542  0.00  0.00    +0.116 A 
ATOM      7  N   UNL     1      14.416  14.970  -5.474  0.00  0.00    -0.223 NA
ATOM      8  C   UNL     1      13.870  13.964  -4.699  0.00  0.00    +0.220 A 
ATOM      9  N   UNL     1      14.551  13.412  -3.624  0.00  0.00    -0.283 N 
ATOM     36  H   UNL     1      14.110  12.676  -3.072  0.00  0.00    +0.155 HD
ATOM     37  N   UNL     1      12.642  13.483  -4.985  0.00  0.00    -0.214 NA
BRANCH   4   3
ATOM      1  C   UNL     1       8.055  13.480  -6.551  0.00  0.00    +0.020 A 
ATOM      2  C   UNL     1       9.329  14.128  -6.341  0.00  0.00    +0.013 A 
ATOM      3  C   UNL     1      10.557  13.347  -6.258  0.00  0.00    +0.019 A 
ATOM     38  C   UNL     1      10.460  11.901  -6.393  0.00  0.00    +0.120 A 
ATOM     39  N   UNL     1       9.219  11.305  -6.593  0.00  0.00    -0.263 NA
ATOM     40  C   UNL     1       8.031  12.046  -6.673  0.00  0.00    +0.111 A 
ENDBRANCH   4   3
ENDBRANCH  10   9
BRANCH  12  13
ATOM     13  N   UNL     1      19.483  13.035  -4.158  0.00  0.00    -0.281 N 
ATOM     14  C   UNL     1      20.319  12.084  -3.598  0.00  0.00    +0.248 C 
ATOM     30  O   UNL     1      20.307  11.760  -2.420  0.00  0.00    -0.270 OA
ATOM     31  H   UNL     1      19.726  13.349  -5.098  0.00  0.00    +0.155 HD
BRANCH  14  15
ATOM     15  C   UNL     1      21.325  11.404  -4.470  0.00  0.00    +0.037 A 
ATOM     16  C   UNL     1      21.094  11.232  -5.906  0.00  0.00    +0.013 A 
ATOM     17  C   UNL     1      22.073  10.557  -6.721  0.00  0.00    +0.005 A 
ATOM     18  C   UNL     1      23.294  10.050  -6.100  0.00  0.00    -0.033 A 
ATOM     28  C   UNL     1      23.500  10.238  -4.674  0.00  0.00    +0.005 A 
ATOM     29  C   UNL     1      22.543  10.898  -3.872  0.00  0.00    +0.013 A 
BRANCH  18  19
ATOM     19  C   UNL     1      24.383   9.299  -6.889  0.00  0.00    +0.119 C 
BRANCH  19  20
ATOM     20  N   UNL     1      24.129   9.052  -8.340  0.00  0.00    -0.302 NA
ATOM     21  C   UNL     1      23.511   7.674  -8.589  0.00  0.00    +0.066 C 
ATOM     22  C   UNL     1      23.232   7.442 -10.110  0.00  0.00    -0.064 C 
ATOM     23  N   UNL     1      24.535   7.601 -10.895  0.00  0.00    +0.379 N 
ATOM     24  C   UNL     1      24.287   7.327 -12.318  0.00  0.00    -0.096 C 
ATOM     25  H   UNL     1      25.251   6.832 -10.522  0.00  0.00    -0.082 HD
ATOM     26  C   UNL     1      25.158   8.969 -10.651  0.00  0.00    -0.064 C 
ATOM     27  C   UNL     1      25.404   9.201  -9.134  0.00  0.00    +0.066 C 
ENDBRANCH  19  20
ENDBRANCH  18  19
ENDBRANCH  14  15
ENDBRANCH  12  13
TORSDOF 6
ENDMDL
MODEL 3
REMARK VINA RESULT:      -7.7      1.719      2.538
REMARK  Name = C:\Users\Docking\Desktop\test protocol\1iep_ligandH.pdb
REMARK  8 active torsions:
REMARK  status: ('A' for Active; 'I' for Inactive)
REMARK    1  A    between atoms: _5  and  _11
REMARK    2  A    between atoms: _19  and  _21
REMARK    3  A    between atoms: _22  and  _66
REMARK    4  A    between atoms: _27  and  _30
REMARK    5  A    between atoms: _32  and  _33
REMARK    6  A    between atoms: _38  and  _43
REMARK    7  A    between atoms: _43  and  _46
REMARK    8  A    between atoms: _53  and  _55
REMARK                            x       y       z     vdW  Elec       q    Type
REMARK                         _______ _______ _______ _____ _____    ______ ____
ROOT
ATOM     10  C   UNL     1      11.842   9.067  -1.218  0.00  0.00    +0.038 A 
ATOM     11  C   UNL     1      11.607   9.577   0.085  0.00  0.00    +0.047 A 
ATOM     12  C   UNL     1      12.261   8.998   1.249  0.00  0.00    +0.035 A 
ATOM     32  C   UNL     1      13.151   7.903   1.049  0.00  0.00    +0.024 A 
ATOM     33  C   UNL     1      13.401   7.372  -0.268  0.00  0.00    +0.007 A 
ATOM     34  C   UNL     1      12.757   7.937  -1.420  0.00  0.00    -0.029 A 
ATOM     35  C   UNL     1      13.057   7.323  -2.807  0.00  0.00    +0.045 C 
ENDROOT
BRANCH  10   9
ATOM      4  C   UNL     1      11.640  12.223  -4.828  0.00  0.00    +0.077 A 
ATOM      5  C   UNL     1      12.936  12.753  -4.516  0.00  0.00    +0.048 A 
ATOM      6  C   UNL     1      13.619  12.190  -3.415  0.00  0.00    +0.116 A 
ATOM      7  N   UNL     1      13.039  11.174  -2.687  0.00  0.00    -0.223 NA
ATOM      8  C   UNL     1      11.787  10.688  -3.013  0.00  0.00    +0.220 A 
ATOM      9  N   UNL     1      11.188   9.661  -2.299  0.00  0.00    -0.283 N 
ATOM     36  H   UNL     1      10.259   9.335  -2.567  0.00  0.00    +0.155 HD
ATOM     37  N   UNL     1      11.113  11.209  -4.060  0.00  0.00    -0.214 NA
BRANCH   4   3
ATOM      1  C   UNL     1       9.203  12.343  -7.886  0.00  0.00    +0.020 A 
ATOM      2  C   UNL     1      10.002  11.820  -6.801  0.00  0.00    +0.013 A 
ATOM      3  C   UNL     1      10.795  12.711  -5.964  0.00  0.00    +0.019 A 
ATOM     38  C   UNL     1      10.758  14.137  -6.253  0.00  0.00    +0.120 A 
ATOM     39  N   UNL     1       9.980  14.611  -7.305  0.00  0.00    -0.263 NA
ATOM     40  C   UNL     1       9.214  13.763  -8.118  0.00  0.00    +0.111 A 
ENDBRANCH   4   3
ENDBRANCH  10   9
BRANCH  12  13
ATOM     13  N   UNL     1      12.054   9.468   2.596  0.00  0.00    -0.281 N 
ATOM     14  C   UNL     1      12.643  10.557   3.218  0.00  0.00    +0.248 C 
ATOM     30  O   UNL     1      13.604  11.169   2.776  0.00  0.00    -0.270 OA
ATOM     31  H   UNL     1      11.393   8.933   3.160  0.00  0.00    +0.155 HD
BRANCH  14  15
ATOM     15  C   UNL     1      12.096  11.023   4.528  0.00  0.00    +0.037 A 
ATOM     16  C   UNL     1      10.652  11.099   4.764  0.00  0.00    +0.013 A 
ATOM     17  C   UNL     1      10.150  11.569   6.031  0.00  0.00    +0.005 A 
ATOM     18  C   UNL     1      11.094  11.966   7.073  0.00  0.00    -0.033 A 
ATOM     28  C   UNL     1      12.521  11.875   6.814  0.00  0.00    +0.005 A 
ATOM     29  C   UNL     1      13.017  11.416   5.573  0.00  0.00    +0.013 A 
BRANCH  18  19
ATOM     19  C   UNL     1      10.648  12.499   8.447  0.00  0.00    +0.119 C 
BRANCH  19  20
ATOM     20  N   UNL     1      11.017  11.690   9.647  0.00  0.00    -0.302 NA
ATOM     21  C   UNL     1      12.310  12.187  10.299  0.00  0.00    +0.066 C 
ATOM     22  C   UNL     1      12.670  11.344  11.566  0.00  0.00    -0.064 C 
ATOM     23  N   UNL     1      12.791   9.870  11.177  0.00  0.00    +0.379 N 
ATOM     24  C   UNL     1      13.186   9.082  12.354  0.00  0.00    -0.096 C 
ATOM     25  H   UNL     1      13.609   9.786  10.423  0.00  0.00    -0.082 HD
ATOM     26  C   UNL     1      11.510   9.368  10.525  0.00  0.00    -0.064 C 
ATOM     27  C   UNL     1      11.147  10.231   9.284  0.00  0.00    +0.066 C 
ENDBRANCH  19  20
ENDBRANCH  18  19
ENDBRANCH  14  15
ENDBRANCH  12  13
TORSDOF 6
ENDMDL
MODEL 4
REMARK VINA RESULT:      -7.6     26.423     29.245
REMARK  Name = C:\Users\Docking\Desktop\test protocol\1iep_ligandH.pdb
REMARK  8 active torsions:
REMARK  status: ('A' for Active; 'I' for Inactive)
REMARK    1  A    between atoms: _5  and  _11
REMARK    2  A    between atoms: _19  and  _21
REMARK    3  A    between atoms: _22  and  _66
REMARK    4  A    between atoms: _27  and  _30
REMARK    5  A    between atoms: _32  and  _33
REMARK    6  A    between atoms: _38  and  _43
REMARK    7  A    between atoms: _43  and  _46
REMARK    8  A    between atoms: _53  and  _55
REMARK                            x       y       z     vdW  Elec       q    Type
REMARK                         _______ _______ _______ _____ _____    ______ ____
ROOT
ATOM     10  C   UNL     1       3.487 -18.969  -2.978  0.00  0.00    +0.038 A 
ATOM     11  C   UNL     1       3.321 -17.711  -2.345  0.00  0.00    +0.047 A 
ATOM     12  C   UNL     1       4.469 -16.910  -1.951  0.00  0.00    +0.035 A 
ATOM     32  C   UNL     1       5.773 -17.420  -2.218  0.00  0.00    +0.024 A 
ATOM     33  C   UNL     1       5.960 -18.698  -2.860  0.00  0.00    +0.007 A 
ATOM     34  C   UNL     1       4.831 -19.493  -3.249  0.00  0.00    -0.029 A 
ATOM     35  C   UNL     1       5.091 -20.859  -3.927  0.00  0.00    +0.045 C 
ENDROOT
BRANCH  10   9
ATOM      4  C   UNL     1      -0.042 -20.073  -6.038  0.00  0.00    +0.077 A 
ATOM      5  C   UNL     1       0.402 -19.100  -6.994  0.00  0.00    +0.048 A 
ATOM      6  C   UNL     1       1.539 -18.331  -6.657  0.00  0.00    +0.116 A 
ATOM      7  N   UNL     1       2.175 -18.529  -5.451  0.00  0.00    -0.223 NA
ATOM      8  C   UNL     1       1.720 -19.475  -4.551  0.00  0.00    +0.220 A 
ATOM      9  N   UNL     1       2.349 -19.696  -3.335  0.00  0.00    -0.283 N 
ATOM     36  H   UNL     1       1.978 -20.398  -2.696  0.00  0.00    +0.155 HD
ATOM     37  N   UNL     1       0.636 -20.221  -4.848  0.00  0.00    -0.214 NA
BRANCH   4   3
ATOM      1  C   UNL     1      -3.600 -21.392  -6.991  0.00  0.00    +0.020 A 
ATOM      2  C   UNL     1      -2.487 -20.489  -6.806  0.00  0.00    +0.013 A 
ATOM      3  C   UNL     1      -1.226 -20.965  -6.251  0.00  0.00    +0.019 A 
ATOM     38  C   UNL     1      -1.123 -22.371  -5.892  0.00  0.00    +0.120 A 
ATOM     39  N   UNL     1      -2.212 -23.217  -6.080  0.00  0.00    -0.263 NA
ATOM     40  C   UNL     1      -3.431 -22.770  -6.612  0.00  0.00    +0.111 A 
ENDBRANCH   4   3
ENDBRANCH  10   9
BRANCH  12  13
ATOM     13  N   UNL     1       4.363 -15.628  -1.298  0.00  0.00    -0.281 N 
ATOM     14  C   UNL     1       4.722 -15.301  -0.001  0.00  0.00    +0.248 C 
ATOM     30  O   UNL     1       4.994 -16.116   0.868  0.00  0.00    -0.270 OA
ATOM     31  H   UNL     1       3.975 -14.871  -1.861  0.00  0.00    +0.155 HD
BRANCH  14  15
ATOM     15  C   UNL     1       4.774 -13.860   0.392  0.00  0.00    +0.037 A 
ATOM     16  C   UNL     1       4.321 -12.807  -0.520  0.00  0.00    +0.013 A 
ATOM     17  C   UNL     1       4.397 -11.423  -0.123  0.00  0.00    +0.005 A 
ATOM     18  C   UNL     1       4.928 -11.085   1.196  0.00  0.00    -0.033 A 
ATOM     28  C   UNL     1       5.365 -12.150   2.083  0.00  0.00    +0.005 A 
ATOM     29  C   UNL     1       5.293 -13.507   1.696  0.00  0.00    +0.013 A 
BRANCH  18  19
ATOM     19  C   UNL     1       5.066  -9.635   1.695  0.00  0.00    +0.119 C 
BRANCH  19  20
ATOM     20  N   UNL     1       5.633  -9.433   3.062  0.00  0.00    -0.302 NA
ATOM     21  C   UNL     1       4.854  -8.383   3.858  0.00  0.00    +0.066 C 
ATOM     22  C   UNL     1       5.447  -8.201   5.293  0.00  0.00    -0.064 C 
ATOM     23  N   UNL     1       6.923  -7.814   5.187  0.00  0.00    +0.379 N 
ATOM     24  C   UNL     1       7.468  -7.586   6.533  0.00  0.00    -0.096 C 
ATOM     25  H   UNL     1       6.981  -6.850   4.630  0.00  0.00    -0.082 HD
ATOM     26  C   UNL     1       7.705  -8.852   4.394  0.00  0.00    -0.064 C 
ATOM     27  C   UNL     1       7.089  -9.047   2.980  0.00  0.00    +0.066 C 
ENDBRANCH  19  20
ENDBRANCH  18  19
ENDBRANCH  14  15
ENDBRANCH  12  13
TORSDOF 6
ENDMDL
MODEL 5
REMARK VINA RESULT:      -7.6      7.123     14.383
REMARK  Name = C:\Users\Docking\Desktop\test protocol\1iep_ligandH.pdb
REMARK  8 active torsions:
REMARK  status: ('A' for Active; 'I' for Inactive)
REMARK    1  A    between atoms: _5  and  _11
REMARK    2  A    between atoms: _19  and  _21
REMARK    3  A    between atoms: _22  and  _66
REMARK    4  A    between atoms: _27  and  _30
REMARK    5  A    between atoms: _32  and  _33
REMARK    6  A    between atoms: _38  and  _43
REMARK    7  A    between atoms: _43  and  _46
REMARK    8  A    between atoms: _53  and  _55
REMARK                            x       y       z     vdW  Elec       q    Type
REMARK                         _______ _______ _______ _____ _____    ______ ____
ROOT
ATOM     10  C   UNL     1      12.714  12.464  -5.868  0.00  0.00    +0.038 A 
ATOM     11  C   UNL     1      11.595  12.435  -6.739  0.00  0.00    +0.047 A 
ATOM     12  C   UNL     1      11.104  13.648  -7.374  0.00  0.00    +0.035 A 
ATOM     32  C   UNL     1      11.780  14.874  -7.102  0.00  0.00    +0.024 A 
ATOM     33  C   UNL     1      12.918  14.921  -6.219  0.00  0.00    +0.007 A 
ATOM     34  C   UNL     1      13.405  13.728  -5.588  0.00  0.00    -0.029 A 
ATOM     35  C   UNL     1      14.626  13.839  -4.645  0.00  0.00    +0.045 C 
ENDROOT
BRANCH  10   9
ATOM      4  C   UNL     1      12.455   9.078  -2.476  0.00  0.00    +0.077 A 
ATOM      5  C   UNL     1      11.394   9.760  -1.793  0.00  0.00    +0.048 A 
ATOM      6  C   UNL     1      10.949  10.983  -2.343  0.00  0.00    +0.116 A 
ATOM      7  N   UNL     1      11.528  11.477  -3.491  0.00  0.00    -0.223 NA
ATOM      8  C   UNL     1      12.551  10.795  -4.125  0.00  0.00    +0.220 A 
ATOM      9  N   UNL     1      13.142  11.269  -5.285  0.00  0.00    -0.283 N 
ATOM     36  H   UNL     1      13.899  10.740  -5.718  0.00  0.00    +0.155 HD
ATOM     37  N   UNL     1      12.995   9.625  -3.619  0.00  0.00    -0.214 NA
BRANCH   4   3
ATOM      1  C   UNL     1      13.851   5.424  -2.436  0.00  0.00    +0.020 A 
ATOM      2  C   UNL     1      13.292   6.663  -2.927  0.00  0.00    +0.013 A 
ATOM      3  C   UNL     1      13.032   7.774  -2.020  0.00  0.00    +0.019 A 
ATOM     38  C   UNL     1      13.351   7.598  -0.611  0.00  0.00    +0.120 A 
ATOM     39  N   UNL     1      13.886   6.393  -0.167  0.00  0.00    -0.263 NA
ATOM     40  C   UNL     1      14.140   5.317  -1.030  0.00  0.00    +0.111 A 
ENDBRANCH   4   3
ENDBRANCH  10   9
BRANCH  12  13
ATOM     13  N   UNL     1       9.968  13.682  -8.261  0.00  0.00    -0.281 N 
ATOM     14  C   UNL     1       8.678  14.101  -7.977  0.00  0.00    +0.248 C 
ATOM     30  O   UNL     1       8.252  14.312  -6.851  0.00  0.00    -0.270 OA
ATOM     31  H   UNL     1      10.134  13.357  -9.213  0.00  0.00    +0.155 HD
BRANCH  14  15
ATOM     15  C   UNL     1       7.719  14.302  -9.106  0.00  0.00    +0.037 A 
ATOM     16  C   UNL     1       8.165  14.247 -10.500  0.00  0.00    +0.013 A 
ATOM     17  C   UNL     1       7.222  14.461 -11.570  0.00  0.00    +0.005 A 
ATOM     18  C   UNL     1       5.823  14.730 -11.248  0.00  0.00    -0.033 A 
ATOM     28  C   UNL     1       5.407  14.773  -9.856  0.00  0.00    +0.005 A 
ATOM     29  C   UNL     1       6.328  14.565  -8.805  0.00  0.00    +0.013 A 
BRANCH  18  19
ATOM     19  C   UNL     1       4.752  14.990 -12.324  0.00  0.00    +0.119 C 
BRANCH  19  20
ATOM     20  N   UNL     1       3.407  14.378 -12.113  0.00  0.00    -0.302 NA
ATOM     21  C   UNL     1       3.166  13.186 -13.044  0.00  0.00    +0.066 C 
ATOM     22  C   UNL     1       1.763  12.543 -12.794  0.00  0.00    -0.064 C 
ATOM     23  N   UNL     1       0.678  13.605 -12.981  0.00  0.00    +0.379 N 
ATOM     24  C   UNL     1      -0.646  12.990 -12.803  0.00  0.00    -0.096 C 
ATOM     25  H   UNL     1       0.742  13.973 -14.031  0.00  0.00    -0.082 HD
ATOM     26  C   UNL     1       0.911  14.794 -12.060  0.00  0.00    -0.064 C 
ATOM     27  C   UNL     1       2.320  15.408 -12.296  0.00  0.00    +0.066 C 
ENDBRANCH  19  20
ENDBRANCH  18  19
ENDBRANCH  14  15
ENDBRANCH  12  13
TORSDOF 6
ENDMDL
