MODEL 1
REMARK VINA RESULT:      -8.2      0.000      0.000
REMARK  Name = C:\Users\Docking\Desktop\test protocol\1iep_ligandH.pdb
REMARK  8 active torsions:
REMARK  status: ('A' for Active; 'I' for Inactive)
REMARK    1  A    between atoms: _5  and  _11
REMARK    2  A    between atoms: _19  and  _21
REMARK    3  A    between atoms: _22  and  _66
REMARK    4  A    between atoms: _27  and  _30
REMARK    5  A    between atoms: _32  and  _33
REMARK    6  A    between atoms: _38  and  _43
REMARK    7  A    between atoms: _43  and  _46
REMARK    8  A    between atoms: _53  and  _55
REMARK                            x       y       z     vdW  Elec       q    Type
REMARK                         _______ _______ _______ _____ _____    ______ ____
ROOT
ATOM     10  C   UNL     1     -10.493  24.078  25.350  0.00  0.00    +0.038 A 
ATOM     11  C   UNL     1     -10.258  23.001  26.243  0.00  0.00    +0.047 A 
ATOM     12  C   UNL     1      -9.787  21.712  25.760  0.00  0.00    +0.035 A 
ATOM     32  C   UNL     1      -9.563  21.556  24.361  0.00  0.00    +0.024 A 
ATOM     33  C   UNL     1      -9.798  22.639  23.440  0.00  0.00    +0.007 A 
ATOM     34  C   UNL     1     -10.265  23.912  23.910  0.00  0.00    -0.029 A 
ATOM     35  C   UNL     1     -10.506  25.036  22.875  0.00  0.00    +0.045 C 
ENDROOT
BRANCH  10   9
ATOM      4  C   UNL     1     -13.988  27.201  26.383  0.00  0.00    +0.077 A 
ATOM      5  C   UNL     1     -14.996  26.350  25.819  0.00  0.00    +0.048 A 
ATOM      6  C   UNL     1     -14.573  25.120  25.267  0.00  0.00    +0.116 A 
ATOM      7  N   UNL     1     -13.238  24.777  25.283  0.00  0.00    -0.223 NA
ATOM      8  C   UNL     1     -12.292  25.622  25.834  0.00  0.00    +0.220 A 
ATOM      9  N   UNL     1     -10.945  25.294  25.868  0.00  0.00    -0.283 N 
ATOM     36  H   UNL     1     -10.277  25.947  26.277  0.00  0.00    +0.155 HD
ATOM     37  N   UNL     1     -12.670  26.802  26.366  0.00  0.00    -0.214 NA
BRANCH   4   3
ATOM      1  C   UNL     1     -14.011  31.034  27.164  0.00  0.00    +0.020 A 
ATOM      2  C   UNL     1     -13.697  29.776  26.525  0.00  0.00    +0.013 A 
ATOM      3  C   UNL     1     -14.279  28.530  27.008  0.00  0.00    +0.019 A 
ATOM     38  C   UNL     1     -15.183  28.592  28.147  0.00  0.00    +0.120 A 
ATOM     39  N   UNL     1     -15.465  29.817  28.742  0.00  0.00    -0.263 NA
ATOM     40  C   UNL     1     -14.910  31.022  28.288  0.00  0.00    +0.111 A 
ENDBRANCH   4   3
ENDBRANCH  10   9
BRANCH  12  13
ATOM     13  N   UNL     1      -9.539  20.580  26.618  0.00  0.00    -0.281 N 
ATOM     14  C   UNL     1     -10.197  19.362  26.633  0.00  0.00    +0.248 C 
ATOM     30  O   UNL     1     -11.247  19.137  26.049  0.00  0.00    -0.270 OA
ATOM     31  H   UNL     1      -8.786  20.691  27.298  0.00  0.00    +0.155 HD
BRANCH  14  15
ATOM     15  C   UNL     1      -9.613  18.234  27.421  0.00  0.00    +0.037 A 
ATOM     16  C   UNL     1      -8.271  17.721  27.133  0.00  0.00    +0.013 A 
ATOM     17  C   UNL     1      -7.738  16.621  27.897  0.00  0.00    +0.005 A 
ATOM     18  C   UNL     1      -8.547  16.028  28.958  0.00  0.00    -0.033 A 
ATOM     28  C   UNL     1      -9.873  16.560  29.227  0.00  0.00    +0.005 A 
ATOM     29  C   UNL     1     -10.399  17.637  28.479  0.00  0.00    +0.013 A 
BRANCH  18  19
ATOM     19  C   UNL     1      -8.067  14.838  29.810  0.00  0.00    +0.119 C 
BRANCH  19  20
ATOM     20  N   UNL     1      -6.592  14.645  29.946  0.00  0.00    -0.302 NA
ATOM     21  C   UNL     1      -6.089  13.461  29.115  0.00  0.00    +0.066 C 
ATOM     22  C   UNL     1      -4.541  13.287  29.250  0.00  0.00    -0.064 C 
ATOM     23  N   UNL     1      -4.178  13.107  30.725  0.00  0.00    +0.379 N 
ATOM     24  C   UNL     1      -2.730  12.886  30.851  0.00  0.00    -0.096 C 
ATOM     25  H   UNL     1      -4.694  12.189  31.091  0.00  0.00    -0.082 HD
ATOM     26  C   UNL     1      -4.677  14.279  31.559  0.00  0.00    -0.064 C 
ATOM     27  C   UNL     1      -6.212  14.461  31.394  0.00  0.00    +0.066 C 
ENDBRANCH  19  20
ENDBRANCH  18  19
ENDBRANCH  14  15
ENDBRANCH  12  13
TORSDOF 6
ENDMDL
MODEL 2
REMARK VINA RESULT:      -8.1      2.912     13.835
REMARK  Name = C:\Users\Docking\Desktop\test protocol\1iep_ligandH.pdb
REMARK  8 active torsions:
REMARK  status: ('A' for Active; 'I' for Inactive)
REMARK    1  A    between atoms: _5  and  _11
REMARK    2  A    between atoms: _19  and  _21
REMARK    3  A    between atoms: _22  and  _66
REMARK    4  A    between atoms: _27  and  _30
REMARK    5  A    between atoms: _32  and  _33
REMARK    6  A    between atoms: _38  and  _43
REMARK    7  A    between atoms: _43  and  _46
REMARK    8  A    between atoms: _53  and  _55
REMARK                            x       y       z     vdW  Elec       q    Type
REMARK                         _______ _______ _______ _____ _____    ______ ____
ROOT
ATOM     10  C   UNL     1     -12.146  22.706  25.343  0.00  0.00    +0.038 A 
ATOM     11  C   UNL     1     -12.245  23.969  25.981  0.00  0.00    +0.047 A 
ATOM     12  C   UNL     1     -12.947  25.077  25.352  0.00  0.00    +0.035 A 
ATOM     32  C   UNL     1     -13.539  24.863  24.073  0.00  0.00    +0.024 A 
ATOM     33  C   UNL     1     -13.447  23.586  23.410  0.00  0.00    +0.007 A 
ATOM     34  C   UNL     1     -12.754  22.490  24.025  0.00  0.00    -0.029 A 
ATOM     35  C   UNL     1     -12.681  21.145  23.264  0.00  0.00    +0.045 C 
ENDROOT
BRANCH  10   9
ATOM      4  C   UNL     1      -8.279  19.933  25.970  0.00  0.00    +0.077 A 
ATOM      5  C   UNL     1      -7.575  20.570  24.895  0.00  0.00    +0.048 A 
ATOM      6  C   UNL     1      -8.246  21.602  24.201  0.00  0.00    +0.116 A 
ATOM      7  N   UNL     1      -9.525  21.962  24.565  0.00  0.00    -0.223 NA
ATOM      8  C   UNL     1     -10.177  21.326  25.605  0.00  0.00    +0.220 A 
ATOM      9  N   UNL     1     -11.461  21.677  25.993  0.00  0.00    -0.283 N 
ATOM     36  H   UNL     1     -11.910  21.179  26.761  0.00  0.00    +0.155 HD
ATOM     37  N   UNL     1      -9.558  20.336  26.283  0.00  0.00    -0.214 NA
BRANCH   4   3
ATOM      1  C   UNL     1      -5.770  17.464  27.676  0.00  0.00    +0.020 A 
ATOM      2  C   UNL     1      -6.275  18.543  26.858  0.00  0.00    +0.013 A 
ATOM      3  C   UNL     1      -7.703  18.828  26.800  0.00  0.00    +0.019 A 
ATOM     38  C   UNL     1      -8.600  17.997  27.589  0.00  0.00    +0.120 A 
ATOM     39  N   UNL     1      -8.085  16.964  28.366  0.00  0.00    -0.263 NA
ATOM     40  C   UNL     1      -6.713  16.679  28.428  0.00  0.00    +0.111 A 
ENDBRANCH   4   3
ENDBRANCH  10   9
BRANCH  12  13
ATOM     13  N   UNL     1     -13.073  26.384  25.948  0.00  0.00    -0.281 N 
ATOM     14  C   UNL     1     -14.199  26.955  26.517  0.00  0.00    +0.248 C 
ATOM     30  O   UNL     1     -15.331  26.509  26.407  0.00  0.00    -0.270 OA
ATOM     31  H   UNL     1     -12.229  26.957  25.952  0.00  0.00    +0.155 HD
BRANCH  14  15
ATOM     15  C   UNL     1     -14.049  28.213  27.310  0.00  0.00    +0.037 A 
ATOM     16  C   UNL     1     -15.113  28.681  28.202  0.00  0.00    +0.013 A 
ATOM     17  C   UNL     1     -14.948  29.907  28.943  0.00  0.00    +0.005 A 
ATOM     18  C   UNL     1     -13.713  30.672  28.796  0.00  0.00    -0.033 A 
ATOM     28  C   UNL     1     -12.671  30.182  27.908  0.00  0.00    +0.005 A 
ATOM     29  C   UNL     1     -12.829  28.982  27.180  0.00  0.00    +0.013 A 
BRANCH  18  19
ATOM     19  C   UNL     1     -13.460  32.002  29.532  0.00  0.00    +0.119 C 
BRANCH  19  20
ATOM     20  N   UNL     1     -14.658  32.790  29.949  0.00  0.00    -0.302 NA
ATOM     21  C   UNL     1     -15.107  33.771  28.862  0.00  0.00    +0.066 C 
ATOM     22  C   UNL     1     -16.374  34.572  29.307  0.00  0.00    -0.064 C 
ATOM     23  N   UNL     1     -16.076  35.310  30.613  0.00  0.00    +0.379 N 
ATOM     24  C   UNL     1     -17.246  36.110  31.003  0.00  0.00    -0.096 C 
ATOM     25  H   UNL     1     -15.234  36.015  30.418  0.00  0.00    -0.082 HD
ATOM     26  C   UNL     1     -15.625  34.343  31.698  0.00  0.00    -0.064 C 
ATOM     27  C   UNL     1     -14.383  33.531  31.235  0.00  0.00    +0.066 C 
ENDBRANCH  19  20
ENDBRANCH  18  19
ENDBRANCH  14  15
ENDBRANCH  12  13
TORSDOF 6
ENDMDL
MODEL 3
REMARK VINA RESULT:      -7.8      2.249      3.172
REMARK  Name = C:\Users\Docking\Desktop\test protocol\1iep_ligandH.pdb
REMARK  8 active torsions:
REMARK  status: ('A' for Active; 'I' for Inactive)
REMARK    1  A    between atoms: _5  and  _11
REMARK    2  A    between atoms: _19  and  _21
REMARK    3  A    between atoms: _22  and  _66
REMARK    4  A    between atoms: _27  and  _30
REMARK    5  A    between atoms: _32  and  _33
REMARK    6  A    between atoms: _38  and  _43
REMARK    7  A    between atoms: _43  and  _46
REMARK    8  A    between atoms: _53  and  _55
REMARK                            x       y       z     vdW  Elec       q    Type
REMARK                         _______ _______ _______ _____ _____    ______ ____
ROOT
ATOM     10  C   UNL     1     -10.645  24.031  25.049  0.00  0.00    +0.038 A 
ATOM     11  C   UNL     1     -10.447  22.846  25.802  0.00  0.00    +0.047 A 
ATOM     12  C   UNL     1     -10.081  21.595  25.156  0.00  0.00    +0.035 A 
ATOM     32  C   UNL     1      -9.922  21.588  23.739  0.00  0.00    +0.024 A 
ATOM     33  C   UNL     1     -10.120  22.784  22.958  0.00  0.00    +0.007 A 
ATOM     34  C   UNL     1     -10.484  24.019  23.590  0.00  0.00    -0.029 A 
ATOM     35  C   UNL     1     -10.690  25.268  22.701  0.00  0.00    +0.045 C 
ENDROOT
BRANCH  10   9
ATOM      4  C   UNL     1     -13.878  27.247  26.546  0.00  0.00    +0.077 A 
ATOM      5  C   UNL     1     -14.957  26.545  25.912  0.00  0.00    +0.048 A 
ATOM      6  C   UNL     1     -14.636  25.365  25.205  0.00  0.00    +0.116 A 
ATOM      7  N   UNL     1     -13.331  24.928  25.143  0.00  0.00    -0.223 NA
ATOM      8  C   UNL     1     -12.314  25.629  25.764  0.00  0.00    +0.220 A 
ATOM      9  N   UNL     1     -10.995  25.204  25.721  0.00  0.00    -0.283 N 
ATOM     36  H   UNL     1     -10.273  25.753  26.186  0.00  0.00    +0.155 HD
ATOM     37  N   UNL     1     -12.594  26.760  26.444  0.00  0.00    -0.214 NA
BRANCH   4   3
ATOM      1  C   UNL     1     -14.956  30.845  27.637  0.00  0.00    +0.020 A 
ATOM      2  C   UNL     1     -14.813  29.651  26.837  0.00  0.00    +0.013 A 
ATOM      3  C   UNL     1     -14.057  28.508  27.333  0.00  0.00    +0.019 A 
ATOM     38  C   UNL     1     -13.455  28.606  28.654  0.00  0.00    +0.120 A 
ATOM     39  N   UNL     1     -13.608  29.769  29.402  0.00  0.00    -0.263 NA
ATOM     40  C   UNL     1     -14.332  30.876  28.933  0.00  0.00    +0.111 A 
ENDBRANCH   4   3
ENDBRANCH  10   9
BRANCH  12  13
ATOM     13  N   UNL     1      -9.874  20.359  25.868  0.00  0.00    -0.281 N 
ATOM     14  C   UNL     1      -8.676  19.714  26.126  0.00  0.00    +0.248 C 
ATOM     30  O   UNL     1      -7.611  19.996  25.596  0.00  0.00    -0.270 OA
ATOM     31  H   UNL     1     -10.714  19.903  26.225  0.00  0.00    +0.155 HD
BRANCH  14  15
ATOM     15  C   UNL     1      -8.659  18.584  27.104  0.00  0.00    +0.037 A 
ATOM     16  C   UNL     1      -7.412  17.901  27.456  0.00  0.00    +0.013 A 
ATOM     17  C   UNL     1      -7.427  16.803  28.389  0.00  0.00    +0.005 A 
ATOM     18  C   UNL     1      -8.695  16.381  28.978  0.00  0.00    -0.033 A 
ATOM     28  C   UNL     1      -9.917  17.080  28.616  0.00  0.00    +0.005 A 
ATOM     29  C   UNL     1      -9.907  18.156  27.701  0.00  0.00    +0.013 A 
BRANCH  18  19
ATOM     19  C   UNL     1      -8.808  15.205  29.967  0.00  0.00    +0.119 C 
BRANCH  19  20
ATOM     20  N   UNL     1      -9.866  15.294  31.017  0.00  0.00    -0.302 NA
ATOM     21  C   UNL     1      -9.272  15.338  32.428  0.00  0.00    +0.066 C 
ATOM     22  C   UNL     1     -10.392  15.454  33.513  0.00  0.00    -0.064 C 
ATOM     23  N   UNL     1     -11.361  14.279  33.369  0.00  0.00    +0.379 N 
ATOM     24  C   UNL     1     -12.382  14.353  34.425  0.00  0.00    -0.096 C 
ATOM     25  H   UNL     1     -10.780  13.340  33.526  0.00  0.00    -0.082 HD
ATOM     26  C   UNL     1     -11.954  14.226  31.968  0.00  0.00    -0.064 C 
ATOM     27  C   UNL     1     -10.832  14.141  30.896  0.00  0.00    +0.066 C 
ENDBRANCH  19  20
ENDBRANCH  18  19
ENDBRANCH  14  15
ENDBRANCH  12  13
TORSDOF 6
ENDMDL
MODEL 4
REMARK VINA RESULT:      -7.8     12.700     15.129
REMARK  Name = C:\Users\Docking\Desktop\test protocol\1iep_ligandH.pdb
REMARK  8 active torsions:
REMARK  status: ('A' for Active; 'I' for Inactive)
REMARK    1  A    between atoms: _5  and  _11
REMARK    2  A    between atoms: _19  and  _21
REMARK    3  A    between atoms: _22  and  _66
REMARK    4  A    between atoms: _27  and  _30
REMARK    5  A    between atoms: _32  and  _33
REMARK    6  A    between atoms: _38  and  _43
REMARK    7  A    between atoms: _43  and  _46
REMARK    8  A    between atoms: _53  and  _55
REMARK                            x       y       z     vdW  Elec       q    Type
REMARK                         _______ _______ _______ _____ _____    ______ ____
ROOT
ATOM     10  C   UNL     1     -16.623  34.804  27.888  0.00  0.00    +0.038 A 
ATOM     11  C   UNL     1     -16.302  34.085  26.708  0.00  0.00    +0.047 A 
ATOM     12  C   UNL     1     -17.317  33.784  25.711  0.00  0.00    +0.035 A 
ATOM     32  C   UNL     1     -18.650  34.232  25.946  0.00  0.00    +0.024 A 
ATOM     33  C   UNL     1     -18.994  34.962  27.141  0.00  0.00    +0.007 A 
ATOM     34  C   UNL     1     -17.997  35.260  28.129  0.00  0.00    -0.029 A 
ATOM     35  C   UNL     1     -18.425  36.041  29.394  0.00  0.00    +0.045 C 
ENDROOT
BRANCH  10   9
ATOM      4  C   UNL     1     -13.220  33.374  30.955  0.00  0.00    +0.077 A 
ATOM      5  C   UNL     1     -13.504  31.989  30.717  0.00  0.00    +0.048 A 
ATOM      6  C   UNL     1     -14.538  31.686  29.804  0.00  0.00    +0.116 A 
ATOM      7  N   UNL     1     -15.230  32.702  29.180  0.00  0.00    -0.223 NA
ATOM      8  C   UNL     1     -14.932  34.028  29.433  0.00  0.00    +0.220 A 
ATOM      9  N   UNL     1     -15.609  35.066  28.812  0.00  0.00    -0.283 N 
ATOM     36  H   UNL     1     -15.364  36.031  29.031  0.00  0.00    +0.155 HD
ATOM     37  N   UNL     1     -13.949  34.343  30.303  0.00  0.00    -0.214 NA
BRANCH   4   3
ATOM      1  C   UNL     1      -9.747  34.067  32.618  0.00  0.00    +0.020 A 
ATOM      2  C   UNL     1     -10.737  33.581  31.684  0.00  0.00    +0.013 A 
ATOM      3  C   UNL     1     -12.154  33.854  31.891  0.00  0.00    +0.019 A 
ATOM     38  C   UNL     1     -12.539  34.629  33.060  0.00  0.00    +0.120 A 
ATOM     39  N   UNL     1     -11.563  35.084  33.943  0.00  0.00    -0.263 NA
ATOM     40  C   UNL     1     -10.197  34.825  33.755  0.00  0.00    +0.111 A 
ENDBRANCH   4   3
ENDBRANCH  10   9
BRANCH  12  13
ATOM     13  N   UNL     1     -17.052  33.051  24.497  0.00  0.00    -0.281 N 
ATOM     14  C   UNL     1     -17.488  31.781  24.157  0.00  0.00    +0.248 C 
ATOM     30  O   UNL     1     -17.998  30.992  24.939  0.00  0.00    -0.270 OA
ATOM     31  H   UNL     1     -16.473  33.527  23.805  0.00  0.00    +0.155 HD
BRANCH  14  15
ATOM     15  C   UNL     1     -17.319  31.313  22.748  0.00  0.00    +0.037 A 
ATOM     16  C   UNL     1     -18.052  30.150  22.240  0.00  0.00    +0.013 A 
ATOM     17  C   UNL     1     -17.858  29.710  20.881  0.00  0.00    +0.005 A 
ATOM     18  C   UNL     1     -16.926  30.434  20.020  0.00  0.00    -0.033 A 
ATOM     28  C   UNL     1     -16.216  31.587  20.548  0.00  0.00    +0.005 A 
ATOM     29  C   UNL     1     -16.403  32.021  21.879  0.00  0.00    +0.013 A 
BRANCH  18  19
ATOM     19  C   UNL     1     -16.641  30.022  18.563  0.00  0.00    +0.119 C 
BRANCH  19  20
ATOM     20  N   UNL     1     -15.365  29.294  18.296  0.00  0.00    -0.302 NA
ATOM     21  C   UNL     1     -14.882  29.490  16.857  0.00  0.00    +0.066 C 
ATOM     22  C   UNL     1     -13.534  28.740  16.601  0.00  0.00    -0.064 C 
ATOM     23  N   UNL     1     -13.714  27.253  16.914  0.00  0.00    +0.379 N 
ATOM     24  C   UNL     1     -12.466  26.535  16.619  0.00  0.00    -0.096 C 
ATOM     25  H   UNL     1     -14.502  26.857  16.231  0.00  0.00    -0.082 HD
ATOM     26  C   UNL     1     -14.197  27.049  18.343  0.00  0.00    -0.064 C 
ATOM     27  C   UNL     1     -15.522  27.823  18.595  0.00  0.00    +0.066 C 
ENDBRANCH  19  20
ENDBRANCH  18  19
ENDBRANCH  14  15
ENDBRANCH  12  13
TORSDOF 6
ENDMDL
MODEL 5
REMARK VINA RESULT:      -7.6      3.926     13.979
REMARK  Name = C:\Users\Docking\Desktop\test protocol\1iep_ligandH.pdb
REMARK  8 active torsions:
REMARK  status: ('A' for Active; 'I' for Inactive)
REMARK    1  A    between atoms: _5  and  _11
REMARK    2  A    between atoms: _19  and  _21
REMARK    3  A    between atoms: _22  and  _66
REMARK    4  A    between atoms: _27  and  _30
REMARK    5  A    between atoms: _32  and  _33
REMARK    6  A    between atoms: _38  and  _43
REMARK    7  A    between atoms: _43  and  _46
REMARK    8  A    between atoms: _53  and  _55
REMARK                            x       y       z     vdW  Elec       q    Type
REMARK                         _______ _______ _______ _____ _____    ______ ____
ROOT
ATOM     10  C   UNL     1      -9.090  15.598  28.998  0.00  0.00    +0.038 A 
ATOM     11  C   UNL     1      -8.992  16.701  28.112  0.00  0.00    +0.047 A 
ATOM     12  C   UNL     1      -9.882  17.845  28.233  0.00  0.00    +0.035 A 
ATOM     32  C   UNL     1     -10.858  17.834  29.272  0.00  0.00    +0.024 A 
ATOM     33  C   UNL     1     -10.972  16.721  30.182  0.00  0.00    +0.007 A 
ATOM     34  C   UNL     1     -10.099  15.589  30.065  0.00  0.00    -0.029 A 
ATOM     35  C   UNL     1     -10.270  14.421  31.063  0.00  0.00    +0.045 C 
ENDROOT
BRANCH  10   9
ATOM      4  C   UNL     1      -5.150  13.135  30.204  0.00  0.00    +0.077 A 
ATOM      5  C   UNL     1      -4.802  14.079  31.227  0.00  0.00    +0.048 A 
ATOM      6  C   UNL     1      -5.658  15.188  31.406  0.00  0.00    +0.116 A 
ATOM      7  N   UNL     1      -6.778  15.333  30.615  0.00  0.00    -0.223 NA
ATOM      8  C   UNL     1      -7.085  14.405  29.637  0.00  0.00    +0.220 A 
ATOM      9  N   UNL     1      -8.210  14.526  28.836  0.00  0.00    -0.283 N 
ATOM     36  H   UNL     1      -8.397  13.824  28.120  0.00  0.00    +0.155 HD
ATOM     37  N   UNL     1      -6.282  13.338  29.445  0.00  0.00    -0.214 NA
BRANCH   4   3
ATOM      1  C   UNL     1      -2.217  10.749  29.203  0.00  0.00    +0.020 A 
ATOM      2  C   UNL     1      -2.949  11.962  29.488  0.00  0.00    +0.013 A 
ATOM      3  C   UNL     1      -4.347  11.910  29.897  0.00  0.00    +0.019 A 
ATOM     38  C   UNL     1      -4.980  10.605  30.009  0.00  0.00    +0.120 A 
ATOM     39  N   UNL     1      -4.251   9.454  29.727  0.00  0.00    -0.263 NA
ATOM     40  C   UNL     1      -2.905   9.492  29.331  0.00  0.00    +0.111 A 
ENDBRANCH   4   3
ENDBRANCH  10   9
BRANCH  12  13
ATOM     13  N   UNL     1      -9.836  18.990  27.357  0.00  0.00    -0.281 N 
ATOM     14  C   UNL     1     -10.633  19.251  26.255  0.00  0.00    +0.248 C 
ATOM     30  O   UNL     1     -11.370  18.433  25.725  0.00  0.00    -0.270 OA
ATOM     31  H   UNL     1      -9.130  19.692  27.577  0.00  0.00    +0.155 HD
BRANCH  14  15
ATOM     15  C   UNL     1     -10.595  20.614  25.643  0.00  0.00    +0.037 A 
ATOM     16  C   UNL     1     -11.827  21.329  25.303  0.00  0.00    +0.013 A 
ATOM     17  C   UNL     1     -11.762  22.636  24.698  0.00  0.00    +0.005 A 
ATOM     18  C   UNL     1     -10.458  23.237  24.431  0.00  0.00    -0.033 A 
ATOM     28  C   UNL     1      -9.251  22.508  24.784  0.00  0.00    +0.005 A 
ATOM     29  C   UNL     1      -9.311  21.226  25.376  0.00  0.00    +0.013 A 
BRANCH  18  19
ATOM     19  C   UNL     1     -10.293  24.618  23.770  0.00  0.00    +0.119 C 
BRANCH  19  20
ATOM     20  N   UNL     1      -9.900  24.644  22.329  0.00  0.00    -0.302 NA
ATOM     21  C   UNL     1      -9.345  26.008  21.909  0.00  0.00    +0.066 C 
ATOM     22  C   UNL     1      -8.918  26.010  20.405  0.00  0.00    -0.064 C 
ATOM     23  N   UNL     1     -10.116  25.622  19.537  0.00  0.00    +0.379 N 
ATOM     24  C   UNL     1      -9.732  25.679  18.119  0.00  0.00    -0.096 C 
ATOM     25  H   UNL     1     -10.914  26.382  19.703  0.00  0.00    -0.082 HD
ATOM     26  C   UNL     1     -10.675  24.267  19.950  0.00  0.00    -0.064 C 
ATOM     27  C   UNL     1     -11.069  24.267  21.453  0.00  0.00    +0.066 C 
ENDBRANCH  19  20
ENDBRANCH  18  19
ENDBRANCH  14  15
ENDBRANCH  12  13
TORSDOF 6
ENDMDL
