MODEL 1
REMARK VINA RESULT:      -8.0      0.000      0.000
REMARK  Name = C:\Users\Docking\Desktop\test protocol\1iep_ligandH.pdb
REMARK  8 active torsions:
REMARK  status: ('A' for Active; 'I' for Inactive)
REMARK    1  A    between atoms: _5  and  _11
REMARK    2  A    between atoms: _19  and  _21
REMARK    3  A    between atoms: _22  and  _66
REMARK    4  A    between atoms: _27  and  _30
REMARK    5  A    between atoms: _32  and  _33
REMARK    6  A    between atoms: _38  and  _43
REMARK    7  A    between atoms: _43  and  _46
REMARK    8  A    between atoms: _53  and  _55
REMARK                            x       y       z     vdW  Elec       q    Type
REMARK                         _______ _______ _______ _____ _____    ______ ____
ROOT
ATOM     10  C   UNL     1      20.450  25.072   3.418  0.00  0.00    +0.038 A 
ATOM     11  C   UNL     1      19.167  24.856   3.982  0.00  0.00    +0.047 A 
ATOM     12  C   UNL     1      18.537  23.546   3.938  0.00  0.00    +0.035 A 
ATOM     32  C   UNL     1      19.243  22.477   3.315  0.00  0.00    +0.024 A 
ATOM     33  C   UNL     1      20.548  22.678   2.736  0.00  0.00    +0.007 A 
ATOM     34  C   UNL     1      21.174  23.969   2.774  0.00  0.00    -0.029 A 
ATOM     35  C   UNL     1      22.571  24.130   2.131  0.00  0.00    +0.045 C 
ENDROOT
BRANCH  10   9
ATOM      4  C   UNL     1      21.535  29.329   1.484  0.00  0.00    +0.077 A 
ATOM      5  C   UNL     1      20.966  28.965   0.219  0.00  0.00    +0.048 A 
ATOM      6  C   UNL     1      20.410  27.671   0.105  0.00  0.00    +0.116 A 
ATOM      7  N   UNL     1      20.428  26.813   1.183  0.00  0.00    -0.223 NA
ATOM      8  C   UNL     1      20.987  27.194   2.389  0.00  0.00    +0.220 A 
ATOM      9  N   UNL     1      21.009  26.350   3.488  0.00  0.00    -0.283 N 
ATOM     36  H   UNL     1      21.437  26.666   4.358  0.00  0.00    +0.155 HD
ATOM     37  N   UNL     1      21.525  28.424   2.523  0.00  0.00    -0.214 NA
BRANCH   4   3
ATOM      1  C   UNL     1      23.756  32.538   1.226  0.00  0.00    +0.020 A 
ATOM      2  C   UNL     1      23.188  31.247   0.914  0.00  0.00    +0.013 A 
ATOM      3  C   UNL     1      22.158  30.662   1.762  0.00  0.00    +0.019 A 
ATOM     38  C   UNL     1      21.720  31.415   2.927  0.00  0.00    +0.120 A 
ATOM     39  N   UNL     1      22.286  32.656   3.204  0.00  0.00    -0.263 NA
ATOM     40  C   UNL     1      23.280  33.228   2.396  0.00  0.00    +0.111 A 
ENDBRANCH   4   3
ENDBRANCH  10   9
BRANCH  12  13
ATOM     13  N   UNL     1      17.232  23.269   4.487  0.00  0.00    -0.281 N 
ATOM     14  C   UNL     1      16.927  22.624   5.674  0.00  0.00    +0.248 C 
ATOM     30  O   UNL     1      17.731  21.995   6.346  0.00  0.00    -0.270 OA
ATOM     31  H   UNL     1      16.437  23.586   3.932  0.00  0.00    +0.155 HD
BRANCH  14  15
ATOM     15  C   UNL     1      15.522  22.673   6.182  0.00  0.00    +0.037 A 
ATOM     16  C   UNL     1      14.444  23.258   5.381  0.00  0.00    +0.013 A 
ATOM     17  C   UNL     1      13.101  23.308   5.901  0.00  0.00    +0.005 A 
ATOM     18  C   UNL     1      12.828  22.768   7.231  0.00  0.00    -0.033 A 
ATOM     28  C   UNL     1      13.915  22.189   8.003  0.00  0.00    +0.005 A 
ATOM     29  C   UNL     1      15.233  22.139   7.496  0.00  0.00    +0.013 A 
BRANCH  18  19
ATOM     19  C   UNL     1      11.429  22.798   7.875  0.00  0.00    +0.119 C 
BRANCH  19  20
ATOM     20  N   UNL     1      10.621  24.042   7.697  0.00  0.00    -0.302 NA
ATOM     21  C   UNL     1       9.865  24.422   8.973  0.00  0.00    +0.066 C 
ATOM     22  C   UNL     1       9.043  25.738   8.777  0.00  0.00    -0.064 C 
ATOM     23  N   UNL     1       8.075  25.561   7.605  0.00  0.00    +0.379 N 
ATOM     24  C   UNL     1       7.260  26.775   7.455  0.00  0.00    -0.096 C 
ATOM     25  H   UNL     1       7.387  24.721   7.859  0.00  0.00    -0.082 HD
ATOM     26  C   UNL     1       8.819  25.180   6.333  0.00  0.00    -0.064 C 
ATOM     27  C   UNL     1       9.656  23.888   6.548  0.00  0.00    +0.066 C 
ENDBRANCH  19  20
ENDBRANCH  18  19
ENDBRANCH  14  15
ENDBRANCH  12  13
TORSDOF 6
ENDMDL
MODEL 2
REMARK VINA RESULT:      -8.0      1.469      2.278
REMARK  Name = C:\Users\Docking\Desktop\test protocol\1iep_ligandH.pdb
REMARK  8 active torsions:
REMARK  status: ('A' for Active; 'I' for Inactive)
REMARK    1  A    between atoms: _5  and  _11
REMARK    2  A    between atoms: _19  and  _21
REMARK    3  A    between atoms: _22  and  _66
REMARK    4  A    between atoms: _27  and  _30
REMARK    5  A    between atoms: _32  and  _33
REMARK    6  A    between atoms: _38  and  _43
REMARK    7  A    between atoms: _43  and  _46
REMARK    8  A    between atoms: _53  and  _55
REMARK                            x       y       z     vdW  Elec       q    Type
REMARK                         _______ _______ _______ _____ _____    ______ ____
ROOT
ATOM     10  C   UNL     1      20.305  25.166   3.133  0.00  0.00    +0.038 A 
ATOM     11  C   UNL     1      18.982  25.019   3.622  0.00  0.00    +0.047 A 
ATOM     12  C   UNL     1      18.262  23.763   3.477  0.00  0.00    +0.035 A 
ATOM     32  C   UNL     1      18.921  22.677   2.831  0.00  0.00    +0.024 A 
ATOM     33  C   UNL     1      20.266  22.810   2.327  0.00  0.00    +0.007 A 
ATOM     34  C   UNL     1      20.980  24.047   2.465  0.00  0.00    -0.029 A 
ATOM     35  C   UNL     1      22.417  24.134   1.899  0.00  0.00    +0.045 C 
ENDROOT
BRANCH  10   9
ATOM      4  C   UNL     1      21.698  29.467   1.520  0.00  0.00    +0.077 A 
ATOM      5  C   UNL     1      21.116  29.238   0.230  0.00  0.00    +0.048 A 
ATOM      6  C   UNL     1      20.473  27.997   0.019  0.00  0.00    +0.116 A 
ATOM      7  N   UNL     1      20.423  27.063   1.031  0.00  0.00    -0.223 NA
ATOM      8  C   UNL     1      20.996  27.316   2.264  0.00  0.00    +0.220 A 
ATOM      9  N   UNL     1      20.950  26.394   3.298  0.00  0.00    -0.283 N 
ATOM     36  H   UNL     1      21.391  26.616   4.191  0.00  0.00    +0.155 HD
ATOM     37  N   UNL     1      21.617  28.492   2.489  0.00  0.00    -0.214 NA
BRANCH   4   3
ATOM      1  C   UNL     1      22.971  32.581   3.517  0.00  0.00    +0.020 A 
ATOM      2  C   UNL     1      22.262  31.362   3.203  0.00  0.00    +0.013 A 
ATOM      3  C   UNL     1      22.408  30.730   1.897  0.00  0.00    +0.019 A 
ATOM     38  C   UNL     1      23.287  31.362   0.925  0.00  0.00    +0.120 A 
ATOM     39  N   UNL     1      23.956  32.537   1.255  0.00  0.00    -0.263 NA
ATOM     40  C   UNL     1      23.822  33.155   2.507  0.00  0.00    +0.111 A 
ENDBRANCH   4   3
ENDBRANCH  10   9
BRANCH  12  13
ATOM     13  N   UNL     1      16.915  23.557   3.947  0.00  0.00    -0.281 N 
ATOM     14  C   UNL     1      16.507  23.020   5.157  0.00  0.00    +0.248 C 
ATOM     30  O   UNL     1      17.245  22.436   5.937  0.00  0.00    -0.270 OA
ATOM     31  H   UNL     1      16.171  23.841   3.309  0.00  0.00    +0.155 HD
BRANCH  14  15
ATOM     15  C   UNL     1      15.071  23.137   5.552  0.00  0.00    +0.037 A 
ATOM     16  C   UNL     1      14.627  22.812   6.910  0.00  0.00    +0.013 A 
ATOM     17  C   UNL     1      13.232  22.916   7.259  0.00  0.00    +0.005 A 
ATOM     18  C   UNL     1      12.271  23.351   6.248  0.00  0.00    -0.033 A 
ATOM     28  C   UNL     1      12.740  23.672   4.910  0.00  0.00    +0.005 A 
ATOM     29  C   UNL     1      14.105  23.569   4.564  0.00  0.00    +0.013 A 
BRANCH  18  19
ATOM     19  C   UNL     1      10.761  23.471   6.527  0.00  0.00    +0.119 C 
BRANCH  19  20
ATOM     20  N   UNL     1      10.234  22.789   7.746  0.00  0.00    -0.302 NA
ATOM     21  C   UNL     1       9.989  21.296   7.510  0.00  0.00    +0.066 C 
ATOM     22  C   UNL     1       9.460  20.594   8.803  0.00  0.00    -0.064 C 
ATOM     23  N   UNL     1       8.177  21.287   9.267  0.00  0.00    +0.379 N 
ATOM     24  C   UNL     1       7.645  20.593  10.449  0.00  0.00    -0.096 C 
ATOM     25  H   UNL     1       7.426  21.188   8.449  0.00  0.00    -0.082 HD
ATOM     26  C   UNL     1       8.411  22.772   9.502  0.00  0.00    -0.064 C 
ATOM     27  C   UNL     1       8.965  23.454   8.220  0.00  0.00    +0.066 C 
ENDBRANCH  19  20
ENDBRANCH  18  19
ENDBRANCH  14  15
ENDBRANCH  12  13
TORSDOF 6
ENDMDL
MODEL 3
REMARK VINA RESULT:      -7.9      2.164     12.117
REMARK  Name = C:\Users\Docking\Desktop\test protocol\1iep_ligandH.pdb
REMARK  8 active torsions:
REMARK  status: ('A' for Active; 'I' for Inactive)
REMARK    1  A    between atoms: _5  and  _11
REMARK    2  A    between atoms: _19  and  _21
REMARK    3  A    between atoms: _22  and  _66
REMARK    4  A    between atoms: _27  and  _30
REMARK    5  A    between atoms: _32  and  _33
REMARK    6  A    between atoms: _38  and  _43
REMARK    7  A    between atoms: _43  and  _46
REMARK    8  A    between atoms: _53  and  _55
REMARK                            x       y       z     vdW  Elec       q    Type
REMARK                         _______ _______ _______ _____ _____    ______ ____
ROOT
ATOM     10  C   UNL     1      11.598  22.665   7.927  0.00  0.00    +0.038 A 
ATOM     11  C   UNL     1      12.855  22.888   7.311  0.00  0.00    +0.047 A 
ATOM     12  C   UNL     1      14.075  22.318   7.861  0.00  0.00    +0.035 A 
ATOM     32  C   UNL     1      13.977  21.523   9.040  0.00  0.00    +0.024 A 
ATOM     33  C   UNL     1      12.707  21.287   9.681  0.00  0.00    +0.007 A 
ATOM     34  C   UNL     1      11.501  21.849   9.144  0.00  0.00    -0.029 A 
ATOM     35  C   UNL     1      10.168  21.568   9.876  0.00  0.00    +0.045 C 
ENDROOT
BRANCH  10   9
ATOM      4  C   UNL     1       8.576  26.337   7.278  0.00  0.00    +0.077 A 
ATOM      5  C   UNL     1       9.315  27.180   8.173  0.00  0.00    +0.048 A 
ATOM      6  C   UNL     1      10.462  26.629   8.786  0.00  0.00    +0.116 A 
ATOM      7  N   UNL     1      10.834  25.329   8.516  0.00  0.00    -0.223 NA
ATOM      8  C   UNL     1      10.098  24.543   7.648  0.00  0.00    +0.220 A 
ATOM      9  N   UNL     1      10.458  23.236   7.356  0.00  0.00    -0.283 N 
ATOM     36  H   UNL     1       9.885  22.686   6.717  0.00  0.00    +0.155 HD
ATOM     37  N   UNL     1       8.998  25.046   7.052  0.00  0.00    -0.214 NA
BRANCH   4   3
ATOM      1  C   UNL     1       4.858  27.188   6.409  0.00  0.00    +0.020 A 
ATOM      2  C   UNL     1       6.016  26.751   7.154  0.00  0.00    +0.013 A 
ATOM      3  C   UNL     1       7.343  26.777   6.551  0.00  0.00    +0.019 A 
ATOM     38  C   UNL     1       7.465  27.255   5.182  0.00  0.00    +0.120 A 
ATOM     39  N   UNL     1       6.331  27.668   4.488  0.00  0.00    -0.263 NA
ATOM     40  C   UNL     1       5.049  27.645   5.057  0.00  0.00    +0.111 A 
ENDBRANCH   4   3
ENDBRANCH  10   9
BRANCH  12  13
ATOM     13  N   UNL     1      15.381  22.517   7.283  0.00  0.00    -0.281 N 
ATOM     14  C   UNL     1      15.909  21.924   6.148  0.00  0.00    +0.248 C 
ATOM     30  O   UNL     1      15.413  20.966   5.574  0.00  0.00    -0.270 OA
ATOM     31  H   UNL     1      15.990  23.175   7.770  0.00  0.00    +0.155 HD
BRANCH  14  15
ATOM     15  C   UNL     1      17.179  22.465   5.576  0.00  0.00    +0.037 A 
ATOM     16  C   UNL     1      18.468  21.821   5.844  0.00  0.00    +0.013 A 
ATOM     17  C   UNL     1      19.681  22.373   5.294  0.00  0.00    +0.005 A 
ATOM     18  C   UNL     1      19.610  23.576   4.467  0.00  0.00    -0.033 A 
ATOM     28  C   UNL     1      18.318  24.191   4.212  0.00  0.00    +0.005 A 
ATOM     29  C   UNL     1      17.127  23.653   4.751  0.00  0.00    +0.013 A 
BRANCH  18  19
ATOM     19  C   UNL     1      20.855  24.245   3.856  0.00  0.00    +0.119 C 
BRANCH  19  20
ATOM     20  N   UNL     1      20.628  25.273   2.797  0.00  0.00    -0.302 NA
ATOM     21  C   UNL     1      21.801  25.355   1.816  0.00  0.00    +0.066 C 
ATOM     22  C   UNL     1      21.537  26.419   0.701  0.00  0.00    -0.064 C 
ATOM     23  N   UNL     1      21.277  27.779   1.349  0.00  0.00    +0.379 N 
ATOM     24  C   UNL     1      21.086  28.794   0.302  0.00  0.00    -0.096 C 
ATOM     25  H   UNL     1      22.189  28.058   1.928  0.00  0.00    -0.082 HD
ATOM     26  C   UNL     1      20.114  27.706   2.328  0.00  0.00    -0.064 C 
ATOM     27  C   UNL     1      20.374  26.626   3.415  0.00  0.00    +0.066 C 
ENDBRANCH  19  20
ENDBRANCH  18  19
ENDBRANCH  14  15
ENDBRANCH  12  13
TORSDOF 6
ENDMDL
MODEL 4
REMARK VINA RESULT:      -7.8      3.501     12.435
REMARK  Name = C:\Users\Docking\Desktop\test protocol\1iep_ligandH.pdb
REMARK  8 active torsions:
REMARK  status: ('A' for Active; 'I' for Inactive)
REMARK    1  A    between atoms: _5  and  _11
REMARK    2  A    between atoms: _19  and  _21
REMARK    3  A    between atoms: _22  and  _66
REMARK    4  A    between atoms: _27  and  _30
REMARK    5  A    between atoms: _32  and  _33
REMARK    6  A    between atoms: _38  and  _43
REMARK    7  A    between atoms: _43  and  _46
REMARK    8  A    between atoms: _53  and  _55
REMARK                            x       y       z     vdW  Elec       q    Type
REMARK                         _______ _______ _______ _____ _____    ______ ____
ROOT
ATOM     10  C   UNL     1      12.175  22.933   7.340  0.00  0.00    +0.038 A 
ATOM     11  C   UNL     1      13.445  23.278   6.811  0.00  0.00    +0.047 A 
ATOM     12  C   UNL     1      14.669  22.736   7.378  0.00  0.00    +0.035 A 
ATOM     32  C   UNL     1      14.564  21.841   8.482  0.00  0.00    +0.024 A 
ATOM     33  C   UNL     1      13.282  21.480   9.034  0.00  0.00    +0.007 A 
ATOM     34  C   UNL     1      12.070  22.014   8.480  0.00  0.00    -0.029 A 
ATOM     35  C   UNL     1      10.724  21.597   9.116  0.00  0.00    +0.045 C 
ENDROOT
BRANCH  10   9
ATOM      4  C   UNL     1       8.838  26.364   6.986  0.00  0.00    +0.077 A 
ATOM      5  C   UNL     1       9.405  27.110   8.072  0.00  0.00    +0.048 A 
ATOM      6  C   UNL     1      10.551  26.572   8.700  0.00  0.00    +0.116 A 
ATOM      7  N   UNL     1      11.082  25.378   8.265  0.00  0.00    -0.223 NA
ATOM      8  C   UNL     1      10.510  24.683   7.216  0.00  0.00    +0.220 A 
ATOM      9  N   UNL     1      11.032  23.483   6.757  0.00  0.00    -0.283 N 
ATOM     36  H   UNL     1      10.576  22.997   5.985  0.00  0.00    +0.155 HD
ATOM     37  N   UNL     1       9.414  25.174   6.600  0.00  0.00    -0.214 NA
BRANCH   4   3
ATOM      1  C   UNL     1       5.172  27.346   6.039  0.00  0.00    +0.020 A 
ATOM      2  C   UNL     1       6.307  26.917   6.823  0.00  0.00    +0.013 A 
ATOM      3  C   UNL     1       7.629  26.803   6.220  0.00  0.00    +0.019 A 
ATOM     38  C   UNL     1       7.769  27.134   4.810  0.00  0.00    +0.120 A 
ATOM     39  N   UNL     1       6.658  27.543   4.079  0.00  0.00    -0.263 NA
ATOM     40  C   UNL     1       5.380  27.655   4.649  0.00  0.00    +0.111 A 
ENDBRANCH   4   3
ENDBRANCH  10   9
BRANCH  12  13
ATOM     13  N   UNL     1      15.987  23.057   6.888  0.00  0.00    -0.281 N 
ATOM     14  C   UNL     1      16.793  22.300   6.053  0.00  0.00    +0.248 C 
ATOM     30  O   UNL     1      16.589  21.128   5.772  0.00  0.00    -0.270 OA
ATOM     31  H   UNL     1      16.372  23.951   7.193  0.00  0.00    +0.155 HD
BRANCH  14  15
ATOM     15  C   UNL     1      18.009  22.932   5.457  0.00  0.00    +0.037 A 
ATOM     16  C   UNL     1      17.957  24.271   4.864  0.00  0.00    +0.013 A 
ATOM     17  C   UNL     1      19.141  24.850   4.280  0.00  0.00    +0.005 A 
ATOM     18  C   UNL     1      20.388  24.089   4.287  0.00  0.00    -0.033 A 
ATOM     28  C   UNL     1      20.413  22.765   4.886  0.00  0.00    +0.005 A 
ATOM     29  C   UNL     1      19.255  22.194   5.459  0.00  0.00    +0.013 A 
BRANCH  18  19
ATOM     19  C   UNL     1      21.695  24.620   3.668  0.00  0.00    +0.119 C 
BRANCH  19  20
ATOM     20  N   UNL     1      22.108  24.050   2.351  0.00  0.00    -0.302 NA
ATOM     21  C   UNL     1      23.232  23.020   2.497  0.00  0.00    +0.066 C 
ATOM     22  C   UNL     1      23.636  22.418   1.112  0.00  0.00    -0.064 C 
ATOM     23  N   UNL     1      24.056  23.548   0.171  0.00  0.00    +0.379 N 
ATOM     24  C   UNL     1      24.492  22.980  -1.113  0.00  0.00    -0.096 C 
ATOM     25  H   UNL     1      24.934  24.060   0.630  0.00  0.00    -0.082 HD
ATOM     26  C   UNL     1      22.946  24.578   0.022  0.00  0.00    -0.064 C 
ATOM     27  C   UNL     1      22.531  25.148   1.407  0.00  0.00    +0.066 C 
ENDBRANCH  19  20
ENDBRANCH  18  19
ENDBRANCH  14  15
ENDBRANCH  12  13
TORSDOF 6
ENDMDL
MODEL 5
REMARK VINA RESULT:      -7.8      3.728      7.841
REMARK  Name = C:\Users\Docking\Desktop\test protocol\1iep_ligandH.pdb
REMARK  8 active torsions:
REMARK  status: ('A' for Active; 'I' for Inactive)
REMARK    1  A    between atoms: _5  and  _11
REMARK    2  A    between atoms: _19  and  _21
REMARK    3  A    between atoms: _22  and  _66
REMARK    4  A    between atoms: _27  and  _30
REMARK    5  A    between atoms: _32  and  _33
REMARK    6  A    between atoms: _38  and  _43
REMARK    7  A    between atoms: _43  and  _46
REMARK    8  A    between atoms: _53  and  _55
REMARK                            x       y       z     vdW  Elec       q    Type
REMARK                         _______ _______ _______ _____ _____    ______ ____
ROOT
ATOM     10  C   UNL     1      14.313  22.849   7.346  0.00  0.00    +0.038 A 
ATOM     11  C   UNL     1      13.143  23.603   7.074  0.00  0.00    +0.047 A 
ATOM     12  C   UNL     1      11.838  23.161   7.539  0.00  0.00    +0.035 A 
ATOM     32  C   UNL     1      11.761  21.946   8.281  0.00  0.00    +0.024 A 
ATOM     33  C   UNL     1      12.940  21.166   8.565  0.00  0.00    +0.007 A 
ATOM     34  C   UNL     1      14.230  21.596   8.107  0.00  0.00    -0.029 A 
ATOM     35  C   UNL     1      15.459  20.717   8.436  0.00  0.00    +0.045 C 
ENDROOT
BRANCH  10   9
ATOM      4  C   UNL     1      17.563  23.454   3.867  0.00  0.00    +0.077 A 
ATOM      5  C   UNL     1      16.759  22.748   2.911  0.00  0.00    +0.048 A 
ATOM      6  C   UNL     1      15.519  22.238   3.357  0.00  0.00    +0.116 A 
ATOM      7  N   UNL     1      15.123  22.427   4.664  0.00  0.00    -0.223 NA
ATOM      8  C   UNL     1      15.923  23.112   5.560  0.00  0.00    +0.220 A 
ATOM      9  N   UNL     1      15.541  23.320   6.876  0.00  0.00    -0.283 N 
ATOM     36  H   UNL     1      16.163  23.824   7.508  0.00  0.00    +0.155 HD
ATOM     37  N   UNL     1      17.112  23.607   5.159  0.00  0.00    -0.214 NA
BRANCH   4   3
ATOM      1  C   UNL     1      20.729  25.752   3.902  0.00  0.00    +0.020 A 
ATOM      2  C   UNL     1      19.435  25.212   4.250  0.00  0.00    +0.013 A 
ATOM      3  C   UNL     1      18.897  24.054   3.546  0.00  0.00    +0.019 A 
ATOM     38  C   UNL     1      19.700  23.462   2.487  0.00  0.00    +0.120 A 
ATOM     39  N   UNL     1      20.942  24.005   2.173  0.00  0.00    -0.263 NA
ATOM     40  C   UNL     1      21.469  25.120   2.842  0.00  0.00    +0.111 A 
ENDBRANCH   4   3
ENDBRANCH  10   9
BRANCH  12  13
ATOM     13  N   UNL     1      10.614  23.881   7.286  0.00  0.00    -0.281 N 
ATOM     14  C   UNL     1      10.254  25.136   7.748  0.00  0.00    +0.248 C 
ATOM     30  O   UNL     1      10.845  25.745   8.628  0.00  0.00    -0.270 OA
ATOM     31  H   UNL     1       9.931  23.407   6.696  0.00  0.00    +0.155 HD
BRANCH  14  15
ATOM     15  C   UNL     1       9.057  25.807   7.157  0.00  0.00    +0.037 A 
ATOM     16  C   UNL     1       8.986  26.112   5.725  0.00  0.00    +0.013 A 
ATOM     17  C   UNL     1       7.826  26.774   5.184  0.00  0.00    +0.005 A 
ATOM     18  C   UNL     1       6.726  27.136   6.075  0.00  0.00    -0.033 A 
ATOM     28  C   UNL     1       6.820  26.817   7.490  0.00  0.00    +0.005 A 
ATOM     29  C   UNL     1       7.956  26.168   8.024  0.00  0.00    +0.013 A 
BRANCH  18  19
ATOM     19  C   UNL     1       5.459  27.864   5.587  0.00  0.00    +0.119 C 
BRANCH  19  20
ATOM     20  N   UNL     1       4.328  27.989   6.554  0.00  0.00    -0.302 NA
ATOM     21  C   UNL     1       3.347  26.818   6.444  0.00  0.00    +0.066 C 
ATOM     22  C   UNL     1       2.181  26.954   7.477  0.00  0.00    -0.064 C 
ATOM     23  N   UNL     1       1.462  28.286   7.259  0.00  0.00    +0.379 N 
ATOM     24  C   UNL     1       0.330  28.390   8.191  0.00  0.00    -0.096 C 
ATOM     25  H   UNL     1       1.049  28.281   6.224  0.00  0.00    -0.082 HD
ATOM     26  C   UNL     1       2.431  29.455   7.364  0.00  0.00    -0.064 C 
ATOM     27  C   UNL     1       3.601  29.296   6.353  0.00  0.00    +0.066 C 
ENDBRANCH  19  20
ENDBRANCH  18  19
ENDBRANCH  14  15
ENDBRANCH  12  13
TORSDOF 6
ENDMDL
