MODEL 1
REMARK VINA RESULT:      -9.2      0.000      0.000
REMARK  Name = C:\Users\Docking\Desktop\test protocol\1iep_ligandH.pdb
REMARK  8 active torsions:
REMARK  status: ('A' for Active; 'I' for Inactive)
REMARK    1  A    between atoms: _5  and  _11
REMARK    2  A    between atoms: _19  and  _21
REMARK    3  A    between atoms: _22  and  _66
REMARK    4  A    between atoms: _27  and  _30
REMARK    5  A    between atoms: _32  and  _33
REMARK    6  A    between atoms: _38  and  _43
REMARK    7  A    between atoms: _43  and  _46
REMARK    8  A    between atoms: _53  and  _55
REMARK                            x       y       z     vdW  Elec       q    Type
REMARK                         _______ _______ _______ _____ _____    ______ ____
ROOT
ATOM     10  C   UNL     1      -6.527  23.514  26.860  0.00  0.00    +0.038 A 
ATOM     11  C   UNL     1      -6.195  22.513  27.809  0.00  0.00    +0.047 A 
ATOM     12  C   UNL     1      -6.691  21.153  27.672  0.00  0.00    +0.035 A 
ATOM     32  C   UNL     1      -7.522  20.846  26.555  0.00  0.00    +0.024 A 
ATOM     33  C   UNL     1      -7.870  21.851  25.582  0.00  0.00    +0.007 A 
ATOM     34  C   UNL     1      -7.385  23.196  25.713  0.00  0.00    -0.029 A 
ATOM     35  C   UNL     1      -7.796  24.234  24.644  0.00  0.00    +0.045 C 
ENDROOT
BRANCH  10   9
ATOM      4  C   UNL     1      -3.250  26.928  26.056  0.00  0.00    +0.077 A 
ATOM      5  C   UNL     1      -2.463  26.060  25.228  0.00  0.00    +0.048 A 
ATOM      6  C   UNL     1      -2.933  24.741  25.040  0.00  0.00    +0.116 A 
ATOM      7  N   UNL     1      -4.103  24.331  25.640  0.00  0.00    -0.223 NA
ATOM      8  C   UNL     1      -4.838  25.193  26.434  0.00  0.00    +0.220 A 
ATOM      9  N   UNL     1      -6.022  24.804  27.041  0.00  0.00    -0.283 N 
ATOM     36  H   UNL     1      -6.531  25.467  27.625  0.00  0.00    +0.155 HD
ATOM     37  N   UNL     1      -4.410  26.457  26.630  0.00  0.00    -0.214 NA
BRANCH   4   3
ATOM      1  C   UNL     1      -3.381  30.635  27.299  0.00  0.00    +0.020 A 
ATOM      2  C   UNL     1      -3.780  29.270  27.043  0.00  0.00    +0.013 A 
ATOM      3  C   UNL     1      -2.888  28.351  26.347  0.00  0.00    +0.019 A 
ATOM     38  C   UNL     1      -1.588  28.849  25.921  0.00  0.00    +0.120 A 
ATOM     39  N   UNL     1      -1.232  30.169  26.181  0.00  0.00    -0.263 NA
ATOM     40  C   UNL     1      -2.083  31.062  26.848  0.00  0.00    +0.111 A 
ENDBRANCH   4   3
ENDBRANCH  10   9
BRANCH  12  13
ATOM     13  N   UNL     1      -6.394  20.096  28.607  0.00  0.00    -0.281 N 
ATOM     14  C   UNL     1      -6.826  19.973  29.918  0.00  0.00    +0.248 C 
ATOM     30  O   UNL     1      -7.364  20.866  30.555  0.00  0.00    -0.270 OA
ATOM     31  H   UNL     1      -5.792  19.349  28.261  0.00  0.00    +0.155 HD
BRANCH  14  15
ATOM     15  C   UNL     1      -6.618  18.674  30.627  0.00  0.00    +0.037 A 
ATOM     16  C   UNL     1      -5.287  18.257  31.075  0.00  0.00    +0.013 A 
ATOM     17  C   UNL     1      -5.111  16.991  31.742  0.00  0.00    +0.005 A 
ATOM     18  C   UNL     1      -6.272  16.133  31.966  0.00  0.00    -0.033 A 
ATOM     28  C   UNL     1      -7.582  16.573  31.516  0.00  0.00    +0.005 A 
ATOM     29  C   UNL     1      -7.758  17.813  30.861  0.00  0.00    +0.013 A 
BRANCH  18  19
ATOM     19  C   UNL     1      -6.175  14.757  32.650  0.00  0.00    +0.119 C 
BRANCH  19  20
ATOM     20  N   UNL     1      -7.354  14.304  33.447  0.00  0.00    -0.302 NA
ATOM     21  C   UNL     1      -7.176  14.577  34.943  0.00  0.00    +0.066 C 
ATOM     22  C   UNL     1      -8.429  14.118  35.758  0.00  0.00    -0.064 C 
ATOM     23  N   UNL     1      -8.681  12.631  35.506  0.00  0.00    +0.379 N 
ATOM     24  C   UNL     1      -9.823  12.183  36.316  0.00  0.00    -0.096 C 
ATOM     25  H   UNL     1      -7.781  12.072  35.851  0.00  0.00    -0.082 HD
ATOM     26  C   UNL     1      -8.857  12.350  34.020  0.00  0.00    -0.064 C 
ATOM     27  C   UNL     1      -7.619  12.837  33.216  0.00  0.00    +0.066 C 
ENDBRANCH  19  20
ENDBRANCH  18  19
ENDBRANCH  14  15
ENDBRANCH  12  13
TORSDOF 6
ENDMDL
MODEL 2
REMARK VINA RESULT:      -9.0      1.441      2.077
REMARK  Name = C:\Users\Docking\Desktop\test protocol\1iep_ligandH.pdb
REMARK  8 active torsions:
REMARK  status: ('A' for Active; 'I' for Inactive)
REMARK    1  A    between atoms: _5  and  _11
REMARK    2  A    between atoms: _19  and  _21
REMARK    3  A    between atoms: _22  and  _66
REMARK    4  A    between atoms: _27  and  _30
REMARK    5  A    between atoms: _32  and  _33
REMARK    6  A    between atoms: _38  and  _43
REMARK    7  A    between atoms: _43  and  _46
REMARK    8  A    between atoms: _53  and  _55
REMARK                            x       y       z     vdW  Elec       q    Type
REMARK                         _______ _______ _______ _____ _____    ______ ____
ROOT
ATOM     10  C   UNL     1      -5.975  24.789  27.522  0.00  0.00    +0.038 A 
ATOM     11  C   UNL     1      -5.677  23.534  28.113  0.00  0.00    +0.047 A 
ATOM     12  C   UNL     1      -6.717  22.543  28.340  0.00  0.00    +0.035 A 
ATOM     32  C   UNL     1      -8.051  22.862  27.950  0.00  0.00    +0.024 A 
ATOM     33  C   UNL     1      -8.372  24.132  27.349  0.00  0.00    +0.007 A 
ATOM     34  C   UNL     1      -7.350  25.115  27.126  0.00  0.00    -0.029 A 
ATOM     35  C   UNL     1      -7.753  26.463  26.484  0.00  0.00    +0.045 C 
ENDROOT
BRANCH  10   9
ATOM      4  C   UNL     1      -2.341  26.583  24.951  0.00  0.00    +0.077 A 
ATOM      5  C   UNL     1      -2.506  25.598  23.920  0.00  0.00    +0.048 A 
ATOM      6  C   UNL     1      -3.534  24.644  24.094  0.00  0.00    +0.116 A 
ATOM      7  N   UNL     1      -4.330  24.681  25.218  0.00  0.00    -0.223 NA
ATOM      8  C   UNL     1      -4.143  25.642  26.193  0.00  0.00    +0.220 A 
ATOM      9  N   UNL     1      -4.937  25.703  27.328  0.00  0.00    -0.283 N 
ATOM     36  H   UNL     1      -4.763  26.423  28.028  0.00  0.00    +0.155 HD
ATOM     37  N   UNL     1      -3.168  26.564  26.052  0.00  0.00    -0.214 NA
BRANCH   4   3
ATOM      1  C   UNL     1       0.901  28.613  24.134  0.00  0.00    +0.020 A 
ATOM      2  C   UNL     1      -0.070  27.544  24.140  0.00  0.00    +0.013 A 
ATOM      3  C   UNL     1      -1.302  27.660  24.910  0.00  0.00    +0.019 A 
ATOM     38  C   UNL     1      -1.523  28.881  25.670  0.00  0.00    +0.120 A 
ATOM     39  N   UNL     1      -0.569  29.894  25.646  0.00  0.00    -0.263 NA
ATOM     40  C   UNL     1       0.621  29.793  24.910  0.00  0.00    +0.111 A 
ENDBRANCH   4   3
ENDBRANCH  10   9
BRANCH  12  13
ATOM     13  N   UNL     1      -6.475  21.255  28.942  0.00  0.00    -0.281 N 
ATOM     14  C   UNL     1      -6.606  20.901  30.275  0.00  0.00    +0.248 C 
ATOM     30  O   UNL     1      -6.746  21.698  31.192  0.00  0.00    -0.270 OA
ATOM     31  H   UNL     1      -6.171  20.515  28.310  0.00  0.00    +0.155 HD
BRANCH  14  15
ATOM     15  C   UNL     1      -6.560  19.454  30.646  0.00  0.00    +0.037 A 
ATOM     16  C   UNL     1      -7.742  18.598  30.514  0.00  0.00    +0.013 A 
ATOM     17  C   UNL     1      -7.675  17.209  30.895  0.00  0.00    +0.005 A 
ATOM     18  C   UNL     1      -6.420  16.667  31.409  0.00  0.00    -0.033 A 
ATOM     28  C   UNL     1      -5.261  17.537  31.524  0.00  0.00    +0.005 A 
ATOM     29  C   UNL     1      -5.323  18.899  31.154  0.00  0.00    +0.013 A 
BRANCH  18  19
ATOM     19  C   UNL     1      -6.263  15.203  31.859  0.00  0.00    +0.119 C 
BRANCH  19  20
ATOM     20  N   UNL     1      -7.375  14.611  32.662  0.00  0.00    -0.302 NA
ATOM     21  C   UNL     1      -7.357  15.097  34.114  0.00  0.00    +0.066 C 
ATOM     22  C   UNL     1      -8.540  14.486  34.933  0.00  0.00    -0.064 C 
ATOM     23  N   UNL     1      -8.465  12.960  34.872  0.00  0.00    +0.379 N 
ATOM     24  C   UNL     1      -9.542  12.382  35.689  0.00  0.00    -0.096 C 
ATOM     25  H   UNL     1      -7.494  12.651  35.325  0.00  0.00    -0.082 HD
ATOM     26  C   UNL     1      -8.479  12.468  33.432  0.00  0.00    -0.064 C 
ATOM     27  C   UNL     1      -7.317  13.104  32.619  0.00  0.00    +0.066 C 
ENDBRANCH  19  20
ENDBRANCH  18  19
ENDBRANCH  14  15
ENDBRANCH  12  13
TORSDOF 6
ENDMDL
MODEL 3
REMARK VINA RESULT:      -9.0      1.562      2.238
REMARK  Name = C:\Users\Docking\Desktop\test protocol\1iep_ligandH.pdb
REMARK  8 active torsions:
REMARK  status: ('A' for Active; 'I' for Inactive)
REMARK    1  A    between atoms: _5  and  _11
REMARK    2  A    between atoms: _19  and  _21
REMARK    3  A    between atoms: _22  and  _66
REMARK    4  A    between atoms: _27  and  _30
REMARK    5  A    between atoms: _32  and  _33
REMARK    6  A    between atoms: _38  and  _43
REMARK    7  A    between atoms: _43  and  _46
REMARK    8  A    between atoms: _53  and  _55
REMARK                            x       y       z     vdW  Elec       q    Type
REMARK                         _______ _______ _______ _____ _____    ______ ____
ROOT
ATOM     10  C   UNL     1      -6.592  23.543  26.887  0.00  0.00    +0.038 A 
ATOM     11  C   UNL     1      -6.256  22.601  27.893  0.00  0.00    +0.047 A 
ATOM     12  C   UNL     1      -6.720  21.225  27.821  0.00  0.00    +0.035 A 
ATOM     32  C   UNL     1      -7.523  20.840  26.708  0.00  0.00    +0.024 A 
ATOM     33  C   UNL     1      -7.875  21.784  25.677  0.00  0.00    +0.007 A 
ATOM     34  C   UNL     1      -7.422  23.144  25.744  0.00  0.00    -0.029 A 
ATOM     35  C   UNL     1      -7.836  24.115  24.613  0.00  0.00    +0.045 C 
ENDROOT
BRANCH  10   9
ATOM      4  C   UNL     1      -3.333  26.960  26.029  0.00  0.00    +0.077 A 
ATOM      5  C   UNL     1      -2.488  26.055  25.304  0.00  0.00    +0.048 A 
ATOM      6  C   UNL     1      -2.925  24.717  25.181  0.00  0.00    +0.116 A 
ATOM      7  N   UNL     1      -4.120  24.325  25.744  0.00  0.00    -0.223 NA
ATOM      8  C   UNL     1      -4.910  25.222  26.438  0.00  0.00    +0.220 A 
ATOM      9  N   UNL     1      -6.119  24.851  27.006  0.00  0.00    -0.283 N 
ATOM     36  H   UNL     1      -6.669  25.542  27.517  0.00  0.00    +0.155 HD
ATOM     37  N   UNL     1      -4.514  26.505  26.571  0.00  0.00    -0.214 NA
BRANCH   4   3
ATOM      1  C   UNL     1      -3.173  30.848  25.630  0.00  0.00    +0.020 A 
ATOM      2  C   UNL     1      -3.515  29.467  25.380  0.00  0.00    +0.013 A 
ATOM      3  C   UNL     1      -3.009  28.406  26.242  0.00  0.00    +0.019 A 
ATOM     38  C   UNL     1      -2.154  28.780  27.358  0.00  0.00    +0.120 A 
ATOM     39  N   UNL     1      -1.840  30.119  27.574  0.00  0.00    -0.263 NA
ATOM     40  C   UNL     1      -2.320  31.148  26.749  0.00  0.00    +0.111 A 
ENDBRANCH   4   3
ENDBRANCH  10   9
BRANCH  12  13
ATOM     13  N   UNL     1      -6.417  20.227  28.816  0.00  0.00    -0.281 N 
ATOM     14  C   UNL     1      -7.229  19.775  29.844  0.00  0.00    +0.248 C 
ATOM     30  O   UNL     1      -8.267  20.318  30.194  0.00  0.00    -0.270 OA
ATOM     31  H   UNL     1      -5.492  19.801  28.756  0.00  0.00    +0.155 HD
BRANCH  14  15
ATOM     15  C   UNL     1      -6.823  18.553  30.601  0.00  0.00    +0.037 A 
ATOM     16  C   UNL     1      -5.427  18.326  30.987  0.00  0.00    +0.013 A 
ATOM     17  C   UNL     1      -5.059  17.130  31.702  0.00  0.00    +0.005 A 
ATOM     18  C   UNL     1      -6.090  16.151  32.039  0.00  0.00    -0.033 A 
ATOM     28  C   UNL     1      -7.468  16.403  31.649  0.00  0.00    +0.005 A 
ATOM     29  C   UNL     1      -7.832  17.574  30.946  0.00  0.00    +0.013 A 
BRANCH  18  19
ATOM     19  C   UNL     1      -5.785  14.837  32.782  0.00  0.00    +0.119 C 
BRANCH  19  20
ATOM     20  N   UNL     1      -5.827  13.575  31.984  0.00  0.00    -0.302 NA
ATOM     21  C   UNL     1      -6.675  12.495  32.662  0.00  0.00    +0.066 C 
ATOM     22  C   UNL     1      -6.726  11.190  31.804  0.00  0.00    -0.064 C 
ATOM     23  N   UNL     1      -5.302  10.687  31.560  0.00  0.00    +0.379 N 
ATOM     24  C   UNL     1      -5.350   9.428  30.802  0.00  0.00    -0.096 C 
ATOM     25  H   UNL     1      -4.847  10.467  32.553  0.00  0.00    -0.082 HD
ATOM     26  C   UNL     1      -4.452  11.755  30.889  0.00  0.00    -0.064 C 
ATOM     27  C   UNL     1      -4.431  13.058  31.735  0.00  0.00    +0.066 C 
ENDBRANCH  19  20
ENDBRANCH  18  19
ENDBRANCH  14  15
ENDBRANCH  12  13
TORSDOF 6
ENDMDL
MODEL 4
REMARK VINA RESULT:      -9.0      2.893      4.272
REMARK  Name = C:\Users\Docking\Desktop\test protocol\1iep_ligandH.pdb
REMARK  8 active torsions:
REMARK  status: ('A' for Active; 'I' for Inactive)
REMARK    1  A    between atoms: _5  and  _11
REMARK    2  A    between atoms: _19  and  _21
REMARK    3  A    between atoms: _22  and  _66
REMARK    4  A    between atoms: _27  and  _30
REMARK    5  A    between atoms: _32  and  _33
REMARK    6  A    between atoms: _38  and  _43
REMARK    7  A    between atoms: _43  and  _46
REMARK    8  A    between atoms: _53  and  _55
REMARK                            x       y       z     vdW  Elec       q    Type
REMARK                         _______ _______ _______ _____ _____    ______ ____
ROOT
ATOM     10  C   UNL     1      -6.201  22.081  29.086  0.00  0.00    +0.038 A 
ATOM     11  C   UNL     1      -5.881  20.722  29.337  0.00  0.00    +0.047 A 
ATOM     12  C   UNL     1      -6.880  19.795  29.846  0.00  0.00    +0.035 A 
ATOM     32  C   UNL     1      -8.196  20.285  30.086  0.00  0.00    +0.024 A 
ATOM     33  C   UNL     1      -8.539  21.664  29.838  0.00  0.00    +0.007 A 
ATOM     34  C   UNL     1      -7.557  22.583  29.338  0.00  0.00    -0.029 A 
ATOM     35  C   UNL     1      -7.979  24.051  29.096  0.00  0.00    +0.045 C 
ENDROOT
BRANCH  10   9
ATOM      4  C   UNL     1      -4.390  24.991  25.727  0.00  0.00    +0.077 A 
ATOM      5  C   UNL     1      -5.515  24.787  24.860  0.00  0.00    +0.048 A 
ATOM      6  C   UNL     1      -6.534  23.921  25.313  0.00  0.00    +0.116 A 
ATOM      7  N   UNL     1      -6.427  23.309  26.543  0.00  0.00    -0.223 NA
ATOM      8  C   UNL     1      -5.328  23.525  27.354  0.00  0.00    +0.220 A 
ATOM      9  N   UNL     1      -5.203  22.927  28.598  0.00  0.00    -0.283 N 
ATOM     36  H   UNL     1      -4.373  23.106  29.163  0.00  0.00    +0.155 HD
ATOM     37  N   UNL     1      -4.340  24.348  26.943  0.00  0.00    -0.214 NA
BRANCH   4   3
ATOM      1  C   UNL     1      -0.983  26.321  24.338  0.00  0.00    +0.020 A 
ATOM      2  C   UNL     1      -2.074  25.421  24.637  0.00  0.00    +0.013 A 
ATOM      3  C   UNL     1      -3.233  25.880  25.391  0.00  0.00    +0.019 A 
ATOM     38  C   UNL     1      -3.260  27.267  25.830  0.00  0.00    +0.120 A 
ATOM     39  N   UNL     1      -2.195  28.110  25.529  0.00  0.00    -0.263 NA
ATOM     40  C   UNL     1      -1.072  27.679  24.806  0.00  0.00    +0.111 A 
ENDBRANCH   4   3
ENDBRANCH  10   9
BRANCH  12  13
ATOM     13  N   UNL     1      -6.611  18.406  30.127  0.00  0.00    -0.281 N 
ATOM     14  C   UNL     1      -5.680  17.881  31.008  0.00  0.00    +0.248 C 
ATOM     30  O   UNL     1      -4.785  18.525  31.534  0.00  0.00    -0.270 OA
ATOM     31  H   UNL     1      -7.175  17.729  29.614  0.00  0.00    +0.155 HD
BRANCH  14  15
ATOM     15  C   UNL     1      -5.743  16.425  31.342  0.00  0.00    +0.037 A 
ATOM     16  C   UNL     1      -6.981  15.811  31.829  0.00  0.00    +0.013 A 
ATOM     17  C   UNL     1      -7.011  14.408  32.160  0.00  0.00    +0.005 A 
ATOM     18  C   UNL     1      -5.797  13.610  32.004  0.00  0.00    -0.033 A 
ATOM     28  C   UNL     1      -4.584  14.244  31.515  0.00  0.00    +0.005 A 
ATOM     29  C   UNL     1      -4.551  15.618  31.190  0.00  0.00    +0.013 A 
BRANCH  18  19
ATOM     19  C   UNL     1      -5.732  12.111  32.353  0.00  0.00    +0.119 C 
BRANCH  19  20
ATOM     20  N   UNL     1      -5.450  11.160  31.237  0.00  0.00    -0.302 NA
ATOM     21  C   UNL     1      -6.455  10.006  31.197  0.00  0.00    +0.066 C 
ATOM     22  C   UNL     1      -6.159   9.034  30.010  0.00  0.00    -0.064 C 
ATOM     23  N   UNL     1      -4.730   8.503  30.133  0.00  0.00    +0.379 N 
ATOM     24  C   UNL     1      -4.467   7.543  29.050  0.00  0.00    -0.096 C 
ATOM     25  H   UNL     1      -4.656   7.951  31.099  0.00  0.00    -0.082 HD
ATOM     26  C   UNL     1      -3.724   9.644  30.176  0.00  0.00    -0.064 C 
ATOM     27  C   UNL     1      -4.044  10.621  31.341  0.00  0.00    +0.066 C 
ENDBRANCH  19  20
ENDBRANCH  18  19
ENDBRANCH  14  15
ENDBRANCH  12  13
TORSDOF 6
ENDMDL
MODEL 5
REMARK VINA RESULT:      -8.8      4.706      6.994
REMARK  Name = C:\Users\Docking\Desktop\test protocol\1iep_ligandH.pdb
REMARK  8 active torsions:
REMARK  status: ('A' for Active; 'I' for Inactive)
REMARK    1  A    between atoms: _5  and  _11
REMARK    2  A    between atoms: _19  and  _21
REMARK    3  A    between atoms: _22  and  _66
REMARK    4  A    between atoms: _27  and  _30
REMARK    5  A    between atoms: _32  and  _33
REMARK    6  A    between atoms: _38  and  _43
REMARK    7  A    between atoms: _43  and  _46
REMARK    8  A    between atoms: _53  and  _55
REMARK                            x       y       z     vdW  Elec       q    Type
REMARK                         _______ _______ _______ _____ _____    ______ ____
ROOT
ATOM     10  C   UNL     1      -6.872  21.314  28.220  0.00  0.00    +0.038 A 
ATOM     11  C   UNL     1      -6.472  20.017  28.630  0.00  0.00    +0.047 A 
ATOM     12  C   UNL     1      -6.328  19.684  30.039  0.00  0.00    +0.035 A 
ATOM     32  C   UNL     1      -6.602  20.697  31.004  0.00  0.00    +0.024 A 
ATOM     33  C   UNL     1      -7.009  22.022  30.604  0.00  0.00    +0.007 A 
ATOM     34  C   UNL     1      -7.151  22.356  29.216  0.00  0.00    -0.029 A 
ATOM     35  C   UNL     1      -7.583  23.793  28.845  0.00  0.00    +0.045 C 
ENDROOT
BRANCH  10   9
ATOM      4  C   UNL     1      -9.401  21.432  24.142  0.00  0.00    +0.077 A 
ATOM      5  C   UNL     1     -10.569  20.896  24.781  0.00  0.00    +0.048 A 
ATOM      6  C   UNL     1     -10.475  20.597  26.159  0.00  0.00    +0.116 A 
ATOM      7  N   UNL     1      -9.296  20.822  26.837  0.00  0.00    -0.223 NA
ATOM      8  C   UNL     1      -8.188  21.337  26.190  0.00  0.00    +0.220 A 
ATOM      9  N   UNL     1      -6.995  21.578  26.854  0.00  0.00    -0.283 N 
ATOM     36  H   UNL     1      -6.199  21.953  26.339  0.00  0.00    +0.155 HD
ATOM     37  N   UNL     1      -8.252  21.630  24.874  0.00  0.00    -0.214 NA
BRANCH   4   3
ATOM      1  C   UNL     1      -8.099  22.454  20.598  0.00  0.00    +0.020 A 
ATOM      2  C   UNL     1      -8.099  22.104  22.000  0.00  0.00    +0.013 A 
ATOM      3  C   UNL     1      -9.345  21.801  22.692  0.00  0.00    +0.019 A 
ATOM     38  C   UNL     1     -10.584  21.861  21.931  0.00  0.00    +0.120 A 
ATOM     39  N   UNL     1     -10.554  22.203  20.583  0.00  0.00    -0.263 NA
ATOM     40  C   UNL     1      -9.361  22.499  19.907  0.00  0.00    +0.111 A 
ENDBRANCH   4   3
ENDBRANCH  10   9
BRANCH  12  13
ATOM     13  N   UNL     1      -5.917  18.387  30.515  0.00  0.00    -0.281 N 
ATOM     14  C   UNL     1      -6.721  17.320  30.882  0.00  0.00    +0.248 C 
ATOM     30  O   UNL     1      -7.928  17.394  31.060  0.00  0.00    -0.270 OA
ATOM     31  H   UNL     1      -4.911  18.237  30.591  0.00  0.00    +0.155 HD
BRANCH  14  15
ATOM     15  C   UNL     1      -6.092  15.982  31.097  0.00  0.00    +0.037 A 
ATOM     16  C   UNL     1      -6.586  15.066  32.128  0.00  0.00    +0.013 A 
ATOM     17  C   UNL     1      -5.950  13.788  32.325  0.00  0.00    +0.005 A 
ATOM     18  C   UNL     1      -4.812  13.417  31.487  0.00  0.00    -0.033 A 
ATOM     28  C   UNL     1      -4.346  14.342  30.468  0.00  0.00    +0.005 A 
ATOM     29  C   UNL     1      -4.966  15.597  30.272  0.00  0.00    +0.013 A 
BRANCH  18  19
ATOM     19  C   UNL     1      -4.059  12.082  31.642  0.00  0.00    +0.119 C 
BRANCH  19  20
ATOM     20  N   UNL     1      -4.561  10.919  30.851  0.00  0.00    -0.302 NA
ATOM     21  C   UNL     1      -4.440   9.603  31.625  0.00  0.00    +0.066 C 
ATOM     22  C   UNL     1      -4.990   8.400  30.792  0.00  0.00    -0.064 C 
ATOM     23  N   UNL     1      -4.237   8.317  29.463  0.00  0.00    +0.379 N 
ATOM     24  C   UNL     1      -4.711   7.152  28.702  0.00  0.00    -0.096 C 
ATOM     25  H   UNL     1      -3.159   8.154  29.695  0.00  0.00    -0.082 HD
ATOM     26  C   UNL     1      -4.349   9.622  28.688  0.00  0.00    -0.064 C 
ATOM     27  C   UNL     1      -3.828  10.816  29.536  0.00  0.00    +0.066 C 
ENDBRANCH  19  20
ENDBRANCH  18  19
ENDBRANCH  14  15
ENDBRANCH  12  13
TORSDOF 6
ENDMDL
