MODEL 1
REMARK VINA RESULT:      -8.4      0.000      0.000
REMARK  Name = C:\Users\Docking\Desktop\test protocol\1iep_ligandH.pdb
REMARK  8 active torsions:
REMARK  status: ('A' for Active; 'I' for Inactive)
REMARK    1  A    between atoms: _5  and  _11
REMARK    2  A    between atoms: _19  and  _21
REMARK    3  A    between atoms: _22  and  _66
REMARK    4  A    between atoms: _27  and  _30
REMARK    5  A    between atoms: _32  and  _33
REMARK    6  A    between atoms: _38  and  _43
REMARK    7  A    between atoms: _43  and  _46
REMARK    8  A    between atoms: _53  and  _55
REMARK                            x       y       z     vdW  Elec       q    Type
REMARK                         _______ _______ _______ _____ _____    ______ ____
ROOT
ATOM     10  C   UNL     1      38.170  23.872  24.919  0.00  0.00    +0.038 A 
ATOM     11  C   UNL     1      39.467  24.268  24.505  0.00  0.00    +0.047 A 
ATOM     12  C   UNL     1      40.649  23.531  24.924  0.00  0.00    +0.035 A 
ATOM     32  C   UNL     1      40.473  22.393  25.764  0.00  0.00    +0.024 A 
ATOM     33  C   UNL     1      39.162  21.977  26.196  0.00  0.00    +0.007 A 
ATOM     34  C   UNL     1      37.993  22.701  25.787  0.00  0.00    -0.029 A 
ATOM     35  C   UNL     1      36.612  22.214  26.286  0.00  0.00    +0.045 C 
ENDROOT
BRANCH  10   9
ATOM      4  C   UNL     1      35.286  27.700  25.172  0.00  0.00    +0.077 A 
ATOM      5  C   UNL     1      36.017  28.251  26.277  0.00  0.00    +0.048 A 
ATOM      6  C   UNL     1      37.124  27.515  26.755  0.00  0.00    +0.116 A 
ATOM      7  N   UNL     1      37.466  26.318  26.164  0.00  0.00    -0.223 NA
ATOM      8  C   UNL     1      36.739  25.814  25.101  0.00  0.00    +0.220 A 
ATOM      9  N   UNL     1      37.070  24.616  24.487  0.00  0.00    -0.283 N 
ATOM     36  H   UNL     1      36.505  24.274  23.710  0.00  0.00    +0.155 HD
ATOM     37  N   UNL     1      35.677  26.497  24.627  0.00  0.00    -0.214 NA
BRANCH   4   3
ATOM      1  C   UNL     1      31.994  28.330  23.157  0.00  0.00    +0.020 A 
ATOM      2  C   UNL     1      33.128  27.644  23.731  0.00  0.00    +0.013 A 
ATOM      3  C   UNL     1      34.095  28.362  24.553  0.00  0.00    +0.019 A 
ATOM     38  C   UNL     1      33.883  29.784  24.776  0.00  0.00    +0.120 A 
ATOM     39  N   UNL     1      32.782  30.418  24.209  0.00  0.00    -0.263 NA
ATOM     40  C   UNL     1      31.846  29.738  23.415  0.00  0.00    +0.111 A 
ENDBRANCH   4   3
ENDBRANCH  10   9
BRANCH  12  13
ATOM     13  N   UNL     1      41.992  23.890  24.541  0.00  0.00    -0.281 N 
ATOM     14  C   UNL     1      42.728  23.416  23.467  0.00  0.00    +0.248 C 
ATOM     30  O   UNL     1      42.417  22.446  22.791  0.00  0.00    -0.270 OA
ATOM     31  H   UNL     1      42.457  24.578  25.134  0.00  0.00    +0.155 HD
BRANCH  14  15
ATOM     15  C   UNL     1      43.998  24.112  23.099  0.00  0.00    +0.037 A 
ATOM     16  C   UNL     1      44.426  25.330  23.792  0.00  0.00    +0.013 A 
ATOM     17  C   UNL     1      45.648  25.990  23.406  0.00  0.00    +0.005 A 
ATOM     18  C   UNL     1      46.452  25.432  22.321  0.00  0.00    -0.033 A 
ATOM     28  C   UNL     1      46.007  24.219  21.654  0.00  0.00    +0.005 A 
ATOM     29  C   UNL     1      44.809  23.570  22.029  0.00  0.00    +0.013 A 
BRANCH  18  19
ATOM     19  C   UNL     1      47.759  26.081  21.828  0.00  0.00    +0.119 C 
BRANCH  19  20
ATOM     20  N   UNL     1      47.673  26.961  20.625  0.00  0.00    -0.302 NA
ATOM     21  C   UNL     1      48.862  26.759  19.680  0.00  0.00    +0.066 C 
ATOM     22  C   UNL     1      48.745  27.671  18.415  0.00  0.00    -0.064 C 
ATOM     23  N   UNL     1      48.643  29.133  18.852  0.00  0.00    +0.379 N 
ATOM     24  C   UNL     1      48.591  29.997  17.664  0.00  0.00    -0.096 C 
ATOM     25  H   UNL     1      49.573  29.384  19.413  0.00  0.00    -0.082 HD
ATOM     26  C   UNL     1      47.466  29.343  19.794  0.00  0.00    -0.064 C 
ATOM     27  C   UNL     1      47.576  28.411  21.033  0.00  0.00    +0.066 C 
ENDBRANCH  19  20
ENDBRANCH  18  19
ENDBRANCH  14  15
ENDBRANCH  12  13
TORSDOF 6
ENDMDL
MODEL 2
REMARK VINA RESULT:      -8.2     29.745     35.525
REMARK  Name = C:\Users\Docking\Desktop\test protocol\1iep_ligandH.pdb
REMARK  8 active torsions:
REMARK  status: ('A' for Active; 'I' for Inactive)
REMARK    1  A    between atoms: _5  and  _11
REMARK    2  A    between atoms: _19  and  _21
REMARK    3  A    between atoms: _22  and  _66
REMARK    4  A    between atoms: _27  and  _30
REMARK    5  A    between atoms: _32  and  _33
REMARK    6  A    between atoms: _38  and  _43
REMARK    7  A    between atoms: _43  and  _46
REMARK    8  A    between atoms: _53  and  _55
REMARK                            x       y       z     vdW  Elec       q    Type
REMARK                         _______ _______ _______ _____ _____    ______ ____
ROOT
ATOM     10  C   UNL     1      11.876  20.890   5.425  0.00  0.00    +0.038 A 
ATOM     11  C   UNL     1      11.633  20.126   6.595  0.00  0.00    +0.047 A 
ATOM     12  C   UNL     1      10.320  19.561   6.864  0.00  0.00    +0.035 A 
ATOM     32  C   UNL     1       9.278  19.791   5.920  0.00  0.00    +0.024 A 
ATOM     33  C   UNL     1       9.507  20.567   4.726  0.00  0.00    +0.007 A 
ATOM     34  C   UNL     1      10.800  21.129   4.456  0.00  0.00    -0.029 A 
ATOM     35  C   UNL     1      10.987  21.957   3.163  0.00  0.00    +0.045 C 
ENDROOT
BRANCH  10   9
ATOM      4  C   UNL     1      16.374  20.532   3.788  0.00  0.00    +0.077 A 
ATOM      5  C   UNL     1      16.165  19.187   3.335  0.00  0.00    +0.048 A 
ATOM      6  C   UNL     1      14.887  18.621   3.548  0.00  0.00    +0.116 A 
ATOM      7  N   UNL     1      13.900  19.356   4.170  0.00  0.00    -0.223 NA
ATOM      8  C   UNL     1      14.136  20.650   4.596  0.00  0.00    +0.220 A 
ATOM      9  N   UNL     1      13.156  21.409   5.216  0.00  0.00    -0.283 N 
ATOM     36  H   UNL     1      13.371  22.358   5.522  0.00  0.00    +0.155 HD
ATOM     37  N   UNL     1      15.348  21.212   4.405  0.00  0.00    -0.214 NA
BRANCH   4   3
ATOM      1  C   UNL     1      19.904  22.066   4.485  0.00  0.00    +0.020 A 
ATOM      2  C   UNL     1      18.670  21.342   4.687  0.00  0.00    +0.013 A 
ATOM      3  C   UNL     1      17.668  21.268   3.632  0.00  0.00    +0.019 A 
ATOM     38  C   UNL     1      17.948  21.942   2.373  0.00  0.00    +0.120 A 
ATOM     39  N   UNL     1      19.144  22.632   2.207  0.00  0.00    -0.263 NA
ATOM     40  C   UNL     1      20.115  22.712   3.216  0.00  0.00    +0.111 A 
ENDBRANCH   4   3
ENDBRANCH  10   9
BRANCH  12  13
ATOM     13  N   UNL     1      10.011  18.783   8.039  0.00  0.00    -0.281 N 
ATOM     14  C   UNL     1      10.533  17.555   8.408  0.00  0.00    +0.248 C 
ATOM     30  O   UNL     1      11.191  16.834   7.672  0.00  0.00    -0.270 OA
ATOM     31  H   UNL     1       9.325  19.188   8.676  0.00  0.00    +0.155 HD
BRANCH  14  15
ATOM     15  C   UNL     1      10.275  17.046   9.790  0.00  0.00    +0.037 A 
ATOM     16  C   UNL     1       8.914  16.778  10.259  0.00  0.00    +0.013 A 
ATOM     17  C   UNL     1       8.692  16.304  11.602  0.00  0.00    +0.005 A 
ATOM     18  C   UNL     1       9.836  16.095  12.486  0.00  0.00    -0.033 A 
ATOM     28  C   UNL     1      11.177  16.364  11.993  0.00  0.00    +0.005 A 
ATOM     29  C   UNL     1      11.398  16.830  10.678  0.00  0.00    +0.013 A 
BRANCH  18  19
ATOM     19  C   UNL     1       9.691  15.612  13.942  0.00  0.00    +0.119 C 
BRANCH  19  20
ATOM     20  N   UNL     1       8.319  15.618  14.531  0.00  0.00    -0.302 NA
ATOM     21  C   UNL     1       7.890  17.020  14.973  0.00  0.00    +0.066 C 
ATOM     22  C   UNL     1       6.443  17.012  15.566  0.00  0.00    -0.064 C 
ATOM     23  N   UNL     1       6.382  16.032  16.739  0.00  0.00    +0.379 N 
ATOM     24  C   UNL     1       5.039  16.065  17.336  0.00  0.00    -0.096 C 
ATOM     25  H   UNL     1       7.104  16.384  17.512  0.00  0.00    -0.082 HD
ATOM     26  C   UNL     1       6.810  14.636  16.309  0.00  0.00    -0.064 C 
ATOM     27  C   UNL     1       8.237  14.660  15.694  0.00  0.00    +0.066 C 
ENDBRANCH  19  20
ENDBRANCH  18  19
ENDBRANCH  14  15
ENDBRANCH  12  13
TORSDOF 6
ENDMDL
MODEL 3
REMARK VINA RESULT:      -8.0     29.700     35.041
REMARK  Name = C:\Users\Docking\Desktop\test protocol\1iep_ligandH.pdb
REMARK  8 active torsions:
REMARK  status: ('A' for Active; 'I' for Inactive)
REMARK    1  A    between atoms: _5  and  _11
REMARK    2  A    between atoms: _19  and  _21
REMARK    3  A    between atoms: _22  and  _66
REMARK    4  A    between atoms: _27  and  _30
REMARK    5  A    between atoms: _32  and  _33
REMARK    6  A    between atoms: _38  and  _43
REMARK    7  A    between atoms: _43  and  _46
REMARK    8  A    between atoms: _53  and  _55
REMARK                            x       y       z     vdW  Elec       q    Type
REMARK                         _______ _______ _______ _____ _____    ______ ____
ROOT
ATOM     10  C   UNL     1      11.989  20.939   5.351  0.00  0.00    +0.038 A 
ATOM     11  C   UNL     1      11.741  20.208   6.541  0.00  0.00    +0.047 A 
ATOM     12  C   UNL     1      10.431  19.636   6.814  0.00  0.00    +0.035 A 
ATOM     32  C   UNL     1       9.397  19.825   5.851  0.00  0.00    +0.024 A 
ATOM     33  C   UNL     1       9.632  20.566   4.637  0.00  0.00    +0.007 A 
ATOM     34  C   UNL     1      10.920  21.135   4.363  0.00  0.00    -0.029 A 
ATOM     35  C   UNL     1      11.113  21.925   3.048  0.00  0.00    +0.045 C 
ENDROOT
BRANCH  10   9
ATOM      4  C   UNL     1      16.503  20.589   3.759  0.00  0.00    +0.077 A 
ATOM      5  C   UNL     1      16.311  19.231   3.335  0.00  0.00    +0.048 A 
ATOM      6  C   UNL     1      15.038  18.658   3.552  0.00  0.00    +0.116 A 
ATOM      7  N   UNL     1      14.039  19.396   4.148  0.00  0.00    -0.223 NA
ATOM      8  C   UNL     1      14.257  20.702   4.546  0.00  0.00    +0.220 A 
ATOM      9  N   UNL     1      13.265  21.466   5.140  0.00  0.00    -0.283 N 
ATOM     36  H   UNL     1      13.468  22.424   5.426  0.00  0.00    +0.155 HD
ATOM     37  N   UNL     1      15.465  21.272   4.351  0.00  0.00    -0.214 NA
BRANCH   4   3
ATOM      1  C   UNL     1      20.067  22.069   4.398  0.00  0.00    +0.020 A 
ATOM      2  C   UNL     1      18.841  21.332   4.605  0.00  0.00    +0.013 A 
ATOM      3  C   UNL     1      17.791  21.335   3.595  0.00  0.00    +0.019 A 
ATOM     38  C   UNL     1      18.013  22.098   2.377  0.00  0.00    +0.120 A 
ATOM     39  N   UNL     1      19.203  22.799   2.205  0.00  0.00    -0.263 NA
ATOM     40  C   UNL     1      20.220  22.805   3.171  0.00  0.00    +0.111 A 
ENDBRANCH   4   3
ENDBRANCH  10   9
BRANCH  12  13
ATOM     13  N   UNL     1      10.119  18.891   8.008  0.00  0.00    -0.281 N 
ATOM     14  C   UNL     1      10.426  17.571   8.294  0.00  0.00    +0.248 C 
ATOM     30  O   UNL     1      10.832  16.763   7.472  0.00  0.00    -0.270 OA
ATOM     31  H   UNL     1       9.609  19.399   8.731  0.00  0.00    +0.155 HD
BRANCH  14  15
ATOM     15  C   UNL     1      10.241  17.073   9.691  0.00  0.00    +0.037 A 
ATOM     16  C   UNL     1       8.906  16.812  10.234  0.00  0.00    +0.013 A 
ATOM     17  C   UNL     1       8.755  16.348  11.590  0.00  0.00    +0.005 A 
ATOM     18  C   UNL     1       9.944  16.140  12.413  0.00  0.00    -0.033 A 
ATOM     28  C   UNL     1      11.257  16.401  11.847  0.00  0.00    +0.005 A 
ATOM     29  C   UNL     1      11.409  16.857  10.518  0.00  0.00    +0.013 A 
BRANCH  18  19
ATOM     19  C   UNL     1       9.877  15.666  13.877  0.00  0.00    +0.119 C 
BRANCH  19  20
ATOM     20  N   UNL     1      10.086  14.211  14.135  0.00  0.00    -0.302 NA
ATOM     21  C   UNL     1      11.572  13.838  14.154  0.00  0.00    +0.066 C 
ATOM     22  C   UNL     1      11.773  12.316  14.448  0.00  0.00    -0.064 C 
ATOM     23  N   UNL     1      11.022  11.493  13.400  0.00  0.00    +0.379 N 
ATOM     24  C   UNL     1      11.257  10.062  13.639  0.00  0.00    -0.096 C 
ATOM     25  H   UNL     1      11.451  11.744  12.402  0.00  0.00    -0.082 HD
ATOM     26  C   UNL     1       9.545  11.859  13.373  0.00  0.00    -0.064 C 
ATOM     27  C   UNL     1       9.356  13.379  13.109  0.00  0.00    +0.066 C 
ENDBRANCH  19  20
ENDBRANCH  18  19
ENDBRANCH  14  15
ENDBRANCH  12  13
TORSDOF 6
ENDMDL
MODEL 4
REMARK VINA RESULT:      -7.9      1.643      2.343
REMARK  Name = C:\Users\Docking\Desktop\test protocol\1iep_ligandH.pdb
REMARK  8 active torsions:
REMARK  status: ('A' for Active; 'I' for Inactive)
REMARK    1  A    between atoms: _5  and  _11
REMARK    2  A    between atoms: _19  and  _21
REMARK    3  A    between atoms: _22  and  _66
REMARK    4  A    between atoms: _27  and  _30
REMARK    5  A    between atoms: _32  and  _33
REMARK    6  A    between atoms: _38  and  _43
REMARK    7  A    between atoms: _43  and  _46
REMARK    8  A    between atoms: _53  and  _55
REMARK                            x       y       z     vdW  Elec       q    Type
REMARK                         _______ _______ _______ _____ _____    ______ ____
ROOT
ATOM     10  C   UNL     1      38.108  23.877  24.921  0.00  0.00    +0.038 A 
ATOM     11  C   UNL     1      39.396  24.293  24.497  0.00  0.00    +0.047 A 
ATOM     12  C   UNL     1      40.591  23.566  24.896  0.00  0.00    +0.035 A 
ATOM     32  C   UNL     1      40.438  22.417  25.725  0.00  0.00    +0.024 A 
ATOM     33  C   UNL     1      39.136  21.980  26.166  0.00  0.00    +0.007 A 
ATOM     34  C   UNL     1      37.954  22.695  25.778  0.00  0.00    -0.029 A 
ATOM     35  C   UNL     1      36.585  22.185  26.285  0.00  0.00    +0.045 C 
ENDROOT
BRANCH  10   9
ATOM      4  C   UNL     1      35.281  27.750  25.127  0.00  0.00    +0.077 A 
ATOM      5  C   UNL     1      36.073  28.346  26.164  0.00  0.00    +0.048 A 
ATOM      6  C   UNL     1      37.196  27.621  26.621  0.00  0.00    +0.116 A 
ATOM      7  N   UNL     1      37.495  26.391  26.075  0.00  0.00    -0.223 NA
ATOM      8  C   UNL     1      36.709  25.844  25.078  0.00  0.00    +0.220 A 
ATOM      9  N   UNL     1      36.995  24.612  24.509  0.00  0.00    -0.283 N 
ATOM     36  H   UNL     1      36.386  24.240  23.780  0.00  0.00    +0.155 HD
ATOM     37  N   UNL     1      35.630  26.516  24.625  0.00  0.00    -0.214 NA
BRANCH   4   3
ATOM      1  C   UNL     1      32.151  28.476  22.896  0.00  0.00    +0.020 A 
ATOM      2  C   UNL     1      33.318  27.812  23.429  0.00  0.00    +0.013 A 
ATOM      3  C   UNL     1      34.065  28.395  24.537  0.00  0.00    +0.019 A 
ATOM     38  C   UNL     1      33.600  29.658  25.088  0.00  0.00    +0.120 A 
ATOM     39  N   UNL     1      32.473  30.275  24.554  0.00  0.00    -0.263 NA
ATOM     40  C   UNL     1      31.747  29.725  23.486  0.00  0.00    +0.111 A 
ENDBRANCH   4   3
ENDBRANCH  10   9
BRANCH  12  13
ATOM     13  N   UNL     1      41.926  23.947  24.503  0.00  0.00    -0.281 N 
ATOM     14  C   UNL     1      42.698  23.414  23.484  0.00  0.00    +0.248 C 
ATOM     30  O   UNL     1      42.438  22.379  22.888  0.00  0.00    -0.270 OA
ATOM     31  H   UNL     1      42.353  24.700  25.043  0.00  0.00    +0.155 HD
BRANCH  14  15
ATOM     15  C   UNL     1      43.947  24.127  23.076  0.00  0.00    +0.037 A 
ATOM     16  C   UNL     1      44.365  25.366  23.738  0.00  0.00    +0.013 A 
ATOM     17  C   UNL     1      45.565  26.042  23.314  0.00  0.00    +0.005 A 
ATOM     18  C   UNL     1      46.357  25.479  22.222  0.00  0.00    -0.033 A 
ATOM     28  C   UNL     1      45.922  24.246  21.588  0.00  0.00    +0.005 A 
ATOM     29  C   UNL     1      44.745  23.581  22.000  0.00  0.00    +0.013 A 
BRANCH  18  19
ATOM     19  C   UNL     1      47.640  26.145  21.691  0.00  0.00    +0.119 C 
BRANCH  19  20
ATOM     20  N   UNL     1      48.561  26.755  22.696  0.00  0.00    -0.302 NA
ATOM     21  C   UNL     1      49.686  27.555  22.033  0.00  0.00    +0.066 C 
ATOM     22  C   UNL     1      50.627  28.204  23.099  0.00  0.00    -0.064 C 
ATOM     23  N   UNL     1      51.200  27.111  24.003  0.00  0.00    +0.379 N 
ATOM     24  C   UNL     1      52.130  27.712  24.970  0.00  0.00    -0.096 C 
ATOM     25  H   UNL     1      51.784  26.412  23.360  0.00  0.00    -0.082 HD
ATOM     26  C   UNL     1      50.088  26.309  24.664  0.00  0.00    -0.064 C 
ATOM     27  C   UNL     1      49.141  25.692  23.597  0.00  0.00    +0.066 C 
ENDBRANCH  19  20
ENDBRANCH  18  19
ENDBRANCH  14  15
ENDBRANCH  12  13
TORSDOF 6
ENDMDL
MODEL 5
REMARK VINA RESULT:      -7.9      8.523     16.387
REMARK  Name = C:\Users\Docking\Desktop\test protocol\1iep_ligandH.pdb
REMARK  8 active torsions:
REMARK  status: ('A' for Active; 'I' for Inactive)
REMARK    1  A    between atoms: _5  and  _11
REMARK    2  A    between atoms: _19  and  _21
REMARK    3  A    between atoms: _22  and  _66
REMARK    4  A    between atoms: _27  and  _30
REMARK    5  A    between atoms: _32  and  _33
REMARK    6  A    between atoms: _38  and  _43
REMARK    7  A    between atoms: _43  and  _46
REMARK    8  A    between atoms: _53  and  _55
REMARK                            x       y       z     vdW  Elec       q    Type
REMARK                         _______ _______ _______ _____ _____    ______ ____
ROOT
ATOM     10  C   UNL     1      30.818  32.141  24.642  0.00  0.00    +0.038 A 
ATOM     11  C   UNL     1      30.669  32.892  23.448  0.00  0.00    +0.047 A 
ATOM     12  C   UNL     1      29.414  33.555  23.127  0.00  0.00    +0.035 A 
ATOM     32  C   UNL     1      28.332  33.434  24.048  0.00  0.00    +0.024 A 
ATOM     33  C   UNL     1      28.466  32.674  25.266  0.00  0.00    +0.007 A 
ATOM     34  C   UNL     1      29.701  32.016  25.585  0.00  0.00    -0.029 A 
ATOM     35  C   UNL     1      29.785  31.209  26.902  0.00  0.00    +0.045 C 
ENDROOT
BRANCH  10   9
ATOM      4  C   UNL     1      34.081  28.711  23.849  0.00  0.00    +0.077 A 
ATOM      5  C   UNL     1      33.260  28.077  22.858  0.00  0.00    +0.048 A 
ATOM      6  C   UNL     1      32.003  28.661  22.586  0.00  0.00    +0.116 A 
ATOM      7  N   UNL     1      31.606  29.795  23.261  0.00  0.00    -0.223 NA
ATOM      8  C   UNL     1      32.420  30.380  24.213  0.00  0.00    +0.220 A 
ATOM      9  N   UNL     1      32.045  31.525  24.899  0.00  0.00    -0.283 N 
ATOM     36  H   UNL     1      32.671  31.922  25.599  0.00  0.00    +0.155 HD
ATOM     37  N   UNL     1      33.625  29.841  24.492  0.00  0.00    -0.214 NA
BRANCH   4   3
ATOM      1  C   UNL     1      36.969  26.707  25.565  0.00  0.00    +0.020 A 
ATOM      2  C   UNL     1      35.638  27.150  25.219  0.00  0.00    +0.013 A 
ATOM      3  C   UNL     1      35.437  28.215  24.244  0.00  0.00    +0.019 A 
ATOM     38  C   UNL     1      36.613  28.816  23.633  0.00  0.00    +0.120 A 
ATOM     39  N   UNL     1      37.883  28.370  23.988  0.00  0.00    -0.263 NA
ATOM     40  C   UNL     1      38.088  27.347  24.925  0.00  0.00    +0.111 A 
ENDBRANCH   4   3
ENDBRANCH  10   9
BRANCH  12  13
ATOM     13  N   UNL     1      29.201  34.324  21.927  0.00  0.00    -0.281 N 
ATOM     14  C   UNL     1      28.909  35.674  21.820  0.00  0.00    +0.248 C 
ATOM     30  O   UNL     1      28.573  36.384  22.757  0.00  0.00    -0.270 OA
ATOM     31  H   UNL     1      29.275  33.811  21.048  0.00  0.00    +0.155 HD
BRANCH  14  15
ATOM     15  C   UNL     1      28.986  36.326  20.478  0.00  0.00    +0.037 A 
ATOM     16  C   UNL     1      27.779  36.589  19.690  0.00  0.00    +0.013 A 
ATOM     17  C   UNL     1      27.883  37.204  18.391  0.00  0.00    +0.005 A 
ATOM     18  C   UNL     1      29.201  37.562  17.871  0.00  0.00    -0.033 A 
ATOM     28  C   UNL     1      30.382  37.294  18.676  0.00  0.00    +0.005 A 
ATOM     29  C   UNL     1      30.283  36.691  19.950  0.00  0.00    +0.013 A 
BRANCH  18  19
ATOM     19  C   UNL     1      29.408  38.202  16.486  0.00  0.00    +0.119 C 
BRANCH  19  20
ATOM     20  N   UNL     1      28.257  38.952  15.900  0.00  0.00    -0.302 NA
ATOM     21  C   UNL     1      28.336  39.023  14.372  0.00  0.00    +0.066 C 
ATOM     22  C   UNL     1      27.113  39.791  13.775  0.00  0.00    -0.064 C 
ATOM     23  N   UNL     1      27.050  41.195  14.380  0.00  0.00    +0.379 N 
ATOM     24  C   UNL     1      25.935  41.940  13.777  0.00  0.00    -0.096 C 
ATOM     25  H   UNL     1      27.995  41.722  14.109  0.00  0.00    -0.082 HD
ATOM     26  C   UNL     1      26.975  41.133  15.899  0.00  0.00    -0.064 C 
ATOM     27  C   UNL     1      28.180  40.342  16.481  0.00  0.00    +0.066 C 
ENDBRANCH  19  20
ENDBRANCH  18  19
ENDBRANCH  14  15
ENDBRANCH  12  13
TORSDOF 6
ENDMDL
