MODEL 1
REMARK VINA RESULT:     -12.4      0.000      0.000
REMARK  Name = C:\Users\Docking\Desktop\test protocol\1iep_ligandH.pdb
REMARK  8 active torsions:
REMARK  status: ('A' for Active; 'I' for Inactive)
REMARK    1  A    between atoms: _5  and  _11
REMARK    2  A    between atoms: _19  and  _21
REMARK    3  A    between atoms: _22  and  _66
REMARK    4  A    between atoms: _27  and  _30
REMARK    5  A    between atoms: _32  and  _33
REMARK    6  A    between atoms: _38  and  _43
REMARK    7  A    between atoms: _43  and  _46
REMARK    8  A    between atoms: _53  and  _55
REMARK                            x       y       z     vdW  Elec       q    Type
REMARK                         _______ _______ _______ _____ _____    ______ ____
ROOT
ATOM     10  C   UNL     1      59.412  58.909  13.978  0.00  0.00    +0.038 A 
ATOM     11  C   UNL     1      58.134  58.386  13.654  0.00  0.00    +0.047 A 
ATOM     12  C   UNL     1      57.301  59.012  12.639  0.00  0.00    +0.035 A 
ATOM     32  C   UNL     1      57.801  60.168  11.972  0.00  0.00    +0.024 A 
ATOM     33  C   UNL     1      59.097  60.713  12.290  0.00  0.00    +0.007 A 
ATOM     34  C   UNL     1      59.923  60.102  13.292  0.00  0.00    -0.029 A 
ATOM     35  C   UNL     1      61.301  60.734  13.596  0.00  0.00    +0.045 C 
ENDROOT
BRANCH  10   9
ATOM      4  C   UNL     1      62.567  55.578  15.388  0.00  0.00    +0.077 A 
ATOM      5  C   UNL     1      62.695  55.052  14.059  0.00  0.00    +0.048 A 
ATOM      6  C   UNL     1      61.926  55.662  13.043  0.00  0.00    +0.116 A 
ATOM      7  N   UNL     1      61.095  56.720  13.344  0.00  0.00    -0.223 NA
ATOM      8  C   UNL     1      60.994  57.202  14.636  0.00  0.00    +0.220 A 
ATOM      9  N   UNL     1      60.171  58.269  14.961  0.00  0.00    -0.283 N 
ATOM     36  H   UNL     1      60.118  58.590  15.927  0.00  0.00    +0.155 HD
ATOM     37  N   UNL     1      61.717  56.635  15.625  0.00  0.00    -0.214 NA
BRANCH   4   3
ATOM      1  C   UNL     1      63.455  54.269  18.965  0.00  0.00    +0.020 A 
ATOM      2  C   UNL     1      62.687  54.788  17.857  0.00  0.00    +0.013 A 
ATOM      3  C   UNL     1      63.316  55.042  16.568  0.00  0.00    +0.019 A 
ATOM     38  C   UNL     1      64.737  54.758  16.431  0.00  0.00    +0.120 A 
ATOM     39  N   UNL     1      65.452  54.261  17.516  0.00  0.00    -0.263 NA
ATOM     40  C   UNL     1      64.857  54.014  18.762  0.00  0.00    +0.111 A 
ENDBRANCH   4   3
ENDBRANCH  10   9
BRANCH  12  13
ATOM     13  N   UNL     1      55.991  58.531  12.274  0.00  0.00    -0.281 N 
ATOM     14  C   UNL     1      55.205  58.930  11.206  0.00  0.00    +0.248 C 
ATOM     30  O   UNL     1      55.419  59.920  10.522  0.00  0.00    -0.270 OA
ATOM     31  H   UNL     1      55.597  57.807  12.875  0.00  0.00    +0.155 HD
BRANCH  14  15
ATOM     15  C   UNL     1      53.998  58.121  10.856  0.00  0.00    +0.037 A 
ATOM     16  C   UNL     1      53.119  58.508   9.749  0.00  0.00    +0.013 A 
ATOM     17  C   UNL     1      51.951  57.719   9.443  0.00  0.00    +0.005 A 
ATOM     18  C   UNL     1      51.657  56.534  10.246  0.00  0.00    -0.033 A 
ATOM     28  C   UNL     1      52.549  56.171  11.335  0.00  0.00    +0.005 A 
ATOM     29  C   UNL     1      53.694  56.942  11.638  0.00  0.00    +0.013 A 
BRANCH  18  19
ATOM     19  C   UNL     1      50.422  55.646  10.004  0.00  0.00    +0.119 C 
BRANCH  19  20
ATOM     20  N   UNL     1      50.380  54.329  10.706  0.00  0.00    -0.302 NA
ATOM     21  C   UNL     1      51.518  53.405  10.265  0.00  0.00    +0.066 C 
ATOM     22  C   UNL     1      51.472  52.040  11.025  0.00  0.00    -0.064 C 
ATOM     23  N   UNL     1      50.114  51.376  10.792  0.00  0.00    +0.379 N 
ATOM     24  C   UNL     1      50.088  50.065  11.458  0.00  0.00    -0.096 C 
ATOM     25  H   UNL     1      50.008  51.200   9.696  0.00  0.00    -0.082 HD
ATOM     26  C   UNL     1      48.976  52.288  11.226  0.00  0.00    -0.064 C 
ATOM     27  C   UNL     1      49.049  53.653  10.486  0.00  0.00    +0.066 C 
ENDBRANCH  19  20
ENDBRANCH  18  19
ENDBRANCH  14  15
ENDBRANCH  12  13
TORSDOF 6
ENDMDL
MODEL 2
REMARK VINA RESULT:     -11.3      1.671     11.630
REMARK  Name = C:\Users\Docking\Desktop\test protocol\1iep_ligandH.pdb
REMARK  8 active torsions:
REMARK  status: ('A' for Active; 'I' for Inactive)
REMARK    1  A    between atoms: _5  and  _11
REMARK    2  A    between atoms: _19  and  _21
REMARK    3  A    between atoms: _22  and  _66
REMARK    4  A    between atoms: _27  and  _30
REMARK    5  A    between atoms: _32  and  _33
REMARK    6  A    between atoms: _38  and  _43
REMARK    7  A    between atoms: _43  and  _46
REMARK    8  A    between atoms: _53  and  _55
REMARK                            x       y       z     vdW  Elec       q    Type
REMARK                         _______ _______ _______ _____ _____    ______ ____
ROOT
ATOM     10  C   UNL     1      52.778  57.326  10.835  0.00  0.00    +0.038 A 
ATOM     11  C   UNL     1      54.005  57.107  11.512  0.00  0.00    +0.047 A 
ATOM     12  C   UNL     1      55.091  58.073  11.432  0.00  0.00    +0.035 A 
ATOM     32  C   UNL     1      54.891  59.251  10.656  0.00  0.00    +0.024 A 
ATOM     33  C   UNL     1      53.650  59.488   9.960  0.00  0.00    +0.007 A 
ATOM     34  C   UNL     1      52.577  58.539  10.033  0.00  0.00    -0.029 A 
ATOM     35  C   UNL     1      51.272  58.842   9.262  0.00  0.00    +0.045 C 
ENDROOT
BRANCH  10   9
ATOM      4  C   UNL     1      51.179  52.811  10.521  0.00  0.00    +0.077 A 
ATOM      5  C   UNL     1      52.453  52.328  10.071  0.00  0.00    +0.048 A 
ATOM      6  C   UNL     1      53.491  53.275   9.927  0.00  0.00    +0.116 A 
ATOM      7  N   UNL     1      53.262  54.603  10.214  0.00  0.00    -0.223 NA
ATOM      8  C   UNL     1      52.021  55.036  10.644  0.00  0.00    +0.220 A 
ATOM      9  N   UNL     1      51.770  56.366  10.946  0.00  0.00    -0.283 N 
ATOM     36  H   UNL     1      50.839  56.646  11.253  0.00  0.00    +0.155 HD
ATOM     37  N   UNL     1      51.012  54.151  10.788  0.00  0.00    -0.214 NA
BRANCH   4   3
ATOM      1  C   UNL     1      48.519  49.972  10.113  0.00  0.00    +0.020 A 
ATOM      2  C   UNL     1      49.686  50.789   9.872  0.00  0.00    +0.013 A 
ATOM      3  C   UNL     1      49.984  51.933  10.725  0.00  0.00    +0.019 A 
ATOM     38  C   UNL     1      49.074  52.224  11.823  0.00  0.00    +0.120 A 
ATOM     39  N   UNL     1      47.957  51.421  12.029  0.00  0.00    -0.263 NA
ATOM     40  C   UNL     1      47.659  50.319  11.214  0.00  0.00    +0.111 A 
ENDBRANCH   4   3
ENDBRANCH  10   9
BRANCH  12  13
ATOM     13  N   UNL     1      56.362  57.901  12.091  0.00  0.00    -0.281 N 
ATOM     14  C   UNL     1      57.593  58.410  11.712  0.00  0.00    +0.248 C 
ATOM     30  O   UNL     1      57.827  58.915  10.624  0.00  0.00    -0.270 OA
ATOM     31  H   UNL     1      56.352  57.337  12.941  0.00  0.00    +0.155 HD
BRANCH  14  15
ATOM     15  C   UNL     1      58.734  58.333  12.675  0.00  0.00    +0.037 A 
ATOM     16  C   UNL     1      60.010  57.724  12.293  0.00  0.00    +0.013 A 
ATOM     17  C   UNL     1      61.089  57.647  13.246  0.00  0.00    +0.005 A 
ATOM     18  C   UNL     1      60.895  58.182  14.592  0.00  0.00    -0.033 A 
ATOM     28  C   UNL     1      59.620  58.786  14.942  0.00  0.00    +0.005 A 
ATOM     29  C   UNL     1      58.560  58.862  14.010  0.00  0.00    +0.013 A 
BRANCH  18  19
ATOM     19  C   UNL     1      61.983  58.124  15.680  0.00  0.00    +0.119 C 
BRANCH  19  20
ATOM     20  N   UNL     1      62.742  56.846  15.820  0.00  0.00    -0.302 NA
ATOM     21  C   UNL     1      61.833  55.678  16.214  0.00  0.00    +0.066 C 
ATOM     22  C   UNL     1      62.640  54.344  16.335  0.00  0.00    -0.064 C 
ATOM     23  N   UNL     1      63.765  54.523  17.355  0.00  0.00    +0.379 N 
ATOM     24  C   UNL     1      64.489  53.253  17.513  0.00  0.00    -0.096 C 
ATOM     25  H   UNL     1      63.297  54.770  18.336  0.00  0.00    -0.082 HD
ATOM     26  C   UNL     1      64.673  55.683  16.972  0.00  0.00    -0.064 C 
ATOM     27  C   UNL     1      63.857  56.998  16.826  0.00  0.00    +0.066 C 
ENDBRANCH  19  20
ENDBRANCH  18  19
ENDBRANCH  14  15
ENDBRANCH  12  13
TORSDOF 6
ENDMDL
MODEL 3
REMARK VINA RESULT:     -10.9      5.680     15.559
REMARK  Name = C:\Users\Docking\Desktop\test protocol\1iep_ligandH.pdb
REMARK  8 active torsions:
REMARK  status: ('A' for Active; 'I' for Inactive)
REMARK    1  A    between atoms: _5  and  _11
REMARK    2  A    between atoms: _19  and  _21
REMARK    3  A    between atoms: _22  and  _66
REMARK    4  A    between atoms: _27  and  _30
REMARK    5  A    between atoms: _32  and  _33
REMARK    6  A    between atoms: _38  and  _43
REMARK    7  A    between atoms: _43  and  _46
REMARK    8  A    between atoms: _53  and  _55
REMARK                            x       y       z     vdW  Elec       q    Type
REMARK                         _______ _______ _______ _____ _____    ______ ____
ROOT
ATOM     10  C   UNL     1      61.885  54.284  16.764  0.00  0.00    +0.038 A 
ATOM     11  C   UNL     1      63.144  54.617  17.327  0.00  0.00    +0.047 A 
ATOM     12  C   UNL     1      63.976  53.607  17.962  0.00  0.00    +0.035 A 
ATOM     32  C   UNL     1      63.496  52.266  18.005  0.00  0.00    +0.024 A 
ATOM     33  C   UNL     1      62.219  51.909  17.439  0.00  0.00    +0.007 A 
ATOM     34  C   UNL     1      61.393  52.902  16.813  0.00  0.00    -0.029 A 
ATOM     35  C   UNL     1      60.029  52.464  16.229  0.00  0.00    +0.045 C 
ENDROOT
BRANCH  10   9
ATOM      4  C   UNL     1      60.449  56.792  12.933  0.00  0.00    +0.077 A 
ATOM      5  C   UNL     1      61.300  56.045  12.051  0.00  0.00    +0.048 A 
ATOM      6  C   UNL     1      62.097  55.029  12.625  0.00  0.00    +0.116 A 
ATOM      7  N   UNL     1      62.039  54.786  13.980  0.00  0.00    -0.223 NA
ATOM      8  C   UNL     1      61.208  55.526  14.802  0.00  0.00    +0.220 A 
ATOM      9  N   UNL     1      61.128  55.293  16.166  0.00  0.00    -0.283 N 
ATOM     36  H   UNL     1      60.509  55.866  16.740  0.00  0.00    +0.155 HD
ATOM     37  N   UNL     1      60.439  56.503  14.279  0.00  0.00    -0.214 NA
BRANCH   4   3
ATOM      1  C   UNL     1      57.412  58.753  11.439  0.00  0.00    +0.020 A 
ATOM      2  C   UNL     1      58.247  57.652  11.861  0.00  0.00    +0.013 A 
ATOM      3  C   UNL     1      59.546  57.895  12.476  0.00  0.00    +0.019 A 
ATOM     38  C   UNL     1      59.974  59.275  12.652  0.00  0.00    +0.120 A 
ATOM     39  N   UNL     1      59.149  60.315  12.234  0.00  0.00    -0.263 NA
ATOM     40  C   UNL     1      57.898  60.093  11.639  0.00  0.00    +0.111 A 
ENDBRANCH   4   3
ENDBRANCH  10   9
BRANCH  12  13
ATOM     13  N   UNL     1      65.259  53.889  18.557  0.00  0.00    -0.281 N 
ATOM     14  C   UNL     1      66.264  54.707  18.068  0.00  0.00    +0.248 C 
ATOM     30  O   UNL     1      66.297  55.156  16.932  0.00  0.00    -0.270 OA
ATOM     31  H   UNL     1      65.449  53.429  19.448  0.00  0.00    +0.155 HD
BRANCH  14  15
ATOM     15  C   UNL     1      67.404  55.066  18.965  0.00  0.00    +0.037 A 
ATOM     16  C   UNL     1      67.179  55.465  20.357  0.00  0.00    +0.013 A 
ATOM     17  C   UNL     1      68.295  55.823  21.196  0.00  0.00    +0.005 A 
ATOM     18  C   UNL     1      69.647  55.782  20.645  0.00  0.00    -0.033 A 
ATOM     28  C   UNL     1      69.842  55.378  19.263  0.00  0.00    +0.005 A 
ATOM     29  C   UNL     1      68.751  55.027  18.437  0.00  0.00    +0.013 A 
BRANCH  18  19
ATOM     19  C   UNL     1      70.895  56.168  21.462  0.00  0.00    +0.119 C 
BRANCH  19  20
ATOM     20  N   UNL     1      71.480  55.122  22.352  0.00  0.00    -0.302 NA
ATOM     21  C   UNL     1      70.925  55.205  23.777  0.00  0.00    +0.066 C 
ATOM     22  C   UNL     1      71.531  54.089  24.690  0.00  0.00    -0.064 C 
ATOM     23  N   UNL     1      73.056  54.209  24.694  0.00  0.00    +0.379 N 
ATOM     24  C   UNL     1      73.625  53.198  25.597  0.00  0.00    -0.096 C 
ATOM     25  H   UNL     1      73.314  55.213  25.104  0.00  0.00    -0.082 HD
ATOM     26  C   UNL     1      73.615  54.130  23.281  0.00  0.00    -0.064 C 
ATOM     27  C   UNL     1      72.985  55.225  22.375  0.00  0.00    +0.066 C 
ENDBRANCH  19  20
ENDBRANCH  18  19
ENDBRANCH  14  15
ENDBRANCH  12  13
TORSDOF 6
ENDMDL
MODEL 4
REMARK VINA RESULT:     -10.8      4.026     13.105
REMARK  Name = C:\Users\Docking\Desktop\test protocol\1iep_ligandH.pdb
REMARK  8 active torsions:
REMARK  status: ('A' for Active; 'I' for Inactive)
REMARK    1  A    between atoms: _5  and  _11
REMARK    2  A    between atoms: _19  and  _21
REMARK    3  A    between atoms: _22  and  _66
REMARK    4  A    between atoms: _27  and  _30
REMARK    5  A    between atoms: _32  and  _33
REMARK    6  A    between atoms: _38  and  _43
REMARK    7  A    between atoms: _43  and  _46
REMARK    8  A    between atoms: _53  and  _55
REMARK                            x       y       z     vdW  Elec       q    Type
REMARK                         _______ _______ _______ _____ _____    ______ ____
ROOT
ATOM     10  C   UNL     1      50.297  50.703  10.029  0.00  0.00    +0.038 A 
ATOM     11  C   UNL     1      51.207  51.790   9.988  0.00  0.00    +0.047 A 
ATOM     12  C   UNL     1      50.809  53.121  10.421  0.00  0.00    +0.035 A 
ATOM     32  C   UNL     1      49.477  53.308  10.893  0.00  0.00    +0.024 A 
ATOM     33  C   UNL     1      48.539  52.214  10.940  0.00  0.00    +0.007 A 
ATOM     34  C   UNL     1      48.925  50.900  10.512  0.00  0.00    -0.029 A 
ATOM     35  C   UNL     1      47.876  49.766  10.579  0.00  0.00    +0.045 C 
ENDROOT
BRANCH  10   9
ATOM      4  C   UNL     1      50.166  46.985   6.997  0.00  0.00    +0.077 A 
ATOM      5  C   UNL     1      49.124  47.584   6.214  0.00  0.00    +0.048 A 
ATOM      6  C   UNL     1      48.644  48.846   6.630  0.00  0.00    +0.116 A 
ATOM      7  N   UNL     1      49.175  49.455   7.746  0.00  0.00    -0.223 NA
ATOM      8  C   UNL     1      50.178  48.849   8.480  0.00  0.00    +0.220 A 
ATOM      9  N   UNL     1      50.732  49.446   9.601  0.00  0.00    -0.283 N 
ATOM     36  H   UNL     1      51.466  48.963  10.120  0.00  0.00    +0.155 HD
ATOM     37  N   UNL     1      50.652  47.643   8.104  0.00  0.00    -0.214 NA
BRANCH   4   3
ATOM      1  C   UNL     1      51.669  43.926   5.076  0.00  0.00    +0.020 A 
ATOM      2  C   UNL     1      51.076  45.220   5.324  0.00  0.00    +0.013 A 
ATOM      3  C   UNL     1      50.779  45.655   6.683  0.00  0.00    +0.019 A 
ATOM     38  C   UNL     1      51.098  44.750   7.777  0.00  0.00    +0.120 A 
ATOM     39  N   UNL     1      51.667  43.510   7.508  0.00  0.00    -0.263 NA
ATOM     40  C   UNL     1      51.956  43.080   6.204  0.00  0.00    +0.111 A 
ENDBRANCH   4   3
ENDBRANCH  10   9
BRANCH  12  13
ATOM     13  N   UNL     1      51.687  54.264  10.395  0.00  0.00    -0.281 N 
ATOM     14  C   UNL     1      51.349  55.593  10.195  0.00  0.00    +0.248 C 
ATOM     30  O   UNL     1      50.260  55.976   9.794  0.00  0.00    -0.270 OA
ATOM     31  H   UNL     1      52.678  54.071  10.541  0.00  0.00    +0.155 HD
BRANCH  14  15
ATOM     15  C   UNL     1      52.373  56.647  10.466  0.00  0.00    +0.037 A 
ATOM     16  C   UNL     1      52.430  57.874   9.667  0.00  0.00    +0.013 A 
ATOM     17  C   UNL     1      53.439  58.868   9.939  0.00  0.00    +0.005 A 
ATOM     18  C   UNL     1      54.398  58.638  11.016  0.00  0.00    -0.033 A 
ATOM     28  C   UNL     1      54.316  57.414  11.796  0.00  0.00    +0.005 A 
ATOM     29  C   UNL     1      53.329  56.438  11.532  0.00  0.00    +0.013 A 
BRANCH  18  19
ATOM     19  C   UNL     1      55.521  59.634  11.362  0.00  0.00    +0.119 C 
BRANCH  19  20
ATOM     20  N   UNL     1      56.860  59.064  11.699  0.00  0.00    -0.302 NA
ATOM     21  C   UNL     1      57.016  58.814  13.202  0.00  0.00    +0.066 C 
ATOM     22  C   UNL     1      58.414  58.197  13.534  0.00  0.00    -0.064 C 
ATOM     23  N   UNL     1      59.514  59.129  13.024  0.00  0.00    +0.379 N 
ATOM     24  C   UNL     1      60.829  58.581  13.386  0.00  0.00    -0.096 C 
ATOM     25  H   UNL     1      59.399  60.107  13.547  0.00  0.00    -0.082 HD
ATOM     26  C   UNL     1      59.365  59.386  11.531  0.00  0.00    -0.064 C 
ATOM     27  C   UNL     1      57.961  59.971  11.208  0.00  0.00    +0.066 C 
ENDBRANCH  19  20
ENDBRANCH  18  19
ENDBRANCH  14  15
ENDBRANCH  12  13
TORSDOF 6
ENDMDL
MODEL 5
REMARK VINA RESULT:     -10.7      4.102      6.882
REMARK  Name = C:\Users\Docking\Desktop\test protocol\1iep_ligandH.pdb
REMARK  8 active torsions:
REMARK  status: ('A' for Active; 'I' for Inactive)
REMARK    1  A    between atoms: _5  and  _11
REMARK    2  A    between atoms: _19  and  _21
REMARK    3  A    between atoms: _22  and  _66
REMARK    4  A    between atoms: _27  and  _30
REMARK    5  A    between atoms: _32  and  _33
REMARK    6  A    between atoms: _38  and  _43
REMARK    7  A    between atoms: _43  and  _46
REMARK    8  A    between atoms: _53  and  _55
REMARK                            x       y       z     vdW  Elec       q    Type
REMARK                         _______ _______ _______ _____ _____    ______ ____
ROOT
ATOM     10  C   UNL     1      62.574  54.247  17.573  0.00  0.00    +0.038 A 
ATOM     11  C   UNL     1      61.586  54.884  16.780  0.00  0.00    +0.047 A 
ATOM     12  C   UNL     1      61.895  56.076  16.007  0.00  0.00    +0.035 A 
ATOM     32  C   UNL     1      63.222  56.592  16.062  0.00  0.00    +0.024 A 
ATOM     33  C   UNL     1      64.239  55.958  16.864  0.00  0.00    +0.007 A 
ATOM     34  C   UNL     1      63.940  54.783  17.631  0.00  0.00    -0.029 A 
ATOM     35  C   UNL     1      65.067  54.149  18.478  0.00  0.00    +0.045 C 
ENDROOT
BRANCH  10   9
ATOM      4  C   UNL     1      61.119  49.680  17.825  0.00  0.00    +0.077 A 
ATOM      5  C   UNL     1      61.025  49.569  16.398  0.00  0.00    +0.048 A 
ATOM      6  C   UNL     1      61.354  50.713  15.635  0.00  0.00    +0.116 A 
ATOM      7  N   UNL     1      61.745  51.875  16.264  0.00  0.00    -0.223 NA
ATOM      8  C   UNL     1      61.823  51.948  17.643  0.00  0.00    +0.220 A 
ATOM      9  N   UNL     1      62.223  53.104  18.295  0.00  0.00    -0.283 N 
ATOM     36  H   UNL     1      62.260  53.121  19.314  0.00  0.00    +0.155 HD
ATOM     37  N   UNL     1      61.514  50.871  18.393  0.00  0.00    -0.214 NA
BRANCH   4   3
ATOM      1  C   UNL     1      61.122  47.306  20.934  0.00  0.00    +0.020 A 
ATOM      2  C   UNL     1      61.459  48.408  20.062  0.00  0.00    +0.013 A 
ATOM      3  C   UNL     1      60.808  48.558  18.767  0.00  0.00    +0.019 A 
ATOM     38  C   UNL     1      59.812  47.570  18.381  0.00  0.00    +0.120 A 
ATOM     39  N   UNL     1      59.510  46.519  19.241  0.00  0.00    -0.263 NA
ATOM     40  C   UNL     1      60.131  46.363  20.489  0.00  0.00    +0.111 A 
ENDBRANCH   4   3
ENDBRANCH  10   9
BRANCH  12  13
ATOM     13  N   UNL     1      60.930  56.770  15.190  0.00  0.00    -0.281 N 
ATOM     14  C   UNL     1      60.349  56.341  14.008  0.00  0.00    +0.248 C 
ATOM     30  O   UNL     1      60.734  55.380  13.358  0.00  0.00    -0.270 OA
ATOM     31  H   UNL     1      60.641  57.690  15.523  0.00  0.00    +0.155 HD
BRANCH  14  15
ATOM     15  C   UNL     1      59.182  57.097  13.461  0.00  0.00    +0.037 A 
ATOM     16  C   UNL     1      58.374  57.970  14.316  0.00  0.00    +0.013 A 
ATOM     17  C   UNL     1      57.243  58.675  13.767  0.00  0.00    +0.005 A 
ATOM     18  C   UNL     1      56.914  58.510  12.353  0.00  0.00    -0.033 A 
ATOM     28  C   UNL     1      57.736  57.642  11.526  0.00  0.00    +0.005 A 
ATOM     29  C   UNL     1      58.845  56.949  12.061  0.00  0.00    +0.013 A 
BRANCH  18  19
ATOM     19  C   UNL     1      55.713  59.207  11.687  0.00  0.00    +0.119 C 
BRANCH  19  20
ATOM     20  N   UNL     1      54.726  58.339  10.977  0.00  0.00    -0.302 NA
ATOM     21  C   UNL     1      53.680  59.160  10.218  0.00  0.00    +0.066 C 
ATOM     22  C   UNL     1      52.670  58.236   9.463  0.00  0.00    -0.064 C 
ATOM     23  N   UNL     1      51.998  57.294  10.463  0.00  0.00    +0.379 N 
ATOM     24  C   UNL     1      51.005  56.464   9.765  0.00  0.00    -0.096 C 
ATOM     25  H   UNL     1      51.452  57.922  11.205  0.00  0.00    -0.082 HD
ATOM     26  C   UNL     1      53.032  56.476  11.224  0.00  0.00    -0.064 C 
ATOM     27  C   UNL     1      54.048  57.403  11.947  0.00  0.00    +0.066 C 
ENDBRANCH  19  20
ENDBRANCH  18  19
ENDBRANCH  14  15
ENDBRANCH  12  13
TORSDOF 6
ENDMDL
