MODEL 1
REMARK VINA RESULT:     -10.4      0.000      0.000
REMARK  Name = C:\Users\Docking\Desktop\test protocol\1iep_ligandH.pdb
REMARK  8 active torsions:
REMARK  status: ('A' for Active; 'I' for Inactive)
REMARK    1  A    between atoms: _5  and  _11
REMARK    2  A    between atoms: _19  and  _21
REMARK    3  A    between atoms: _22  and  _66
REMARK    4  A    between atoms: _27  and  _30
REMARK    5  A    between atoms: _32  and  _33
REMARK    6  A    between atoms: _38  and  _43
REMARK    7  A    between atoms: _43  and  _46
REMARK    8  A    between atoms: _53  and  _55
REMARK                            x       y       z     vdW  Elec       q    Type
REMARK                         _______ _______ _______ _____ _____    ______ ____
ROOT
ATOM     10  C   UNL     1       3.930  23.009 133.324  0.00  0.00    +0.038 A 
ATOM     11  C   UNL     1       3.826  21.765 133.997  0.00  0.00    +0.047 A 
ATOM     12  C   UNL     1       4.908  21.268 134.831  0.00  0.00    +0.035 A 
ATOM     32  C   UNL     1       6.082  22.066 134.961  0.00  0.00    +0.024 A 
ATOM     33  C   UNL     1       6.205  23.333 134.283  0.00  0.00    +0.007 A 
ATOM     34  C   UNL     1       5.141  23.827 133.456  0.00  0.00    -0.029 A 
ATOM     35  C   UNL     1       5.331  25.189 132.748  0.00  0.00    +0.045 C 
ENDROOT
BRANCH  10   9
ATOM      4  C   UNL     1       1.739  23.536 129.085  0.00  0.00    +0.077 A 
ATOM      5  C   UNL     1       2.831  22.930 128.379  0.00  0.00    +0.048 A 
ATOM      6  C   UNL     1       3.941  22.503 129.143  0.00  0.00    +0.116 A 
ATOM      7  N   UNL     1       3.947  22.674 130.510  0.00  0.00    -0.223 NA
ATOM      8  C   UNL     1       2.878  23.263 131.160  0.00  0.00    +0.220 A 
ATOM      9  N   UNL     1       2.859  23.438 132.535  0.00  0.00    -0.283 N 
ATOM     36  H   UNL     1       2.055  23.884 132.976  0.00  0.00    +0.155 HD
ATOM     37  N   UNL     1       1.807  23.681 130.453  0.00  0.00    -0.214 NA
BRANCH   4   3
ATOM      1  C   UNL     1      -1.503  25.568 128.275  0.00  0.00    +0.020 A 
ATOM      2  C   UNL     1      -0.311  25.123 128.959  0.00  0.00    +0.013 A 
ATOM      3  C   UNL     1       0.495  24.035 128.419  0.00  0.00    +0.019 A 
ATOM     38  C   UNL     1       0.064  23.414 127.176  0.00  0.00    +0.120 A 
ATOM     39  N   UNL     1      -1.090  23.863 126.541  0.00  0.00    -0.263 NA
ATOM     40  C   UNL     1      -1.875  24.908 127.052  0.00  0.00    +0.111 A 
ENDBRANCH   4   3
ENDBRANCH  10   9
BRANCH  12  13
ATOM     13  N   UNL     1       4.863  20.009 135.532  0.00  0.00    -0.281 N 
ATOM     14  C   UNL     1       5.328  18.777 135.101  0.00  0.00    +0.248 C 
ATOM     30  O   UNL     1       5.664  18.528 133.953  0.00  0.00    -0.270 OA
ATOM     31  H   UNL     1       4.436  20.028 136.458  0.00  0.00    +0.155 HD
BRANCH  14  15
ATOM     15  C   UNL     1       5.420  17.656 136.085  0.00  0.00    +0.037 A 
ATOM     16  C   UNL     1       6.055  16.384 135.730  0.00  0.00    +0.013 A 
ATOM     17  C   UNL     1       6.115  15.312 136.693  0.00  0.00    +0.005 A 
ATOM     18  C   UNL     1       5.540  15.510 138.021  0.00  0.00    -0.033 A 
ATOM     28  C   UNL     1       4.921  16.783 138.348  0.00  0.00    +0.005 A 
ATOM     29  C   UNL     1       4.859  17.836 137.407  0.00  0.00    +0.013 A 
BRANCH  18  19
ATOM     19  C   UNL     1       5.540  14.414 139.104  0.00  0.00    +0.119 C 
BRANCH  19  20
ATOM     20  N   UNL     1       6.508  14.567 140.231  0.00  0.00    -0.302 NA
ATOM     21  C   UNL     1       7.171  13.238 140.603  0.00  0.00    +0.066 C 
ATOM     22  C   UNL     1       8.196  13.420 141.769  0.00  0.00    -0.064 C 
ATOM     23  N   UNL     1       7.486  14.029 142.979  0.00  0.00    +0.379 N 
ATOM     24  C   UNL     1       8.435  14.148 144.096  0.00  0.00    -0.096 C 
ATOM     25  H   UNL     1       6.683  13.322 143.291  0.00  0.00    -0.082 HD
ATOM     26  C   UNL     1       6.822  15.350 142.617  0.00  0.00    -0.064 C 
ATOM     27  C   UNL     1       5.827  15.163 141.438  0.00  0.00    +0.066 C 
ENDBRANCH  19  20
ENDBRANCH  18  19
ENDBRANCH  14  15
ENDBRANCH  12  13
TORSDOF 6
ENDMDL
MODEL 2
REMARK VINA RESULT:      -9.8      3.763     12.697
REMARK  Name = C:\Users\Docking\Desktop\test protocol\1iep_ligandH.pdb
REMARK  8 active torsions:
REMARK  status: ('A' for Active; 'I' for Inactive)
REMARK    1  A    between atoms: _5  and  _11
REMARK    2  A    between atoms: _19  and  _21
REMARK    3  A    between atoms: _22  and  _66
REMARK    4  A    between atoms: _27  and  _30
REMARK    5  A    between atoms: _32  and  _33
REMARK    6  A    between atoms: _38  and  _43
REMARK    7  A    between atoms: _43  and  _46
REMARK    8  A    between atoms: _53  and  _55
REMARK                            x       y       z     vdW  Elec       q    Type
REMARK                         _______ _______ _______ _____ _____    ______ ____
ROOT
ATOM     10  C   UNL     1       4.585  16.400 138.826  0.00  0.00    +0.038 A 
ATOM     11  C   UNL     1       4.406  17.405 137.842  0.00  0.00    +0.047 A 
ATOM     12  C   UNL     1       5.385  17.606 136.785  0.00  0.00    +0.035 A 
ATOM     32  C   UNL     1       6.534  16.763 136.759  0.00  0.00    +0.024 A 
ATOM     33  C   UNL     1       6.732  15.736 137.752  0.00  0.00    +0.007 A 
ATOM     34  C   UNL     1       5.771  15.535 138.799  0.00  0.00    -0.029 A 
ATOM     35  C   UNL     1       6.037  14.424 139.841  0.00  0.00    +0.045 C 
ENDROOT
BRANCH  10   9
ATOM      4  C   UNL     1       0.693  14.264 140.653  0.00  0.00    +0.077 A 
ATOM      5  C   UNL     1       0.570  13.390 139.522  0.00  0.00    +0.048 A 
ATOM      6  C   UNL     1       1.524  13.526 138.489  0.00  0.00    +0.116 A 
ATOM      7  N   UNL     1       2.523  14.470 138.590  0.00  0.00    -0.223 NA
ATOM      8  C   UNL     1       2.612  15.300 139.693  0.00  0.00    +0.220 A 
ATOM      9  N   UNL     1       3.613  16.251 139.818  0.00  0.00    -0.283 N 
ATOM     36  H   UNL     1       3.640  16.848 140.644  0.00  0.00    +0.155 HD
ATOM     37  N   UNL     1       1.712  15.190 140.692  0.00  0.00    -0.214 NA
BRANCH   4   3
ATOM      1  C   UNL     1      -1.024  15.075 144.072  0.00  0.00    +0.020 A 
ATOM      2  C   UNL     1      -0.099  15.140 142.964  0.00  0.00    +0.013 A 
ATOM      3  C   UNL     1      -0.236  14.240 141.826  0.00  0.00    +0.019 A 
ATOM     38  C   UNL     1      -1.328  13.278 141.840  0.00  0.00    +0.120 A 
ATOM     39  N   UNL     1      -2.203  13.238 142.922  0.00  0.00    -0.263 NA
ATOM     40  C   UNL     1      -2.080  14.098 144.023  0.00  0.00    +0.111 A 
ENDBRANCH   4   3
ENDBRANCH  10   9
BRANCH  12  13
ATOM     13  N   UNL     1       5.262  18.616 135.764  0.00  0.00    -0.281 N 
ATOM     14  C   UNL     1       5.612  19.954 135.842  0.00  0.00    +0.248 C 
ATOM     30  O   UNL     1       5.889  20.536 136.880  0.00  0.00    -0.270 OA
ATOM     31  H   UNL     1       4.868  18.307 134.875  0.00  0.00    +0.155 HD
BRANCH  14  15
ATOM     15  C   UNL     1       5.646  20.766 134.588  0.00  0.00    +0.037 A 
ATOM     16  C   UNL     1       5.523  20.136 133.271  0.00  0.00    +0.013 A 
ATOM     17  C   UNL     1       5.576  20.941 132.076  0.00  0.00    +0.005 A 
ATOM     18  C   UNL     1       5.751  22.387 132.194  0.00  0.00    -0.033 A 
ATOM     28  C   UNL     1       5.864  22.986 133.513  0.00  0.00    +0.005 A 
ATOM     29  C   UNL     1       5.814  22.200 134.686  0.00  0.00    +0.013 A 
BRANCH  18  19
ATOM     19  C   UNL     1       5.839  23.320 130.972  0.00  0.00    +0.119 C 
BRANCH  19  20
ATOM     20  N   UNL     1       4.555  23.723 130.324  0.00  0.00    -0.302 NA
ATOM     21  C   UNL     1       3.407  23.816 131.334  0.00  0.00    +0.066 C 
ATOM     22  C   UNL     1       2.077  24.260 130.643  0.00  0.00    -0.064 C 
ATOM     23  N   UNL     1       1.734  23.276 129.523  0.00  0.00    +0.379 N 
ATOM     24  C   UNL     1       0.454  23.657 128.909  0.00  0.00    -0.096 C 
ATOM     25  H   UNL     1       1.602  22.270 129.985  0.00  0.00    -0.082 HD
ATOM     26  C   UNL     1       2.872  23.175 128.516  0.00  0.00    -0.064 C 
ATOM     27  C   UNL     1       4.196  22.762 129.218  0.00  0.00    +0.066 C 
ENDBRANCH  19  20
ENDBRANCH  18  19
ENDBRANCH  14  15
ENDBRANCH  12  13
TORSDOF 6
ENDMDL
MODEL 3
REMARK VINA RESULT:      -9.8      3.914     12.805
REMARK  Name = C:\Users\Docking\Desktop\test protocol\1iep_ligandH.pdb
REMARK  8 active torsions:
REMARK  status: ('A' for Active; 'I' for Inactive)
REMARK    1  A    between atoms: _5  and  _11
REMARK    2  A    between atoms: _19  and  _21
REMARK    3  A    between atoms: _22  and  _66
REMARK    4  A    between atoms: _27  and  _30
REMARK    5  A    between atoms: _32  and  _33
REMARK    6  A    between atoms: _38  and  _43
REMARK    7  A    between atoms: _43  and  _46
REMARK    8  A    between atoms: _53  and  _55
REMARK                            x       y       z     vdW  Elec       q    Type
REMARK                         _______ _______ _______ _____ _____    ______ ____
ROOT
ATOM     10  C   UNL     1       3.097  14.996 137.238  0.00  0.00    +0.038 A 
ATOM     11  C   UNL     1       3.139  16.276 136.629  0.00  0.00    +0.047 A 
ATOM     12  C   UNL     1       4.225  16.651 135.738  0.00  0.00    +0.035 A 
ATOM     32  C   UNL     1       5.252  15.695 135.486  0.00  0.00    +0.024 A 
ATOM     33  C   UNL     1       5.226  14.390 136.097  0.00  0.00    +0.007 A 
ATOM     34  C   UNL     1       4.158  14.015 136.979  0.00  0.00    -0.029 A 
ATOM     35  C   UNL     1       4.185  12.604 137.611  0.00  0.00    +0.045 C 
ENDROOT
BRANCH  10   9
ATOM      4  C   UNL     1       0.989  14.968 141.550  0.00  0.00    +0.077 A 
ATOM      5  C   UNL     1       2.120  15.593 142.172  0.00  0.00    +0.048 A 
ATOM      6  C   UNL     1       3.227  15.899 141.349  0.00  0.00    +0.116 A 
ATOM      7  N   UNL     1       3.194  15.598 140.005  0.00  0.00    -0.223 NA
ATOM      8  C   UNL     1       2.088  14.994 139.436  0.00  0.00    +0.220 A 
ATOM      9  N   UNL     1       2.030  14.689 138.085  0.00  0.00    -0.283 N 
ATOM     36  H   UNL     1       1.199  14.236 137.706  0.00  0.00    +0.155 HD
ATOM     37  N   UNL     1       1.019  14.690 140.201  0.00  0.00    -0.214 NA
BRANCH   4   3
ATOM      1  C   UNL     1      -2.349  13.206 142.576  0.00  0.00    +0.020 A 
ATOM      2  C   UNL     1      -1.158  13.536 141.828  0.00  0.00    +0.013 A 
ATOM      3  C   UNL     1      -0.257  14.586 142.286  0.00  0.00    +0.019 A 
ATOM     38  C   UNL     1      -0.593  15.288 143.516  0.00  0.00    +0.120 A 
ATOM     39  N   UNL     1      -1.747  14.950 144.215  0.00  0.00    -0.263 NA
ATOM     40  C   UNL     1      -2.622  13.942 143.782  0.00  0.00    +0.111 A 
ENDBRANCH   4   3
ENDBRANCH  10   9
BRANCH  12  13
ATOM     13  N   UNL     1       4.325  17.939 135.098  0.00  0.00    -0.281 N 
ATOM     14  C   UNL     1       5.067  19.037 135.504  0.00  0.00    +0.248 C 
ATOM     30  O   UNL     1       5.593  19.148 136.601  0.00  0.00    -0.270 OA
ATOM     31  H   UNL     1       3.783  18.056 134.242  0.00  0.00    +0.155 HD
BRANCH  14  15
ATOM     15  C   UNL     1       5.237  20.182 134.559  0.00  0.00    +0.037 A 
ATOM     16  C   UNL     1       4.818  21.538 134.925  0.00  0.00    +0.013 A 
ATOM     17  C   UNL     1       4.977  22.622 133.989  0.00  0.00    +0.005 A 
ATOM     18  C   UNL     1       5.561  22.355 132.676  0.00  0.00    -0.033 A 
ATOM     28  C   UNL     1       5.973  21.002 132.341  0.00  0.00    +0.005 A 
ATOM     29  C   UNL     1       5.817  19.936 133.256  0.00  0.00    +0.013 A 
BRANCH  18  19
ATOM     19  C   UNL     1       5.749  23.447 131.607  0.00  0.00    +0.119 C 
BRANCH  19  20
ATOM     20  N   UNL     1       4.584  23.745 130.721  0.00  0.00    -0.302 NA
ATOM     21  C   UNL     1       3.279  23.875 131.513  0.00  0.00    +0.066 C 
ATOM     22  C   UNL     1       2.075  24.209 130.574  0.00  0.00    -0.064 C 
ATOM     23  N   UNL     1       1.952  23.125 129.501  0.00  0.00    +0.379 N 
ATOM     24  C   UNL     1       0.785  23.406 128.652  0.00  0.00    -0.096 C 
ATOM     25  H   UNL     1       1.768  22.156 130.020  0.00  0.00    -0.082 HD
ATOM     26  C   UNL     1       3.246  22.987 128.711  0.00  0.00    -0.064 C 
ATOM     27  C   UNL     1       4.441  22.685 129.657  0.00  0.00    +0.066 C 
ENDBRANCH  19  20
ENDBRANCH  18  19
ENDBRANCH  14  15
ENDBRANCH  12  13
TORSDOF 6
ENDMDL
MODEL 4
REMARK VINA RESULT:      -9.7      5.335      8.116
REMARK  Name = C:\Users\Docking\Desktop\test protocol\1iep_ligandH.pdb
REMARK  8 active torsions:
REMARK  status: ('A' for Active; 'I' for Inactive)
REMARK    1  A    between atoms: _5  and  _11
REMARK    2  A    between atoms: _19  and  _21
REMARK    3  A    between atoms: _22  and  _66
REMARK    4  A    between atoms: _27  and  _30
REMARK    5  A    between atoms: _32  and  _33
REMARK    6  A    between atoms: _38  and  _43
REMARK    7  A    between atoms: _43  and  _46
REMARK    8  A    between atoms: _53  and  _55
REMARK                            x       y       z     vdW  Elec       q    Type
REMARK                         _______ _______ _______ _____ _____    ______ ____
ROOT
ATOM     10  C   UNL     1       5.417  17.776 136.432  0.00  0.00    +0.038 A 
ATOM     11  C   UNL     1       4.424  17.649 137.437  0.00  0.00    +0.047 A 
ATOM     12  C   UNL     1       4.577  16.704 138.532  0.00  0.00    +0.035 A 
ATOM     32  C   UNL     1       5.757  15.906 138.574  0.00  0.00    +0.024 A 
ATOM     33  C   UNL     1       6.777  16.021 137.561  0.00  0.00    +0.007 A 
ATOM     34  C   UNL     1       6.629  16.950 136.477  0.00  0.00    -0.029 A 
ATOM     35  C   UNL     1       7.751  17.026 135.415  0.00  0.00    +0.045 C 
ENDROOT
BRANCH  10   9
ATOM      4  C   UNL     1       6.018  22.110 134.459  0.00  0.00    +0.077 A 
ATOM      5  C   UNL     1       6.771  22.583 135.585  0.00  0.00    +0.048 A 
ATOM      6  C   UNL     1       6.974  21.682 136.654  0.00  0.00    +0.116 A 
ATOM      7  N   UNL     1       6.460  20.406 136.591  0.00  0.00    -0.223 NA
ATOM      8  C   UNL     1       5.737  19.981 135.491  0.00  0.00    +0.220 A 
ATOM      9  N   UNL     1       5.217  18.699 135.403  0.00  0.00    -0.283 N 
ATOM     36  H   UNL     1       4.683  18.427 134.578  0.00  0.00    +0.155 HD
ATOM     37  N   UNL     1       5.527  20.823 134.458  0.00  0.00    -0.214 NA
BRANCH   4   3
ATOM      1  C   UNL     1       5.414  25.156 132.080  0.00  0.00    +0.020 A 
ATOM      2  C   UNL     1       5.706  24.399 133.276  0.00  0.00    +0.013 A 
ATOM      3  C   UNL     1       5.721  22.942 133.250  0.00  0.00    +0.019 A 
ATOM     38  C   UNL     1       5.435  22.276 131.988  0.00  0.00    +0.120 A 
ATOM     39  N   UNL     1       5.156  23.031 130.853  0.00  0.00    -0.263 NA
ATOM     40  C   UNL     1       5.137  24.433 130.866  0.00  0.00    +0.111 A 
ENDBRANCH   4   3
ENDBRANCH  10   9
BRANCH  12  13
ATOM     13  N   UNL     1       3.599  16.526 139.576  0.00  0.00    -0.281 N 
ATOM     14  C   UNL     1       2.829  15.405 139.838  0.00  0.00    +0.248 C 
ATOM     30  O   UNL     1       2.710  14.454 139.079  0.00  0.00    -0.270 OA
ATOM     31  H   UNL     1       3.457  17.323 140.197  0.00  0.00    +0.155 HD
BRANCH  14  15
ATOM     15  C   UNL     1       2.069  15.336 141.124  0.00  0.00    +0.037 A 
ATOM     16  C   UNL     1       2.681  15.742 142.391  0.00  0.00    +0.013 A 
ATOM     17  C   UNL     1       1.932  15.649 143.619  0.00  0.00    +0.005 A 
ATOM     18  C   UNL     1       0.560  15.149 143.584  0.00  0.00    -0.033 A 
ATOM     28  C   UNL     1      -0.025  14.758 142.312  0.00  0.00    +0.005 A 
ATOM     29  C   UNL     1       0.707  14.846 141.107  0.00  0.00    +0.013 A 
BRANCH  18  19
ATOM     19  C   UNL     1      -0.307  14.996 144.848  0.00  0.00    +0.119 C 
BRANCH  19  20
ATOM     20  N   UNL     1      -1.544  14.167 144.734  0.00  0.00    -0.302 NA
ATOM     21  C   UNL     1      -2.805  15.029 144.628  0.00  0.00    +0.066 C 
ATOM     22  C   UNL     1      -4.088  14.146 144.486  0.00  0.00    -0.064 C 
ATOM     23  N   UNL     1      -4.181  13.192 145.678  0.00  0.00    +0.379 N 
ATOM     24  C   UNL     1      -5.416  12.401 145.577  0.00  0.00    -0.096 C 
ATOM     25  H   UNL     1      -4.251  13.812 146.602  0.00  0.00    -0.082 HD
ATOM     26  C   UNL     1      -2.930  12.333 145.792  0.00  0.00    -0.064 C 
ATOM     27  C   UNL     1      -1.659  13.221 145.903  0.00  0.00    +0.066 C 
ENDBRANCH  19  20
ENDBRANCH  18  19
ENDBRANCH  14  15
ENDBRANCH  12  13
TORSDOF 6
ENDMDL
MODEL 5
REMARK VINA RESULT:      -9.5      4.166     12.792
REMARK  Name = C:\Users\Docking\Desktop\test protocol\1iep_ligandH.pdb
REMARK  8 active torsions:
REMARK  status: ('A' for Active; 'I' for Inactive)
REMARK    1  A    between atoms: _5  and  _11
REMARK    2  A    between atoms: _19  and  _21
REMARK    3  A    between atoms: _22  and  _66
REMARK    4  A    between atoms: _27  and  _30
REMARK    5  A    between atoms: _32  and  _33
REMARK    6  A    between atoms: _38  and  _43
REMARK    7  A    between atoms: _43  and  _46
REMARK    8  A    between atoms: _53  and  _55
REMARK                            x       y       z     vdW  Elec       q    Type
REMARK                         _______ _______ _______ _____ _____    ______ ____
ROOT
ATOM     10  C   UNL     1       3.691  15.288 138.830  0.00  0.00    +0.038 A 
ATOM     11  C   UNL     1       3.842  16.641 138.432  0.00  0.00    +0.047 A 
ATOM     12  C   UNL     1       5.105  17.133 137.902  0.00  0.00    +0.035 A 
ATOM     32  C   UNL     1       6.192  16.218 137.789  0.00  0.00    +0.024 A 
ATOM     33  C   UNL     1       6.056  14.840 138.190  0.00  0.00    +0.007 A 
ATOM     34  C   UNL     1       4.814  14.350 138.716  0.00  0.00    -0.029 A 
ATOM     35  C   UNL     1       4.728  12.864 139.136  0.00  0.00    +0.045 C 
ENDROOT
BRANCH  10   9
ATOM      4  C   UNL     1       0.494  14.854 142.383  0.00  0.00    +0.077 A 
ATOM      5  C   UNL     1       1.367  15.491 143.327  0.00  0.00    +0.048 A 
ATOM      6  C   UNL     1       2.633  15.909 142.859  0.00  0.00    +0.116 A 
ATOM      7  N   UNL     1       2.989  15.701 141.544  0.00  0.00    -0.223 NA
ATOM      8  C   UNL     1       2.123  15.082 140.661  0.00  0.00    +0.220 A 
ATOM      9  N   UNL     1       2.457  14.869 139.332  0.00  0.00    -0.283 N 
ATOM     36  H   UNL     1       1.794  14.403 138.714  0.00  0.00    +0.155 HD
ATOM     37  N   UNL     1       0.909  14.672 141.083  0.00  0.00    -0.214 NA
BRANCH   4   3
ATOM      1  C   UNL     1      -2.991  14.401 144.101  0.00  0.00    +0.020 A 
ATOM      2  C   UNL     1      -1.672  14.915 143.813  0.00  0.00    +0.013 A 
ATOM      3  C   UNL     1      -0.877  14.359 142.725  0.00  0.00    +0.019 A 
ATOM     38  C   UNL     1      -1.452  13.276 141.941  0.00  0.00    +0.120 A 
ATOM     39  N   UNL     1      -2.724  12.801 142.242  0.00  0.00    -0.263 NA
ATOM     40  C   UNL     1      -3.497  13.327 143.288  0.00  0.00    +0.111 A 
ENDBRANCH   4   3
ENDBRANCH  10   9
BRANCH  12  13
ATOM     13  N   UNL     1       5.320  18.497 137.489  0.00  0.00    -0.281 N 
ATOM     14  C   UNL     1       6.134  18.960 136.469  0.00  0.00    +0.248 C 
ATOM     30  O   UNL     1       6.971  18.282 135.891  0.00  0.00    -0.270 OA
ATOM     31  H   UNL     1       4.809  19.209 138.013  0.00  0.00    +0.155 HD
BRANCH  14  15
ATOM     15  C   UNL     1       6.012  20.386 136.037  0.00  0.00    +0.037 A 
ATOM     16  C   UNL     1       4.928  21.239 136.531  0.00  0.00    +0.013 A 
ATOM     17  C   UNL     1       4.823  22.606 136.086  0.00  0.00    +0.005 A 
ATOM     18  C   UNL     1       5.807  23.129 135.141  0.00  0.00    -0.033 A 
ATOM     28  C   UNL     1       6.875  22.262 134.671  0.00  0.00    +0.005 A 
ATOM     29  C   UNL     1       6.981  20.921 135.104  0.00  0.00    +0.013 A 
BRANCH  18  19
ATOM     19  C   UNL     1       5.761  24.568 134.595  0.00  0.00    +0.119 C 
BRANCH  19  20
ATOM     20  N   UNL     1       5.115  24.775 133.265  0.00  0.00    -0.302 NA
ATOM     21  C   UNL     1       3.809  23.986 133.131  0.00  0.00    +0.066 C 
ATOM     22  C   UNL     1       3.136  24.232 131.741  0.00  0.00    -0.064 C 
ATOM     23  N   UNL     1       4.115  23.851 130.629  0.00  0.00    +0.379 N 
ATOM     24  C   UNL     1       3.465  24.025 129.322  0.00  0.00    -0.096 C 
ATOM     25  H   UNL     1       4.355  22.768 130.746  0.00  0.00    -0.082 HD
ATOM     26  C   UNL     1       5.418  24.628 130.756  0.00  0.00    -0.064 C 
ATOM     27  C   UNL     1       6.063  24.400 132.152  0.00  0.00    +0.066 C 
ENDBRANCH  19  20
ENDBRANCH  18  19
ENDBRANCH  14  15
ENDBRANCH  12  13
TORSDOF 6
ENDMDL
