MODEL 1
REMARK VINA RESULT:     -10.0      0.000      0.000
REMARK  Name = C:\Users\Docking\Desktop\test protocol\1iep_ligandH.pdb
REMARK  8 active torsions:
REMARK  status: ('A' for Active; 'I' for Inactive)
REMARK    1  A    between atoms: _5  and  _11
REMARK    2  A    between atoms: _19  and  _21
REMARK    3  A    between atoms: _22  and  _66
REMARK    4  A    between atoms: _27  and  _30
REMARK    5  A    between atoms: _32  and  _33
REMARK    6  A    between atoms: _38  and  _43
REMARK    7  A    between atoms: _43  and  _46
REMARK    8  A    between atoms: _53  and  _55
REMARK                            x       y       z     vdW  Elec       q    Type
REMARK                         _______ _______ _______ _____ _____    ______ ____
ROOT
ATOM     10  C   UNL     1       6.700  18.838 137.118  0.00  0.00    +0.038 A 
ATOM     11  C   UNL     1       5.669  19.531 136.435  0.00  0.00    +0.047 A 
ATOM     12  C   UNL     1       5.834  19.954 135.053  0.00  0.00    +0.035 A 
ATOM     32  C   UNL     1       7.063  19.652 134.396  0.00  0.00    +0.024 A 
ATOM     33  C   UNL     1       8.123  18.949 135.076  0.00  0.00    +0.007 A 
ATOM     34  C   UNL     1       7.966  18.532 136.440  0.00  0.00    -0.029 A 
ATOM     35  C   UNL     1       9.138  17.787 137.122  0.00  0.00    +0.045 C 
ENDROOT
BRANCH  10   9
ATOM      4  C   UNL     1       5.217  15.698 140.432  0.00  0.00    +0.077 A 
ATOM      5  C   UNL     1       4.807  14.751 139.436  0.00  0.00    +0.048 A 
ATOM      6  C   UNL     1       4.988  15.113 138.082  0.00  0.00    +0.116 A 
ATOM      7  N   UNL     1       5.540  16.334 137.760  0.00  0.00    -0.223 NA
ATOM      8  C   UNL     1       5.923  17.225 138.745  0.00  0.00    +0.220 A 
ATOM      9  N   UNL     1       6.488  18.455 138.445  0.00  0.00    -0.283 N 
ATOM     36  H   UNL     1       6.751  19.087 139.200  0.00  0.00    +0.155 HD
ATOM     37  N   UNL     1       5.760  16.903 140.045  0.00  0.00    -0.214 NA
BRANCH   4   3
ATOM      1  C   UNL     1       6.056  14.890 144.166  0.00  0.00    +0.020 A 
ATOM      2  C   UNL     1       6.230  15.110 142.749  0.00  0.00    +0.013 A 
ATOM      3  C   UNL     1       5.094  15.459 141.905  0.00  0.00    +0.019 A 
ATOM     38  C   UNL     1       3.786  15.581 142.531  0.00  0.00    +0.120 A 
ATOM     39  N   UNL     1       3.649  15.362 143.899  0.00  0.00    -0.263 NA
ATOM     40  C   UNL     1       4.735  15.024 144.720  0.00  0.00    +0.111 A 
ENDBRANCH   4   3
ENDBRANCH  10   9
BRANCH  12  13
ATOM     13  N   UNL     1       4.825  20.667 134.310  0.00  0.00    -0.281 N 
ATOM     14  C   UNL     1       4.757  22.028 134.057  0.00  0.00    +0.248 C 
ATOM     30  O   UNL     1       5.444  22.870 134.615  0.00  0.00    -0.270 OA
ATOM     31  H   UNL     1       4.070  20.101 133.924  0.00  0.00    +0.155 HD
BRANCH  14  15
ATOM     15  C   UNL     1       3.773  22.526 133.048  0.00  0.00    +0.037 A 
ATOM     16  C   UNL     1       4.143  23.549 132.067  0.00  0.00    +0.013 A 
ATOM     17  C   UNL     1       3.169  24.024 131.116  0.00  0.00    +0.005 A 
ATOM     18  C   UNL     1       1.816  23.474 131.140  0.00  0.00    -0.033 A 
ATOM     28  C   UNL     1       1.478  22.456 132.121  0.00  0.00    +0.005 A 
ATOM     29  C   UNL     1       2.429  21.989 133.055  0.00  0.00    +0.013 A 
BRANCH  18  19
ATOM     19  C   UNL     1       0.708  23.937 130.177  0.00  0.00    +0.119 C 
BRANCH  19  20
ATOM     20  N   UNL     1      -0.520  23.092 130.090  0.00  0.00    -0.302 NA
ATOM     21  C   UNL     1      -0.359  21.945 129.089  0.00  0.00    +0.066 C 
ATOM     22  C   UNL     1      -1.645  21.058 129.028  0.00  0.00    -0.064 C 
ATOM     23  N   UNL     1      -2.847  21.931 128.663  0.00  0.00    +0.379 N 
ATOM     24  C   UNL     1      -4.047  21.090 128.548  0.00  0.00    -0.096 C 
ATOM     25  H   UNL     1      -2.649  22.377 127.661  0.00  0.00    -0.082 HD
ATOM     26  C   UNL     1      -3.013  23.075 129.652  0.00  0.00    -0.064 C 
ATOM     27  C   UNL     1      -1.719  23.933 129.727  0.00  0.00    +0.066 C 
ENDBRANCH  19  20
ENDBRANCH  18  19
ENDBRANCH  14  15
ENDBRANCH  12  13
TORSDOF 6
ENDMDL
MODEL 2
REMARK VINA RESULT:      -9.5      4.561     12.658
REMARK  Name = C:\Users\Docking\Desktop\test protocol\1iep_ligandH.pdb
REMARK  8 active torsions:
REMARK  status: ('A' for Active; 'I' for Inactive)
REMARK    1  A    between atoms: _5  and  _11
REMARK    2  A    between atoms: _19  and  _21
REMARK    3  A    between atoms: _22  and  _66
REMARK    4  A    between atoms: _27  and  _30
REMARK    5  A    between atoms: _32  and  _33
REMARK    6  A    between atoms: _38  and  _43
REMARK    7  A    between atoms: _43  and  _46
REMARK    8  A    between atoms: _53  and  _55
REMARK                            x       y       z     vdW  Elec       q    Type
REMARK                         _______ _______ _______ _____ _____    ______ ____
ROOT
ATOM     10  C   UNL     1       5.981  17.539 137.458  0.00  0.00    +0.038 A 
ATOM     11  C   UNL     1       5.027  17.419 138.501  0.00  0.00    +0.047 A 
ATOM     12  C   UNL     1       5.205  16.455 139.577  0.00  0.00    +0.035 A 
ATOM     32  C   UNL     1       6.368  15.632 139.560  0.00  0.00    +0.024 A 
ATOM     33  C   UNL     1       7.347  15.740 138.507  0.00  0.00    +0.007 A 
ATOM     34  C   UNL     1       7.176  16.687 137.442  0.00  0.00    -0.029 A 
ATOM     35  C   UNL     1       8.254  16.755 136.336  0.00  0.00    +0.045 C 
ENDROOT
BRANCH  10   9
ATOM      4  C   UNL     1       6.607  21.882 135.513  0.00  0.00    +0.077 A 
ATOM      5  C   UNL     1       7.423  22.320 136.608  0.00  0.00    +0.048 A 
ATOM      6  C   UNL     1       7.651  21.400 137.656  0.00  0.00    +0.116 A 
ATOM      7  N   UNL     1       7.100  20.138 137.601  0.00  0.00    -0.223 NA
ATOM      8  C   UNL     1       6.317  19.748 136.531  0.00  0.00    +0.220 A 
ATOM      9  N   UNL     1       5.759  18.481 136.451  0.00  0.00    -0.283 N 
ATOM     36  H   UNL     1       5.181  18.234 135.648  0.00  0.00    +0.155 HD
ATOM     37  N   UNL     1       6.083  20.608 135.518  0.00  0.00    -0.214 NA
BRANCH   4   3
ATOM      1  C   UNL     1       6.283  24.933 133.087  0.00  0.00    +0.020 A 
ATOM      2  C   UNL     1       6.624  24.151 134.253  0.00  0.00    +0.013 A 
ATOM      3  C   UNL     1       6.278  22.737 134.329  0.00  0.00    +0.019 A 
ATOM     38  C   UNL     1       5.583  22.140 133.199  0.00  0.00    +0.120 A 
ATOM     39  N   UNL     1       5.267  22.918 132.089  0.00  0.00    -0.263 NA
ATOM     40  C   UNL     1       5.593  24.280 132.006  0.00  0.00    +0.111 A 
ENDBRANCH   4   3
ENDBRANCH  10   9
BRANCH  12  13
ATOM     13  N   UNL     1       4.267  16.283 140.658  0.00  0.00    -0.281 N 
ATOM     14  C   UNL     1       3.532  15.152 140.975  0.00  0.00    +0.248 C 
ATOM     30  O   UNL     1       3.410  14.180 140.245  0.00  0.00    -0.270 OA
ATOM     31  H   UNL     1       4.127  17.092 141.262  0.00  0.00    +0.155 HD
BRANCH  14  15
ATOM     15  C   UNL     1       2.817  15.100 142.287  0.00  0.00    +0.037 A 
ATOM     16  C   UNL     1       3.491  15.471 143.534  0.00  0.00    +0.013 A 
ATOM     17  C   UNL     1       2.784  15.395 144.788  0.00  0.00    +0.005 A 
ATOM     18  C   UNL     1       1.393  14.948 144.800  0.00  0.00    -0.033 A 
ATOM     28  C   UNL     1       0.748  14.591 143.547  0.00  0.00    +0.005 A 
ATOM     29  C   UNL     1       1.438  14.663 142.317  0.00  0.00    +0.013 A 
BRANCH  18  19
ATOM     19  C   UNL     1       0.568  14.817 146.094  0.00  0.00    +0.119 C 
BRANCH  19  20
ATOM     20  N   UNL     1      -0.673  13.987 146.032  0.00  0.00    -0.302 NA
ATOM     21  C   UNL     1      -1.932  14.847 145.886  0.00  0.00    +0.066 C 
ATOM     22  C   UNL     1      -3.218  13.962 145.801  0.00  0.00    -0.064 C 
ATOM     23  N   UNL     1      -3.308  13.077 147.045  0.00  0.00    +0.379 N 
ATOM     24  C   UNL     1      -4.546  12.286 146.996  0.00  0.00    -0.096 C 
ATOM     25  H   UNL     1      -3.370  13.747 147.933  0.00  0.00    -0.082 HD
ATOM     26  C   UNL     1      -2.059  12.221 147.199  0.00  0.00    -0.064 C 
ATOM     27  C   UNL     1      -0.784  13.108 147.253  0.00  0.00    +0.066 C 
ENDBRANCH  19  20
ENDBRANCH  18  19
ENDBRANCH  14  15
ENDBRANCH  12  13
TORSDOF 6
ENDMDL
MODEL 3
REMARK VINA RESULT:      -9.1      1.940      3.108
REMARK  Name = C:\Users\Docking\Desktop\test protocol\1iep_ligandH.pdb
REMARK  8 active torsions:
REMARK  status: ('A' for Active; 'I' for Inactive)
REMARK    1  A    between atoms: _5  and  _11
REMARK    2  A    between atoms: _19  and  _21
REMARK    3  A    between atoms: _22  and  _66
REMARK    4  A    between atoms: _27  and  _30
REMARK    5  A    between atoms: _32  and  _33
REMARK    6  A    between atoms: _38  and  _43
REMARK    7  A    between atoms: _43  and  _46
REMARK    8  A    between atoms: _53  and  _55
REMARK                            x       y       z     vdW  Elec       q    Type
REMARK                         _______ _______ _______ _____ _____    ______ ____
ROOT
ATOM     10  C   UNL     1       5.230  21.350 137.370  0.00  0.00    +0.038 A 
ATOM     11  C   UNL     1       4.304  21.542 136.313  0.00  0.00    +0.047 A 
ATOM     12  C   UNL     1       4.319  22.755 135.511  0.00  0.00    +0.035 A 
ATOM     32  C   UNL     1       5.292  23.752 135.812  0.00  0.00    +0.024 A 
ATOM     33  C   UNL     1       6.240  23.574 136.883  0.00  0.00    +0.007 A 
ATOM     34  C   UNL     1       6.229  22.380 137.679  0.00  0.00    -0.029 A 
ATOM     35  C   UNL     1       7.265  22.245 138.820  0.00  0.00    +0.045 C 
ENDROOT
BRANCH  10   9
ATOM      4  C   UNL     1       6.656  16.860 138.288  0.00  0.00    +0.077 A 
ATOM      5  C   UNL     1       7.578  16.865 137.189  0.00  0.00    +0.048 A 
ATOM      6  C   UNL     1       7.649  18.040 136.407  0.00  0.00    +0.116 A 
ATOM      7  N   UNL     1       6.854  19.123 136.712  0.00  0.00    -0.223 NA
ATOM      8  C   UNL     1       5.975  19.085 137.778  0.00  0.00    +0.220 A 
ATOM      9  N   UNL     1       5.171  20.165 138.108  0.00  0.00    -0.283 N 
ATOM     36  H   UNL     1       4.530  20.095 138.897  0.00  0.00    +0.155 HD
ATOM     37  N   UNL     1       5.887  17.974 138.539  0.00  0.00    -0.214 NA
BRANCH   4   3
ATOM      1  C   UNL     1       6.434  14.635 141.498  0.00  0.00    +0.020 A 
ATOM      2  C   UNL     1       6.627  15.792 140.654  0.00  0.00    +0.013 A 
ATOM      3  C   UNL     1       6.469  15.694 139.208  0.00  0.00    +0.019 A 
ATOM     38  C   UNL     1       6.111  14.401 138.644  0.00  0.00    +0.120 A 
ATOM     39  N   UNL     1       5.933  13.304 139.481  0.00  0.00    -0.263 NA
ATOM     40  C   UNL     1       6.084  13.386 140.874  0.00  0.00    +0.111 A 
ENDBRANCH   4   3
ENDBRANCH  10   9
BRANCH  12  13
ATOM     13  N   UNL     1       3.398  23.010 134.431  0.00  0.00    -0.281 N 
ATOM     14  C   UNL     1       3.611  22.837 133.073  0.00  0.00    +0.248 C 
ATOM     30  O   UNL     1       4.704  22.639 132.564  0.00  0.00    -0.270 OA
ATOM     31  H   UNL     1       2.479  23.359 134.699  0.00  0.00    +0.155 HD
BRANCH  14  15
ATOM     15  C   UNL     1       2.442  22.909 132.144  0.00  0.00    +0.037 A 
ATOM     16  C   UNL     1       2.338  23.966 131.134  0.00  0.00    +0.013 A 
ATOM     17  C   UNL     1       1.191  24.023 130.263  0.00  0.00    +0.005 A 
ATOM     18  C   UNL     1       0.140  23.017 130.396  0.00  0.00    -0.033 A 
ATOM     28  C   UNL     1       0.271  21.977 131.402  0.00  0.00    +0.005 A 
ATOM     29  C   UNL     1       1.393  21.919 132.259  0.00  0.00    +0.013 A 
BRANCH  18  19
ATOM     19  C   UNL     1      -1.129  23.013 129.522  0.00  0.00    +0.119 C 
BRANCH  19  20
ATOM     20  N   UNL     1      -1.805  21.699 129.305  0.00  0.00    -0.302 NA
ATOM     21  C   UNL     1      -1.747  21.259 127.839  0.00  0.00    +0.066 C 
ATOM     22  C   UNL     1      -2.439  19.872 127.634  0.00  0.00    -0.064 C 
ATOM     23  N   UNL     1      -3.887  19.951 128.118  0.00  0.00    +0.379 N 
ATOM     24  C   UNL     1      -4.558  18.666 127.873  0.00  0.00    -0.096 C 
ATOM     25  H   UNL     1      -4.406  20.726 127.507  0.00  0.00    -0.082 HD
ATOM     26  C   UNL     1      -3.954  20.391 129.574  0.00  0.00    -0.064 C 
ATOM     27  C   UNL     1      -3.238  21.756 129.773  0.00  0.00    +0.066 C 
ENDBRANCH  19  20
ENDBRANCH  18  19
ENDBRANCH  14  15
ENDBRANCH  12  13
TORSDOF 6
ENDMDL
MODEL 4
REMARK VINA RESULT:      -8.9      5.278     12.499
REMARK  Name = C:\Users\Docking\Desktop\test protocol\1iep_ligandH.pdb
REMARK  8 active torsions:
REMARK  status: ('A' for Active; 'I' for Inactive)
REMARK    1  A    between atoms: _5  and  _11
REMARK    2  A    between atoms: _19  and  _21
REMARK    3  A    between atoms: _22  and  _66
REMARK    4  A    between atoms: _27  and  _30
REMARK    5  A    between atoms: _32  and  _33
REMARK    6  A    between atoms: _38  and  _43
REMARK    7  A    between atoms: _43  and  _46
REMARK    8  A    between atoms: _53  and  _55
REMARK                            x       y       z     vdW  Elec       q    Type
REMARK                         _______ _______ _______ _____ _____    ______ ____
ROOT
ATOM     10  C   UNL     1       5.943  16.516 139.139  0.00  0.00    +0.038 A 
ATOM     11  C   UNL     1       5.017  16.335 140.198  0.00  0.00    +0.047 A 
ATOM     12  C   UNL     1       4.662  15.005 140.669  0.00  0.00    +0.035 A 
ATOM     32  C   UNL     1       5.271  13.881 140.039  0.00  0.00    +0.024 A 
ATOM     33  C   UNL     1       6.213  14.046 138.959  0.00  0.00    +0.007 A 
ATOM     34  C   UNL     1       6.565  15.356 138.490  0.00  0.00    -0.029 A 
ATOM     35  C   UNL     1       7.576  15.473 137.325  0.00  0.00    +0.045 C 
ENDROOT
BRANCH  10   9
ATOM      4  C   UNL     1       5.063  20.443 136.524  0.00  0.00    +0.077 A 
ATOM      5  C   UNL     1       3.914  19.846 135.905  0.00  0.00    +0.048 A 
ATOM      6  C   UNL     1       3.589  18.524 136.282  0.00  0.00    +0.116 A 
ATOM      7  N   UNL     1       4.360  17.858 137.210  0.00  0.00    -0.223 NA
ATOM      8  C   UNL     1       5.462  18.463 137.786  0.00  0.00    +0.220 A 
ATOM      9  N   UNL     1       6.247  17.815 138.728  0.00  0.00    -0.283 N 
ATOM     36  H   UNL     1       7.056  18.293 139.124  0.00  0.00    +0.155 HD
ATOM     37  N   UNL     1       5.795  19.724 137.442  0.00  0.00    -0.214 NA
BRANCH   4   3
ATOM      1  C   UNL     1       7.343  23.544 135.830  0.00  0.00    +0.020 A 
ATOM      2  C   UNL     1       6.942  22.186 136.113  0.00  0.00    +0.013 A 
ATOM      3  C   UNL     1       5.533  21.834 136.232  0.00  0.00    +0.019 A 
ATOM     38  C   UNL     1       4.546  22.890 136.057  0.00  0.00    +0.120 A 
ATOM     39  N   UNL     1       4.962  24.190 135.787  0.00  0.00    -0.263 NA
ATOM     40  C   UNL     1       6.316  24.540 135.671  0.00  0.00    +0.111 A 
ENDBRANCH   4   3
ENDBRANCH  10   9
BRANCH  12  13
ATOM     13  N   UNL     1       3.723  14.759 141.735  0.00  0.00    -0.281 N 
ATOM     14  C   UNL     1       3.795  15.191 143.049  0.00  0.00    +0.248 C 
ATOM     30  O   UNL     1       4.790  15.678 143.563  0.00  0.00    -0.270 OA
ATOM     31  H   UNL     1       2.906  14.199 141.491  0.00  0.00    +0.155 HD
BRANCH  14  15
ATOM     15  C   UNL     1       2.590  15.048 143.923  0.00  0.00    +0.037 A 
ATOM     16  C   UNL     1       1.263  14.804 143.353  0.00  0.00    +0.013 A 
ATOM     17  C   UNL     1       0.115  14.687 144.217  0.00  0.00    +0.005 A 
ATOM     18  C   UNL     1       0.291  14.812 145.662  0.00  0.00    -0.033 A 
ATOM     28  C   UNL     1       1.620  15.050 146.201  0.00  0.00    +0.005 A 
ATOM     29  C   UNL     1       2.747  15.166 145.357  0.00  0.00    +0.013 A 
BRANCH  18  19
ATOM     19  C   UNL     1      -0.881  14.722 146.658  0.00  0.00    +0.119 C 
BRANCH  19  20
ATOM     20  N   UNL     1      -2.173  14.176 146.146  0.00  0.00    -0.302 NA
ATOM     21  C   UNL     1      -3.311  15.195 146.255  0.00  0.00    +0.066 C 
ATOM     22  C   UNL     1      -4.650  14.614 145.694  0.00  0.00    -0.064 C 
ATOM     23  N   UNL     1      -5.000  13.329 146.446  0.00  0.00    +0.379 N 
ATOM     24  C   UNL     1      -6.288  12.812 145.961  0.00  0.00    -0.096 C 
ATOM     25  H   UNL     1      -5.124  13.590 147.523  0.00  0.00    -0.082 HD
ATOM     26  C   UNL     1      -3.872  12.311 146.345  0.00  0.00    -0.064 C 
ATOM     27  C   UNL     1      -2.540  12.908 146.877  0.00  0.00    +0.066 C 
ENDBRANCH  19  20
ENDBRANCH  18  19
ENDBRANCH  14  15
ENDBRANCH  12  13
TORSDOF 6
ENDMDL
MODEL 5
REMARK VINA RESULT:      -8.8      4.478     12.557
REMARK  Name = C:\Users\Docking\Desktop\test protocol\1iep_ligandH.pdb
REMARK  8 active torsions:
REMARK  status: ('A' for Active; 'I' for Inactive)
REMARK    1  A    between atoms: _5  and  _11
REMARK    2  A    between atoms: _19  and  _21
REMARK    3  A    between atoms: _22  and  _66
REMARK    4  A    between atoms: _27  and  _30
REMARK    5  A    between atoms: _32  and  _33
REMARK    6  A    between atoms: _38  and  _43
REMARK    7  A    between atoms: _43  and  _46
REMARK    8  A    between atoms: _53  and  _55
REMARK                            x       y       z     vdW  Elec       q    Type
REMARK                         _______ _______ _______ _____ _____    ______ ____
ROOT
ATOM     10  C   UNL     1       5.113  16.481 137.347  0.00  0.00    +0.038 A 
ATOM     11  C   UNL     1       4.160  16.136 138.338  0.00  0.00    +0.047 A 
ATOM     12  C   UNL     1       4.387  15.021 139.245  0.00  0.00    +0.035 A 
ATOM     32  C   UNL     1       5.599  14.282 139.115  0.00  0.00    +0.024 A 
ATOM     33  C   UNL     1       6.578  14.618 138.112  0.00  0.00    +0.007 A 
ATOM     34  C   UNL     1       6.358  15.715 137.213  0.00  0.00    -0.029 A 
ATOM     35  C   UNL     1       7.439  16.027 136.152  0.00  0.00    +0.045 C 
ENDROOT
BRANCH  10   9
ATOM      4  C   UNL     1       5.480  21.116 136.153  0.00  0.00    +0.077 A 
ATOM      5  C   UNL     1       6.252  21.417 137.324  0.00  0.00    +0.048 A 
ATOM      6  C   UNL     1       6.527  20.353 138.211  0.00  0.00    +0.116 A 
ATOM      7  N   UNL     1       6.060  19.086 137.938  0.00  0.00    -0.223 NA
ATOM      8  C   UNL     1       5.316  18.829 136.801  0.00  0.00    +0.220 A 
ATOM      9  N   UNL     1       4.843  17.561 136.503  0.00  0.00    -0.283 N 
ATOM     36  H   UNL     1       4.291  17.415 135.657  0.00  0.00    +0.155 HD
ATOM     37  N   UNL     1       5.039  19.829 135.938  0.00  0.00    -0.214 NA
BRANCH   4   3
ATOM      1  C   UNL     1       5.642  24.082 133.609  0.00  0.00    +0.020 A 
ATOM      2  C   UNL     1       6.051  23.122 134.608  0.00  0.00    +0.013 A 
ATOM      3  C   UNL     1       5.110  22.133 135.119  0.00  0.00    +0.019 A 
ATOM     38  C   UNL     1       3.753  22.142 134.593  0.00  0.00    +0.120 A 
ATOM     39  N   UNL     1       3.388  23.080 133.632  0.00  0.00    -0.263 NA
ATOM     40  C   UNL     1       4.284  24.038 133.134  0.00  0.00    +0.111 A 
ENDBRANCH   4   3
ENDBRANCH  10   9
BRANCH  12  13
ATOM     13  N   UNL     1       3.453  14.619 140.266  0.00  0.00    -0.281 N 
ATOM     14  C   UNL     1       3.159  15.267 141.455  0.00  0.00    +0.248 C 
ATOM     30  O   UNL     1       3.815  16.185 141.922  0.00  0.00    -0.270 OA
ATOM     31  H   UNL     1       2.946  13.751 140.092  0.00  0.00    +0.155 HD
BRANCH  14  15
ATOM     15  C   UNL     1       1.972  14.820 142.247  0.00  0.00    +0.037 A 
ATOM     16  C   UNL     1       1.683  15.385 143.567  0.00  0.00    +0.013 A 
ATOM     17  C   UNL     1       0.542  14.924 144.317  0.00  0.00    +0.005 A 
ATOM     18  C   UNL     1      -0.321  13.892 143.746  0.00  0.00    -0.033 A 
ATOM     28  C   UNL     1      -0.014  13.353 142.432  0.00  0.00    +0.005 A 
ATOM     29  C   UNL     1       1.104  13.802 141.694  0.00  0.00    +0.013 A 
BRANCH  18  19
ATOM     19  C   UNL     1      -1.548  13.326 144.484  0.00  0.00    +0.119 C 
BRANCH  19  20
ATOM     20  N   UNL     1      -1.852  13.885 145.835  0.00  0.00    -0.302 NA
ATOM     21  C   UNL     1      -2.265  12.796 146.829  0.00  0.00    +0.066 C 
ATOM     22  C   UNL     1      -2.558  13.396 148.243  0.00  0.00    -0.064 C 
ATOM     23  N   UNL     1      -3.647  14.463 148.125  0.00  0.00    +0.379 N 
ATOM     24  C   UNL     1      -3.965  14.988 149.461  0.00  0.00    -0.096 C 
ATOM     25  H   UNL     1      -4.564  13.968 147.729  0.00  0.00    -0.082 HD
ATOM     26  C   UNL     1      -3.245  15.549 147.137  0.00  0.00    -0.064 C 
ATOM     27  C   UNL     1      -2.929  14.939 145.743  0.00  0.00    +0.066 C 
ENDBRANCH  19  20
ENDBRANCH  18  19
ENDBRANCH  14  15
ENDBRANCH  12  13
TORSDOF 6
ENDMDL
