MODEL 1
REMARK VINA RESULT:     -10.4      0.000      0.000
REMARK  Name = C:\Users\Docking\Desktop\test protocol\1iep_ligandH.pdb
REMARK  8 active torsions:
REMARK  status: ('A' for Active; 'I' for Inactive)
REMARK    1  A    between atoms: _5  and  _11
REMARK    2  A    between atoms: _19  and  _21
REMARK    3  A    between atoms: _22  and  _66
REMARK    4  A    between atoms: _27  and  _30
REMARK    5  A    between atoms: _32  and  _33
REMARK    6  A    between atoms: _38  and  _43
REMARK    7  A    between atoms: _43  and  _46
REMARK    8  A    between atoms: _53  and  _55
REMARK                            x       y       z     vdW  Elec       q    Type
REMARK                         _______ _______ _______ _____ _____    ______ ____
ROOT
ATOM     10  C   UNL     1      27.790  57.516  49.388  0.00  0.00    +0.038 A 
ATOM     11  C   UNL     1      27.152  57.974  50.569  0.00  0.00    +0.047 A 
ATOM     12  C   UNL     1      27.273  59.358  51.001  0.00  0.00    +0.035 A 
ATOM     32  C   UNL     1      28.050  60.249  50.204  0.00  0.00    +0.024 A 
ATOM     33  C   UNL     1      28.705  59.800  49.001  0.00  0.00    +0.007 A 
ATOM     34  C   UNL     1      28.591  58.435  48.571  0.00  0.00    -0.029 A 
ATOM     35  C   UNL     1      29.321  58.008  47.277  0.00  0.00    +0.045 C 
ENDROOT
BRANCH  10   9
ATOM      4  C   UNL     1      25.467  53.987  47.110  0.00  0.00    +0.077 A 
ATOM      5  C   UNL     1      24.452  54.882  46.635  0.00  0.00    +0.048 A 
ATOM      6  C   UNL     1      24.560  56.241  47.005  0.00  0.00    +0.116 A 
ATOM      7  N   UNL     1      25.610  56.663  47.791  0.00  0.00    -0.223 NA
ATOM      8  C   UNL     1      26.571  55.774  48.234  0.00  0.00    +0.220 A 
ATOM      9  N   UNL     1      27.640  56.177  49.020  0.00  0.00    -0.283 N 
ATOM     36  H   UNL     1      28.324  55.489  49.333  0.00  0.00    +0.155 HD
ATOM     37  N   UNL     1      26.489  54.470  47.896  0.00  0.00    -0.214 NA
BRANCH   4   3
ATOM      1  C   UNL     1      24.704  50.491  45.530  0.00  0.00    +0.020 A 
ATOM      2  C   UNL     1      24.640  51.911  45.790  0.00  0.00    +0.013 A 
ATOM      3  C   UNL     1      25.493  52.522  46.801  0.00  0.00    +0.019 A 
ATOM     38  C   UNL     1      26.408  51.663  47.537  0.00  0.00    +0.120 A 
ATOM     39  N   UNL     1      26.446  50.298  47.266  0.00  0.00    -0.263 NA
ATOM     40  C   UNL     1      25.629  49.698  46.297  0.00  0.00    +0.111 A 
ENDBRANCH   4   3
ENDBRANCH  10   9
BRANCH  12  13
ATOM     13  N   UNL     1      26.655  59.879  52.195  0.00  0.00    -0.281 N 
ATOM     14  C   UNL     1      27.135  59.827  53.494  0.00  0.00    +0.248 C 
ATOM     30  O   UNL     1      28.072  59.133  53.858  0.00  0.00    -0.270 OA
ATOM     31  H   UNL     1      25.755  60.342  52.068  0.00  0.00    +0.155 HD
BRANCH  14  15
ATOM     15  C   UNL     1      26.467  60.655  54.544  0.00  0.00    +0.037 A 
ATOM     16  C   UNL     1      27.096  61.870  55.068  0.00  0.00    +0.013 A 
ATOM     17  C   UNL     1      26.438  62.641  56.093  0.00  0.00    +0.005 A 
ATOM     18  C   UNL     1      25.140  62.200  56.599  0.00  0.00    -0.033 A 
ATOM     28  C   UNL     1      24.536  60.994  56.057  0.00  0.00    +0.005 A 
ATOM     29  C   UNL     1      25.179  60.235  55.053  0.00  0.00    +0.013 A 
BRANCH  18  19
ATOM     19  C   UNL     1      24.376  62.949  57.706  0.00  0.00    +0.119 C 
BRANCH  19  20
ATOM     20  N   UNL     1      24.317  62.305  59.052  0.00  0.00    -0.302 NA
ATOM     21  C   UNL     1      23.149  62.832  59.891  0.00  0.00    +0.066 C 
ATOM     22  C   UNL     1      23.089  62.131  61.287  0.00  0.00    -0.064 C 
ATOM     23  N   UNL     1      24.417  62.341  62.017  0.00  0.00    +0.379 N 
ATOM     24  C   UNL     1      24.343  61.733  63.353  0.00  0.00    -0.096 C 
ATOM     25  H   UNL     1      24.559  63.438  62.151  0.00  0.00    -0.082 HD
ATOM     26  C   UNL     1      25.584  61.822  61.189  0.00  0.00    -0.064 C 
ATOM     27  C   UNL     1      25.617  62.503  59.792  0.00  0.00    +0.066 C 
ENDBRANCH  19  20
ENDBRANCH  18  19
ENDBRANCH  14  15
ENDBRANCH  12  13
TORSDOF 6
ENDMDL
MODEL 2
REMARK VINA RESULT:     -10.3      2.032      2.348
REMARK  Name = C:\Users\Docking\Desktop\test protocol\1iep_ligandH.pdb
REMARK  8 active torsions:
REMARK  status: ('A' for Active; 'I' for Inactive)
REMARK    1  A    between atoms: _5  and  _11
REMARK    2  A    between atoms: _19  and  _21
REMARK    3  A    between atoms: _22  and  _66
REMARK    4  A    between atoms: _27  and  _30
REMARK    5  A    between atoms: _32  and  _33
REMARK    6  A    between atoms: _38  and  _43
REMARK    7  A    between atoms: _43  and  _46
REMARK    8  A    between atoms: _53  and  _55
REMARK                            x       y       z     vdW  Elec       q    Type
REMARK                         _______ _______ _______ _____ _____    ______ ____
ROOT
ATOM     10  C   UNL     1      28.586  58.028  49.452  0.00  0.00    +0.038 A 
ATOM     11  C   UNL     1      28.114  58.364  50.747  0.00  0.00    +0.047 A 
ATOM     12  C   UNL     1      28.440  59.643  51.358  0.00  0.00    +0.035 A 
ATOM     32  C   UNL     1      29.247  60.558  50.621  0.00  0.00    +0.024 A 
ATOM     33  C   UNL     1      29.736  60.233  49.304  0.00  0.00    +0.007 A 
ATOM     34  C   UNL     1      29.420  58.972  48.697  0.00  0.00    -0.029 A 
ATOM     35  C   UNL     1      29.976  58.674  47.285  0.00  0.00    +0.045 C 
ENDROOT
BRANCH  10   9
ATOM      4  C   UNL     1      25.483  55.053  47.316  0.00  0.00    +0.077 A 
ATOM      5  C   UNL     1      24.450  56.049  47.297  0.00  0.00    +0.048 A 
ATOM      6  C   UNL     1      24.756  57.311  47.853  0.00  0.00    +0.116 A 
ATOM      7  N   UNL     1      26.005  57.549  48.386  0.00  0.00    -0.223 NA
ATOM      8  C   UNL     1      26.977  56.567  48.390  0.00  0.00    +0.220 A 
ATOM      9  N   UNL     1      28.242  56.787  48.913  0.00  0.00    -0.283 N 
ATOM     36  H   UNL     1      28.930  56.033  48.904  0.00  0.00    +0.155 HD
ATOM     37  N   UNL     1      26.710  55.352  47.866  0.00  0.00    -0.214 NA
BRANCH   4   3
ATOM      1  C   UNL     1      24.290  52.015  45.161  0.00  0.00    +0.020 A 
ATOM      2  C   UNL     1      24.416  53.366  45.658  0.00  0.00    +0.013 A 
ATOM      3  C   UNL     1      25.314  53.672  46.764  0.00  0.00    +0.019 A 
ATOM     38  C   UNL     1      26.078  52.580  47.349  0.00  0.00    +0.120 A 
ATOM     39  N   UNL     1      25.935  51.289  46.851  0.00  0.00    -0.263 NA
ATOM     40  C   UNL     1      25.072  50.982  45.789  0.00  0.00    +0.111 A 
ENDBRANCH   4   3
ENDBRANCH  10   9
BRANCH  12  13
ATOM     13  N   UNL     1      27.997  60.036  52.673  0.00  0.00    -0.281 N 
ATOM     14  C   UNL     1      26.730  59.906  53.218  0.00  0.00    +0.248 C 
ATOM     30  O   UNL     1      25.727  59.625  52.579  0.00  0.00    -0.270 OA
ATOM     31  H   UNL     1      28.702  60.461  53.274  0.00  0.00    +0.155 HD
BRANCH  14  15
ATOM     15  C   UNL     1      26.548  60.135  54.684  0.00  0.00    +0.037 A 
ATOM     16  C   UNL     1      27.621  59.843  55.638  0.00  0.00    +0.013 A 
ATOM     17  C   UNL     1      27.414  60.057  57.048  0.00  0.00    +0.005 A 
ATOM     18  C   UNL     1      26.126  60.568  57.513  0.00  0.00    -0.033 A 
ATOM     28  C   UNL     1      25.081  60.854  56.545  0.00  0.00    +0.005 A 
ATOM     29  C   UNL     1      25.280  60.645  55.162  0.00  0.00    +0.013 A 
BRANCH  18  19
ATOM     19  C   UNL     1      25.809  60.807  59.001  0.00  0.00    +0.119 C 
BRANCH  19  20
ATOM     20  N   UNL     1      24.770  59.936  59.627  0.00  0.00    -0.302 NA
ATOM     21  C   UNL     1      24.699  58.558  58.963  0.00  0.00    +0.066 C 
ATOM     22  C   UNL     1      23.622  57.652  59.645  0.00  0.00    -0.064 C 
ATOM     23  N   UNL     1      22.263  58.351  59.588  0.00  0.00    +0.379 N 
ATOM     24  C   UNL     1      21.237  57.477  60.176  0.00  0.00    -0.096 C 
ATOM     25  H   UNL     1      22.004  58.500  58.514  0.00  0.00    -0.082 HD
ATOM     26  C   UNL     1      22.324  59.723  60.243  0.00  0.00    -0.064 C 
ATOM     27  C   UNL     1      23.418  60.605  59.578  0.00  0.00    +0.066 C 
ENDBRANCH  19  20
ENDBRANCH  18  19
ENDBRANCH  14  15
ENDBRANCH  12  13
TORSDOF 6
ENDMDL
MODEL 3
REMARK VINA RESULT:     -10.3      2.588     12.609
REMARK  Name = C:\Users\Docking\Desktop\test protocol\1iep_ligandH.pdb
REMARK  8 active torsions:
REMARK  status: ('A' for Active; 'I' for Inactive)
REMARK    1  A    between atoms: _5  and  _11
REMARK    2  A    between atoms: _19  and  _21
REMARK    3  A    between atoms: _22  and  _66
REMARK    4  A    between atoms: _27  and  _30
REMARK    5  A    between atoms: _32  and  _33
REMARK    6  A    between atoms: _38  and  _43
REMARK    7  A    between atoms: _43  and  _46
REMARK    8  A    between atoms: _53  and  _55
REMARK                            x       y       z     vdW  Elec       q    Type
REMARK                         _______ _______ _______ _____ _____    ______ ____
ROOT
ATOM     10  C   UNL     1      27.671  59.407  53.407  0.00  0.00    +0.038 A 
ATOM     11  C   UNL     1      27.110  58.488  52.484  0.00  0.00    +0.047 A 
ATOM     12  C   UNL     1      27.125  58.755  51.054  0.00  0.00    +0.035 A 
ATOM     32  C   UNL     1      27.720  59.967  50.599  0.00  0.00    +0.024 A 
ATOM     33  C   UNL     1      28.293  60.914  51.524  0.00  0.00    +0.007 A 
ATOM     34  C   UNL     1      28.280  60.657  52.936  0.00  0.00    -0.029 A 
ATOM     35  C   UNL     1      28.903  61.710  53.882  0.00  0.00    +0.045 C 
ENDROOT
BRANCH  10   9
ATOM      4  C   UNL     1      25.413  59.223  57.639  0.00  0.00    +0.077 A 
ATOM      5  C   UNL     1      24.223  59.813  57.096  0.00  0.00    +0.048 A 
ATOM      6  C   UNL     1      24.235  60.156  55.726  0.00  0.00    +0.116 A 
ATOM      7  N   UNL     1      25.359  59.921  54.964  0.00  0.00    -0.223 NA
ATOM      8  C   UNL     1      26.491  59.352  55.519  0.00  0.00    +0.220 A 
ATOM      9  N   UNL     1      27.630  59.101  54.769  0.00  0.00    -0.283 N 
ATOM     36  H   UNL     1      28.447  58.686  55.218  0.00  0.00    +0.155 HD
ATOM     37  N   UNL     1      26.505  59.017  56.826  0.00  0.00    -0.214 NA
BRANCH   4   3
ATOM      1  C   UNL     1      24.728  58.663  61.449  0.00  0.00    +0.020 A 
ATOM      2  C   UNL     1      24.545  59.091  60.082  0.00  0.00    +0.013 A 
ATOM      3  C   UNL     1      25.553  58.803  59.069  0.00  0.00    +0.019 A 
ATOM     38  C   UNL     1      26.745  58.074  59.476  0.00  0.00    +0.120 A 
ATOM     39  N   UNL     1      26.895  57.676  60.801  0.00  0.00    -0.263 NA
ATOM     40  C   UNL     1      25.932  57.949  61.784  0.00  0.00    +0.111 A 
ENDBRANCH   4   3
ENDBRANCH  10   9
BRANCH  12  13
ATOM     13  N   UNL     1      26.564  57.863  50.070  0.00  0.00    -0.281 N 
ATOM     14  C   UNL     1      27.170  57.366  48.928  0.00  0.00    +0.248 C 
ATOM     30  O   UNL     1      28.221  57.784  48.465  0.00  0.00    -0.270 OA
ATOM     31  H   UNL     1      25.604  57.561  50.235  0.00  0.00    +0.155 HD
BRANCH  14  15
ATOM     15  C   UNL     1      26.506  56.252  48.185  0.00  0.00    +0.037 A 
ATOM     16  C   UNL     1      26.694  54.854  48.583  0.00  0.00    +0.013 A 
ATOM     17  C   UNL     1      26.055  53.798  47.838  0.00  0.00    +0.005 A 
ATOM     18  C   UNL     1      25.222  54.136  46.687  0.00  0.00    -0.033 A 
ATOM     28  C   UNL     1      25.049  55.531  46.317  0.00  0.00    +0.005 A 
ATOM     29  C   UNL     1      25.673  56.569  47.044  0.00  0.00    +0.013 A 
BRANCH  18  19
ATOM     19  C   UNL     1      24.519  53.073  45.822  0.00  0.00    +0.119 C 
BRANCH  19  20
ATOM     20  N   UNL     1      24.679  51.645  46.230  0.00  0.00    -0.302 NA
ATOM     21  C   UNL     1      26.147  51.274  46.459  0.00  0.00    +0.066 C 
ATOM     22  C   UNL     1      26.294  49.783  46.907  0.00  0.00    -0.064 C 
ATOM     23  N   UNL     1      25.664  48.872  45.852  0.00  0.00    +0.379 N 
ATOM     24  C   UNL     1      25.852  47.467  46.241  0.00  0.00    -0.096 C 
ATOM     25  H   UNL     1      26.212  49.034  44.894  0.00  0.00    -0.082 HD
ATOM     26  C   UNL     1      24.205  49.236  45.616  0.00  0.00    -0.064 C 
ATOM     27  C   UNL     1      24.067  50.728  45.200  0.00  0.00    +0.066 C 
ENDBRANCH  19  20
ENDBRANCH  18  19
ENDBRANCH  14  15
ENDBRANCH  12  13
TORSDOF 6
ENDMDL
MODEL 4
REMARK VINA RESULT:     -10.2      1.696      2.475
REMARK  Name = C:\Users\Docking\Desktop\test protocol\1iep_ligandH.pdb
REMARK  8 active torsions:
REMARK  status: ('A' for Active; 'I' for Inactive)
REMARK    1  A    between atoms: _5  and  _11
REMARK    2  A    between atoms: _19  and  _21
REMARK    3  A    between atoms: _22  and  _66
REMARK    4  A    between atoms: _27  and  _30
REMARK    5  A    between atoms: _32  and  _33
REMARK    6  A    between atoms: _38  and  _43
REMARK    7  A    between atoms: _43  and  _46
REMARK    8  A    between atoms: _53  and  _55
REMARK                            x       y       z     vdW  Elec       q    Type
REMARK                         _______ _______ _______ _____ _____    ______ ____
ROOT
ATOM     10  C   UNL     1      27.813  58.354  51.125  0.00  0.00    +0.038 A 
ATOM     11  C   UNL     1      27.285  58.623  52.413  0.00  0.00    +0.047 A 
ATOM     12  C   UNL     1      27.546  59.887  53.085  0.00  0.00    +0.035 A 
ATOM     32  C   UNL     1      28.348  60.855  52.414  0.00  0.00    +0.024 A 
ATOM     33  C   UNL     1      28.894  60.598  51.104  0.00  0.00    +0.007 A 
ATOM     34  C   UNL     1      28.641  59.353  50.438  0.00  0.00    -0.029 A 
ATOM     35  C   UNL     1      29.258  59.128  49.038  0.00  0.00    +0.045 C 
ENDROOT
BRANCH  10   9
ATOM      4  C   UNL     1      25.757  55.683  47.708  0.00  0.00    +0.077 A 
ATOM      5  C   UNL     1      25.175  56.832  47.077  0.00  0.00    +0.048 A 
ATOM      6  C   UNL     1      25.422  58.092  47.668  0.00  0.00    +0.116 A 
ATOM      7  N   UNL     1      26.197  58.183  48.804  0.00  0.00    -0.223 NA
ATOM      8  C   UNL     1      26.742  57.055  49.388  0.00  0.00    +0.220 A 
ATOM      9  N   UNL     1      27.530  57.124  50.526  0.00  0.00    -0.283 N 
ATOM     36  H   UNL     1      27.908  56.268  50.931  0.00  0.00    +0.155 HD
ATOM     37  N   UNL     1      26.519  55.840  48.844  0.00  0.00    -0.214 NA
BRANCH   4   3
ATOM      1  C   UNL     1      24.624  52.584  45.606  0.00  0.00    +0.020 A 
ATOM      2  C   UNL     1      24.752  53.952  46.056  0.00  0.00    +0.013 A 
ATOM      3  C   UNL     1      25.589  54.284  47.202  0.00  0.00    +0.019 A 
ATOM     38  C   UNL     1      26.289  53.201  47.876  0.00  0.00    +0.120 A 
ATOM     39  N   UNL     1      26.146  51.894  47.422  0.00  0.00    -0.263 NA
ATOM     40  C   UNL     1      25.342  51.562  46.321  0.00  0.00    +0.111 A 
ENDBRANCH   4   3
ENDBRANCH  10   9
BRANCH  12  13
ATOM     13  N   UNL     1      27.043  60.213  54.396  0.00  0.00    -0.281 N 
ATOM     14  C   UNL     1      25.726  60.219  54.826  0.00  0.00    +0.248 C 
ATOM     30  O   UNL     1      24.757  60.151  54.085  0.00  0.00    -0.270 OA
ATOM     31  H   UNL     1      27.743  60.471  55.092  0.00  0.00    +0.155 HD
BRANCH  14  15
ATOM     15  C   UNL     1      25.445  60.332  56.290  0.00  0.00    +0.037 A 
ATOM     16  C   UNL     1      25.690  61.580  57.017  0.00  0.00    +0.013 A 
ATOM     17  C   UNL     1      25.426  61.656  58.432  0.00  0.00    +0.005 A 
ATOM     18  C   UNL     1      24.912  60.480  59.129  0.00  0.00    -0.033 A 
ATOM     28  C   UNL     1      24.673  59.256  58.382  0.00  0.00    +0.005 A 
ATOM     29  C   UNL     1      24.931  59.177  56.996  0.00  0.00    +0.013 A 
BRANCH  18  19
ATOM     19  C   UNL     1      24.622  60.464  60.642  0.00  0.00    +0.119 C 
BRANCH  19  20
ATOM     20  N   UNL     1      23.858  61.618  61.203  0.00  0.00    -0.302 NA
ATOM     21  C   UNL     1      24.118  61.805  62.701  0.00  0.00    +0.066 C 
ATOM     22  C   UNL     1      23.328  63.029  63.267  0.00  0.00    -0.064 C 
ATOM     23  N   UNL     1      21.834  62.839  62.996  0.00  0.00    +0.379 N 
ATOM     24  C   UNL     1      21.083  63.961  63.578  0.00  0.00    -0.096 C 
ATOM     25  H   UNL     1      21.512  61.909  63.518  0.00  0.00    -0.082 HD
ATOM     26  C   UNL     1      21.567  62.650  61.509  0.00  0.00    -0.064 C 
ATOM     27  C   UNL     1      22.380  61.448  60.951  0.00  0.00    +0.066 C 
ENDBRANCH  19  20
ENDBRANCH  18  19
ENDBRANCH  14  15
ENDBRANCH  12  13
TORSDOF 6
ENDMDL
MODEL 5
REMARK VINA RESULT:     -10.0      2.169      2.824
REMARK  Name = C:\Users\Docking\Desktop\test protocol\1iep_ligandH.pdb
REMARK  8 active torsions:
REMARK  status: ('A' for Active; 'I' for Inactive)
REMARK    1  A    between atoms: _5  and  _11
REMARK    2  A    between atoms: _19  and  _21
REMARK    3  A    between atoms: _22  and  _66
REMARK    4  A    between atoms: _27  and  _30
REMARK    5  A    between atoms: _32  and  _33
REMARK    6  A    between atoms: _38  and  _43
REMARK    7  A    between atoms: _43  and  _46
REMARK    8  A    between atoms: _53  and  _55
REMARK                            x       y       z     vdW  Elec       q    Type
REMARK                         _______ _______ _______ _____ _____    ______ ____
ROOT
ATOM     10  C   UNL     1      27.688  58.433  51.483  0.00  0.00    +0.038 A 
ATOM     11  C   UNL     1      26.835  58.895  52.518  0.00  0.00    +0.047 A 
ATOM     12  C   UNL     1      27.113  60.134  53.226  0.00  0.00    +0.035 A 
ATOM     32  C   UNL     1      28.269  60.881  52.853  0.00  0.00    +0.024 A 
ATOM     33  C   UNL     1      29.147  60.426  51.804  0.00  0.00    +0.007 A 
ATOM     34  C   UNL     1      28.879  59.203  51.104  0.00  0.00    -0.029 A 
ATOM     35  C   UNL     1      29.859  58.761  49.992  0.00  0.00    +0.045 C 
ENDROOT
BRANCH  10   9
ATOM      4  C   UNL     1      25.842  55.971  47.800  0.00  0.00    +0.077 A 
ATOM      5  C   UNL     1      25.447  57.171  47.119  0.00  0.00    +0.048 A 
ATOM      6  C   UNL     1      25.731  58.401  47.754  0.00  0.00    +0.116 A 
ATOM      7  N   UNL     1      26.364  58.418  48.978  0.00  0.00    -0.223 NA
ATOM      8  C   UNL     1      26.729  57.242  49.609  0.00  0.00    +0.220 A 
ATOM      9  N   UNL     1      27.373  57.236  50.837  0.00  0.00    -0.283 N 
ATOM     36  H   UNL     1      27.619  56.348  51.272  0.00  0.00    +0.155 HD
ATOM     37  N   UNL     1      26.467  56.055  49.024  0.00  0.00    -0.214 NA
BRANCH   4   3
ATOM      1  C   UNL     1      24.558  52.980  45.631  0.00  0.00    +0.020 A 
ATOM      2  C   UNL     1      24.744  54.328  46.118  0.00  0.00    +0.013 A 
ATOM      3  C   UNL     1      25.613  54.595  47.256  0.00  0.00    +0.019 A 
ATOM     38  C   UNL     1      26.286  53.468  47.885  0.00  0.00    +0.120 A 
ATOM     39  N   UNL     1      26.086  52.181  47.396  0.00  0.00    -0.263 NA
ATOM     40  C   UNL     1      25.251  51.911  46.302  0.00  0.00    +0.111 A 
ENDBRANCH   4   3
ENDBRANCH  10   9
BRANCH  12  13
ATOM     13  N   UNL     1      26.288  60.649  54.291  0.00  0.00    -0.281 N 
ATOM     14  C   UNL     1      26.164  60.164  55.583  0.00  0.00    +0.248 C 
ATOM     30  O   UNL     1      26.587  59.080  55.958  0.00  0.00    -0.270 OA
ATOM     31  H   UNL     1      25.726  61.469  54.064  0.00  0.00    +0.155 HD
BRANCH  14  15
ATOM     15  C   UNL     1      25.457  60.998  56.602  0.00  0.00    +0.037 A 
ATOM     16  C   UNL     1      25.102  60.453  57.915  0.00  0.00    +0.013 A 
ATOM     17  C   UNL     1      24.405  61.274  58.874  0.00  0.00    +0.005 A 
ATOM     18  C   UNL     1      24.059  62.649  58.522  0.00  0.00    -0.033 A 
ATOM     28  C   UNL     1      24.427  63.165  57.214  0.00  0.00    +0.005 A 
ATOM     29  C   UNL     1      25.110  62.363  56.272  0.00  0.00    +0.013 A 
BRANCH  18  19
ATOM     19  C   UNL     1      23.296  63.589  59.475  0.00  0.00    +0.119 C 
BRANCH  19  20
ATOM     20  N   UNL     1      24.103  64.351  60.474  0.00  0.00    -0.302 NA
ATOM     21  C   UNL     1      23.364  64.515  61.805  0.00  0.00    +0.066 C 
ATOM     22  C   UNL     1      24.231  65.294  62.846  0.00  0.00    -0.064 C 
ATOM     23  N   UNL     1      24.613  66.658  62.267  0.00  0.00    +0.379 N 
ATOM     24  C   UNL     1      25.380  67.417  63.266  0.00  0.00    -0.096 C 
ATOM     25  H   UNL     1      23.670  67.217  62.068  0.00  0.00    -0.082 HD
ATOM     26  C   UNL     1      25.347  66.505  60.942  0.00  0.00    -0.064 C 
ATOM     27  C   UNL     1      24.488  65.703  59.925  0.00  0.00    +0.066 C 
ENDBRANCH  19  20
ENDBRANCH  18  19
ENDBRANCH  14  15
ENDBRANCH  12  13
TORSDOF 6
ENDMDL
