MODEL 1
REMARK VINA RESULT:     -10.4      0.000      0.000
REMARK  Name = C:\Users\Docking\Desktop\test protocol\1iep_ligandH.pdb
REMARK  8 active torsions:
REMARK  status: ('A' for Active; 'I' for Inactive)
REMARK    1  A    between atoms: _5  and  _11
REMARK    2  A    between atoms: _19  and  _21
REMARK    3  A    between atoms: _22  and  _66
REMARK    4  A    between atoms: _27  and  _30
REMARK    5  A    between atoms: _32  and  _33
REMARK    6  A    between atoms: _38  and  _43
REMARK    7  A    between atoms: _43  and  _46
REMARK    8  A    between atoms: _53  and  _55
REMARK                            x       y       z     vdW  Elec       q    Type
REMARK                         _______ _______ _______ _____ _____    ______ ____
ROOT
ATOM     10  C   UNL     1      28.281  57.932  51.617  0.00  0.00    +0.038 A 
ATOM     11  C   UNL     1      27.553  58.342  52.764  0.00  0.00    +0.047 A 
ATOM     12  C   UNL     1      27.962  59.504  53.538  0.00  0.00    +0.035 A 
ATOM     32  C   UNL     1      29.115  60.227  53.115  0.00  0.00    +0.024 A 
ATOM     33  C   UNL     1      29.867  59.823  51.953  0.00  0.00    +0.007 A 
ATOM     34  C   UNL     1      29.470  58.677  51.186  0.00  0.00    -0.029 A 
ATOM     35  C   UNL     1      30.317  58.286  49.953  0.00  0.00    +0.045 C 
ENDROOT
BRANCH  10   9
ATOM      4  C   UNL     1      25.947  55.876  47.962  0.00  0.00    +0.077 A 
ATOM      5  C   UNL     1      25.542  57.145  47.429  0.00  0.00    +0.048 A 
ATOM      6  C   UNL     1      25.948  58.302  48.130  0.00  0.00    +0.116 A 
ATOM      7  N   UNL     1      26.704  58.187  49.277  0.00  0.00    -0.223 NA
ATOM      8  C   UNL     1      27.077  56.948  49.764  0.00  0.00    +0.220 A 
ATOM      9  N   UNL     1      27.844  56.810  50.911  0.00  0.00    -0.283 N 
ATOM     36  H   UNL     1      28.092  55.877  51.242  0.00  0.00    +0.155 HD
ATOM     37  N   UNL     1      26.700  55.828  49.114  0.00  0.00    -0.214 NA
BRANCH   4   3
ATOM      1  C   UNL     1      24.359  53.147  45.652  0.00  0.00    +0.020 A 
ATOM      2  C   UNL     1      24.661  54.439  46.224  0.00  0.00    +0.013 A 
ATOM      3  C   UNL     1      25.599  54.563  47.333  0.00  0.00    +0.019 A 
ATOM     38  C   UNL     1      26.219  53.350  47.843  0.00  0.00    +0.120 A 
ATOM     39  N   UNL     1      25.909  52.119  47.274  0.00  0.00    -0.263 NA
ATOM     40  C   UNL     1      25.006  51.988  46.207  0.00  0.00    +0.111 A 
ENDBRANCH   4   3
ENDBRANCH  10   9
BRANCH  12  13
ATOM     13  N   UNL     1      27.267  59.963  54.716  0.00  0.00    -0.281 N 
ATOM     14  C   UNL     1      25.900  60.046  54.920  0.00  0.00    +0.248 C 
ATOM     30  O   UNL     1      25.061  59.938  54.037  0.00  0.00    -0.270 OA
ATOM     31  H   UNL     1      27.856  60.262  55.493  0.00  0.00    +0.155 HD
BRANCH  14  15
ATOM     15  C   UNL     1      25.390  60.299  56.302  0.00  0.00    +0.037 A 
ATOM     16  C   UNL     1      25.472  61.630  56.910  0.00  0.00    +0.013 A 
ATOM     17  C   UNL     1      24.988  61.843  58.251  0.00  0.00    +0.005 A 
ATOM     18  C   UNL     1      24.416  60.722  58.993  0.00  0.00    -0.033 A 
ATOM     28  C   UNL     1      24.342  59.414  58.363  0.00  0.00    +0.005 A 
ATOM     29  C   UNL     1      24.816  59.201  57.049  0.00  0.00    +0.013 A 
BRANCH  18  19
ATOM     19  C   UNL     1      23.895  60.854  60.436  0.00  0.00    +0.119 C 
BRANCH  19  20
ATOM     20  N   UNL     1      23.187  62.119  60.795  0.00  0.00    -0.302 NA
ATOM     21  C   UNL     1      24.138  63.158  61.395  0.00  0.00    +0.066 C 
ATOM     22  C   UNL     1      23.386  64.484  61.744  0.00  0.00    -0.064 C 
ATOM     23  N   UNL     1      22.240  64.177  62.709  0.00  0.00    +0.379 N 
ATOM     24  C   UNL     1      21.566  65.429  63.084  0.00  0.00    -0.096 C 
ATOM     25  H   UNL     1      22.684  63.742  63.634  0.00  0.00    -0.082 HD
ATOM     26  C   UNL     1      21.291  63.142  62.121  0.00  0.00    -0.064 C 
ATOM     27  C   UNL     1      22.054  61.840  61.751  0.00  0.00    +0.066 C 
ENDBRANCH  19  20
ENDBRANCH  18  19
ENDBRANCH  14  15
ENDBRANCH  12  13
TORSDOF 6
ENDMDL
MODEL 2
REMARK VINA RESULT:     -10.1      1.690      2.373
REMARK  Name = C:\Users\Docking\Desktop\test protocol\1iep_ligandH.pdb
REMARK  8 active torsions:
REMARK  status: ('A' for Active; 'I' for Inactive)
REMARK    1  A    between atoms: _5  and  _11
REMARK    2  A    between atoms: _19  and  _21
REMARK    3  A    between atoms: _22  and  _66
REMARK    4  A    between atoms: _27  and  _30
REMARK    5  A    between atoms: _32  and  _33
REMARK    6  A    between atoms: _38  and  _43
REMARK    7  A    between atoms: _43  and  _46
REMARK    8  A    between atoms: _53  and  _55
REMARK                            x       y       z     vdW  Elec       q    Type
REMARK                         _______ _______ _______ _____ _____    ______ ____
ROOT
ATOM     10  C   UNL     1      28.288  58.001  51.766  0.00  0.00    +0.038 A 
ATOM     11  C   UNL     1      27.540  58.412  52.898  0.00  0.00    +0.047 A 
ATOM     12  C   UNL     1      27.948  59.558  53.695  0.00  0.00    +0.035 A 
ATOM     32  C   UNL     1      29.123  60.266  53.308  0.00  0.00    +0.024 A 
ATOM     33  C   UNL     1      29.897  59.862  52.160  0.00  0.00    +0.007 A 
ATOM     34  C   UNL     1      29.500  58.730  51.372  0.00  0.00    -0.029 A 
ATOM     35  C   UNL     1      30.371  58.338  50.156  0.00  0.00    +0.045 C 
ENDROOT
BRANCH  10   9
ATOM      4  C   UNL     1      25.989  56.021  48.047  0.00  0.00    +0.077 A 
ATOM      5  C   UNL     1      25.604  57.302  47.527  0.00  0.00    +0.048 A 
ATOM      6  C   UNL     1      26.012  58.445  48.250  0.00  0.00    +0.116 A 
ATOM      7  N   UNL     1      26.750  58.306  49.406  0.00  0.00    -0.223 NA
ATOM      8  C   UNL     1      27.102  57.056  49.881  0.00  0.00    +0.220 A 
ATOM      9  N   UNL     1      27.851  56.893  51.037  0.00  0.00    -0.283 N 
ATOM     36  H   UNL     1      28.084  55.954  51.358  0.00  0.00    +0.155 HD
ATOM     37  N   UNL     1      26.724  55.949  49.209  0.00  0.00    -0.214 NA
BRANCH   4   3
ATOM      1  C   UNL     1      24.366  53.335  45.712  0.00  0.00    +0.020 A 
ATOM      2  C   UNL     1      24.670  54.616  46.308  0.00  0.00    +0.013 A 
ATOM      3  C   UNL     1      25.636  54.721  47.394  0.00  0.00    +0.019 A 
ATOM     38  C   UNL     1      26.282  53.502  47.857  0.00  0.00    +0.120 A 
ATOM     39  N   UNL     1      25.968  52.282  47.265  0.00  0.00    -0.263 NA
ATOM     40  C   UNL     1      25.039  52.169  46.220  0.00  0.00    +0.111 A 
ENDBRANCH   4   3
ENDBRANCH  10   9
BRANCH  12  13
ATOM     13  N   UNL     1      27.232  60.017  54.860  0.00  0.00    -0.281 N 
ATOM     14  C   UNL     1      25.861  60.101  55.038  0.00  0.00    +0.248 C 
ATOM     30  O   UNL     1      25.040  59.995  54.140  0.00  0.00    -0.270 OA
ATOM     31  H   UNL     1      27.806  60.315  55.648  0.00  0.00    +0.155 HD
BRANCH  14  15
ATOM     15  C   UNL     1      25.326  60.354  56.410  0.00  0.00    +0.037 A 
ATOM     16  C   UNL     1      25.411  61.681  57.027  0.00  0.00    +0.013 A 
ATOM     17  C   UNL     1      24.902  61.894  58.358  0.00  0.00    +0.005 A 
ATOM     18  C   UNL     1      24.302  60.776  59.083  0.00  0.00    -0.033 A 
ATOM     28  C   UNL     1      24.226  59.471  58.446  0.00  0.00    +0.005 A 
ATOM     29  C   UNL     1      24.725  59.259  57.141  0.00  0.00    +0.013 A 
BRANCH  18  19
ATOM     19  C   UNL     1      23.753  60.906  60.516  0.00  0.00    +0.119 C 
BRANCH  19  20
ATOM     20  N   UNL     1      24.474  60.167  61.595  0.00  0.00    -0.302 NA
ATOM     21  C   UNL     1      23.827  60.377  62.966  0.00  0.00    +0.066 C 
ATOM     22  C   UNL     1      24.580  59.578  64.079  0.00  0.00    -0.064 C 
ATOM     23  N   UNL     1      26.049  60.004  64.103  0.00  0.00    +0.379 N 
ATOM     24  C   UNL     1      26.748  59.298  65.187  0.00  0.00    -0.096 C 
ATOM     25  H   UNL     1      26.081  61.095  64.334  0.00  0.00    -0.082 HD
ATOM     26  C   UNL     1      26.700  59.802  62.742  0.00  0.00    -0.064 C 
ATOM     27  C   UNL     1      25.926  60.575  61.638  0.00  0.00    +0.066 C 
ENDBRANCH  19  20
ENDBRANCH  18  19
ENDBRANCH  14  15
ENDBRANCH  12  13
TORSDOF 6
ENDMDL
MODEL 3
REMARK VINA RESULT:      -9.7      1.562      1.916
REMARK  Name = C:\Users\Docking\Desktop\test protocol\1iep_ligandH.pdb
REMARK  8 active torsions:
REMARK  status: ('A' for Active; 'I' for Inactive)
REMARK    1  A    between atoms: _5  and  _11
REMARK    2  A    between atoms: _19  and  _21
REMARK    3  A    between atoms: _22  and  _66
REMARK    4  A    between atoms: _27  and  _30
REMARK    5  A    between atoms: _32  and  _33
REMARK    6  A    between atoms: _38  and  _43
REMARK    7  A    between atoms: _43  and  _46
REMARK    8  A    between atoms: _53  and  _55
REMARK                            x       y       z     vdW  Elec       q    Type
REMARK                         _______ _______ _______ _____ _____    ______ ____
ROOT
ATOM     10  C   UNL     1      28.165  57.979  51.851  0.00  0.00    +0.038 A 
ATOM     11  C   UNL     1      27.290  58.479  52.848  0.00  0.00    +0.047 A 
ATOM     12  C   UNL     1      27.657  59.624  53.666  0.00  0.00    +0.035 A 
ATOM     32  C   UNL     1      28.923  60.238  53.440  0.00  0.00    +0.024 A 
ATOM     33  C   UNL     1      29.826  59.742  52.430  0.00  0.00    +0.007 A 
ATOM     34  C   UNL     1      29.470  58.611  51.622  0.00  0.00    -0.029 A 
ATOM     35  C   UNL     1      30.480  58.119  50.560  0.00  0.00    +0.045 C 
ENDROOT
BRANCH  10   9
ATOM      4  C   UNL     1      25.976  56.025  48.053  0.00  0.00    +0.077 A 
ATOM      5  C   UNL     1      25.580  57.308  47.547  0.00  0.00    +0.048 A 
ATOM      6  C   UNL     1      25.953  58.445  48.297  0.00  0.00    +0.116 A 
ATOM      7  N   UNL     1      26.669  58.298  49.465  0.00  0.00    -0.223 NA
ATOM      8  C   UNL     1      27.034  57.047  49.926  0.00  0.00    +0.220 A 
ATOM      9  N   UNL     1      27.761  56.877  51.094  0.00  0.00    -0.283 N 
ATOM     36  H   UNL     1      28.004  55.936  51.404  0.00  0.00    +0.155 HD
ATOM     37  N   UNL     1      26.688  55.945  49.228  0.00  0.00    -0.214 NA
BRANCH   4   3
ATOM      1  C   UNL     1      24.475  53.359  45.616  0.00  0.00    +0.020 A 
ATOM      2  C   UNL     1      24.746  54.634  46.239  0.00  0.00    +0.013 A 
ATOM      3  C   UNL     1      25.659  54.730  47.371  0.00  0.00    +0.019 A 
ATOM     38  C   UNL     1      26.286  53.508  47.852  0.00  0.00    +0.120 A 
ATOM     39  N   UNL     1      26.005  52.294  47.233  0.00  0.00    -0.263 NA
ATOM     40  C   UNL     1      25.127  52.189  46.144  0.00  0.00    +0.111 A 
ENDBRANCH   4   3
ENDBRANCH  10   9
BRANCH  12  13
ATOM     13  N   UNL     1      26.813  60.171  54.700  0.00  0.00    -0.281 N 
ATOM     14  C   UNL     1      26.874  59.936  56.063  0.00  0.00    +0.248 C 
ATOM     30  O   UNL     1      27.534  59.047  56.582  0.00  0.00    -0.270 OA
ATOM     31  H   UNL     1      26.081  60.810  54.388  0.00  0.00    +0.155 HD
BRANCH  14  15
ATOM     15  C   UNL     1      26.077  60.803  56.983  0.00  0.00    +0.037 A 
ATOM     16  C   UNL     1      25.726  62.178  56.616  0.00  0.00    +0.013 A 
ATOM     17  C   UNL     1      24.970  62.999  57.529  0.00  0.00    +0.005 A 
ATOM     18  C   UNL     1      24.560  62.446  58.818  0.00  0.00    -0.033 A 
ATOM     28  C   UNL     1      24.918  61.078  59.153  0.00  0.00    +0.005 A 
ATOM     29  C   UNL     1      25.659  60.270  58.262  0.00  0.00    +0.013 A 
BRANCH  18  19
ATOM     19  C   UNL     1      23.770  63.257  59.862  0.00  0.00    +0.119 C 
BRANCH  19  20
ATOM     20  N   UNL     1      24.393  64.518  60.363  0.00  0.00    -0.302 NA
ATOM     21  C   UNL     1      25.861  64.319  60.752  0.00  0.00    +0.066 C 
ATOM     22  C   UNL     1      26.504  65.653  61.252  0.00  0.00    -0.064 C 
ATOM     23  N   UNL     1      25.698  66.192  62.435  0.00  0.00    +0.379 N 
ATOM     24  C   UNL     1      26.333  67.416  62.945  0.00  0.00    -0.096 C 
ATOM     25  H   UNL     1      25.736  65.428  63.246  0.00  0.00    -0.082 HD
ATOM     26  C   UNL     1      24.237  66.391  62.058  0.00  0.00    -0.064 C 
ATOM     27  C   UNL     1      23.616  65.066  61.534  0.00  0.00    +0.066 C 
ENDBRANCH  19  20
ENDBRANCH  18  19
ENDBRANCH  14  15
ENDBRANCH  12  13
TORSDOF 6
ENDMDL
MODEL 4
REMARK VINA RESULT:      -9.6      1.866      2.502
REMARK  Name = C:\Users\Docking\Desktop\test protocol\1iep_ligandH.pdb
REMARK  8 active torsions:
REMARK  status: ('A' for Active; 'I' for Inactive)
REMARK    1  A    between atoms: _5  and  _11
REMARK    2  A    between atoms: _19  and  _21
REMARK    3  A    between atoms: _22  and  _66
REMARK    4  A    between atoms: _27  and  _30
REMARK    5  A    between atoms: _32  and  _33
REMARK    6  A    between atoms: _38  and  _43
REMARK    7  A    between atoms: _43  and  _46
REMARK    8  A    between atoms: _53  and  _55
REMARK                            x       y       z     vdW  Elec       q    Type
REMARK                         _______ _______ _______ _____ _____    ______ ____
ROOT
ATOM     10  C   UNL     1      29.394  58.366  52.576  0.00  0.00    +0.038 A 
ATOM     11  C   UNL     1      28.583  59.138  53.447  0.00  0.00    +0.047 A 
ATOM     12  C   UNL     1      29.158  60.179  54.285  0.00  0.00    +0.035 A 
ATOM     32  C   UNL     1      30.562  60.409  54.209  0.00  0.00    +0.024 A 
ATOM     33  C   UNL     1      31.402  59.633  53.330  0.00  0.00    +0.007 A 
ATOM     34  C   UNL     1      30.841  58.603  52.503  0.00  0.00    -0.029 A 
ATOM     35  C   UNL     1      31.789  57.798  51.585  0.00  0.00    +0.045 C 
ENDROOT
BRANCH  10   9
ATOM      4  C   UNL     1      26.701  56.974  48.855  0.00  0.00    +0.077 A 
ATOM      5  C   UNL     1      26.455  58.328  48.451  0.00  0.00    +0.048 A 
ATOM      6  C   UNL     1      27.034  59.354  49.231  0.00  0.00    +0.116 A 
ATOM      7  N   UNL     1      27.800  59.037  50.332  0.00  0.00    -0.223 NA
ATOM      8  C   UNL     1      28.016  57.721  50.696  0.00  0.00    +0.220 A 
ATOM      9  N   UNL     1      28.789  57.379  51.794  0.00  0.00    -0.283 N 
ATOM     36  H   UNL     1      28.919  56.397  52.034  0.00  0.00    +0.155 HD
ATOM     37  N   UNL     1      27.473  56.723  49.968  0.00  0.00    -0.214 NA
BRANCH   4   3
ATOM      1  C   UNL     1      26.098  53.309  47.628  0.00  0.00    +0.020 A 
ATOM      2  C   UNL     1      26.655  54.428  48.353  0.00  0.00    +0.013 A 
ATOM      3  C   UNL     1      26.160  55.781  48.131  0.00  0.00    +0.019 A 
ATOM     38  C   UNL     1      25.093  55.969  47.160  0.00  0.00    +0.120 A 
ATOM     39  N   UNL     1      24.577  54.873  46.475  0.00  0.00    -0.263 NA
ATOM     40  C   UNL     1      25.046  53.567  46.680  0.00  0.00    +0.111 A 
ENDBRANCH   4   3
ENDBRANCH  10   9
BRANCH  12  13
ATOM     13  N   UNL     1      28.386  60.990  55.194  0.00  0.00    -0.281 N 
ATOM     14  C   UNL     1      27.861  62.252  54.973  0.00  0.00    +0.248 C 
ATOM     30  O   UNL     1      28.158  62.969  54.029  0.00  0.00    -0.270 OA
ATOM     31  H   UNL     1      28.204  60.583  56.112  0.00  0.00    +0.155 HD
BRANCH  14  15
ATOM     15  C   UNL     1      26.872  62.804  55.949  0.00  0.00    +0.037 A 
ATOM     16  C   UNL     1      26.770  64.245  56.195  0.00  0.00    +0.013 A 
ATOM     17  C   UNL     1      25.820  64.750  57.154  0.00  0.00    +0.005 A 
ATOM     18  C   UNL     1      24.963  63.811  57.875  0.00  0.00    -0.033 A 
ATOM     28  C   UNL     1      25.082  62.387  57.608  0.00  0.00    +0.005 A 
ATOM     29  C   UNL     1      26.013  61.889  56.669  0.00  0.00    +0.013 A 
BRANCH  18  19
ATOM     19  C   UNL     1      23.936  64.259  58.932  0.00  0.00    +0.119 C 
BRANCH  19  20
ATOM     20  N   UNL     1      23.938  63.534  60.237  0.00  0.00    -0.302 NA
ATOM     21  C   UNL     1      22.677  62.686  60.425  0.00  0.00    +0.066 C 
ATOM     22  C   UNL     1      22.706  61.916  61.786  0.00  0.00    -0.064 C 
ATOM     23  N   UNL     1      22.860  62.918  62.932  0.00  0.00    +0.379 N 
ATOM     24  C   UNL     1      22.830  62.203  64.216  0.00  0.00    -0.096 C 
ATOM     25  H   UNL     1      21.980  63.602  62.904  0.00  0.00    -0.082 HD
ATOM     26  C   UNL     1      24.110  63.768  62.751  0.00  0.00    -0.064 C 
ATOM     27  C   UNL     1      24.085  64.505  61.383  0.00  0.00    +0.066 C 
ENDBRANCH  19  20
ENDBRANCH  18  19
ENDBRANCH  14  15
ENDBRANCH  12  13
TORSDOF 6
ENDMDL
MODEL 5
REMARK VINA RESULT:      -9.3      1.927      2.407
REMARK  Name = C:\Users\Docking\Desktop\test protocol\1iep_ligandH.pdb
REMARK  8 active torsions:
REMARK  status: ('A' for Active; 'I' for Inactive)
REMARK    1  A    between atoms: _5  and  _11
REMARK    2  A    between atoms: _19  and  _21
REMARK    3  A    between atoms: _22  and  _66
REMARK    4  A    between atoms: _27  and  _30
REMARK    5  A    between atoms: _32  and  _33
REMARK    6  A    between atoms: _38  and  _43
REMARK    7  A    between atoms: _43  and  _46
REMARK    8  A    between atoms: _53  and  _55
REMARK                            x       y       z     vdW  Elec       q    Type
REMARK                         _______ _______ _______ _____ _____    ______ ____
ROOT
ATOM     10  C   UNL     1      27.540  58.724  53.125  0.00  0.00    +0.038 A 
ATOM     11  C   UNL     1      26.583  59.137  54.087  0.00  0.00    +0.047 A 
ATOM     12  C   UNL     1      26.871  60.216  55.019  0.00  0.00    +0.035 A 
ATOM     32  C   UNL     1      28.144  60.854  54.942  0.00  0.00    +0.024 A 
ATOM     33  C   UNL     1      29.128  60.446  53.971  0.00  0.00    +0.007 A 
ATOM     34  C   UNL     1      28.851  59.381  53.051  0.00  0.00    -0.029 A 
ATOM     35  C   UNL     1      29.946  58.980  52.035  0.00  0.00    +0.045 C 
ENDROOT
BRANCH  10   9
ATOM      4  C   UNL     1      26.250  57.061  48.811  0.00  0.00    +0.077 A 
ATOM      5  C   UNL     1      26.203  58.381  48.251  0.00  0.00    +0.048 A 
ATOM      6  C   UNL     1      26.511  59.461  49.109  0.00  0.00    +0.116 A 
ATOM      7  N   UNL     1      26.840  59.227  50.426  0.00  0.00    -0.223 NA
ATOM      8  C   UNL     1      26.874  57.942  50.935  0.00  0.00    +0.220 A 
ATOM      9  N   UNL     1      27.210  57.682  52.255  0.00  0.00    -0.283 N 
ATOM     36  H   UNL     1      27.217  56.721  52.594  0.00  0.00    +0.155 HD
ATOM     37  N   UNL     1      26.583  56.893  50.137  0.00  0.00    -0.214 NA
BRANCH   4   3
ATOM      1  C   UNL     1      24.774  54.561  46.190  0.00  0.00    +0.020 A 
ATOM      2  C   UNL     1      25.024  55.789  46.910  0.00  0.00    +0.013 A 
ATOM      3  C   UNL     1      25.954  55.818  48.032  0.00  0.00    +0.019 A 
ATOM     38  C   UNL     1      26.621  54.578  48.401  0.00  0.00    +0.120 A 
ATOM     39  N   UNL     1      26.359  53.411  47.690  0.00  0.00    -0.263 NA
ATOM     40  C   UNL     1      25.465  53.371  46.610  0.00  0.00    +0.111 A 
ENDBRANCH   4   3
ENDBRANCH  10   9
BRANCH  12  13
ATOM     13  N   UNL     1      25.943  60.674  56.023  0.00  0.00    -0.281 N 
ATOM     14  C   UNL     1      25.463  59.978  57.121  0.00  0.00    +0.248 C 
ATOM     30  O   UNL     1      25.598  58.775  57.288  0.00  0.00    -0.270 OA
ATOM     31  H   UNL     1      25.596  61.627  55.910  0.00  0.00    +0.155 HD
BRANCH  14  15
ATOM     15  C   UNL     1      24.714  60.723  58.177  0.00  0.00    +0.037 A 
ATOM     16  C   UNL     1      24.916  62.160  58.382  0.00  0.00    +0.013 A 
ATOM     17  C   UNL     1      24.193  62.851  59.420  0.00  0.00    +0.005 A 
ATOM     18  C   UNL     1      23.260  62.106  60.261  0.00  0.00    -0.033 A 
ATOM     28  C   UNL     1      23.075  60.682  60.033  0.00  0.00    +0.005 A 
ATOM     29  C   UNL     1      23.782  60.001  59.017  0.00  0.00    +0.013 A 
BRANCH  18  19
ATOM     19  C   UNL     1      22.462  62.757  61.406  0.00  0.00    +0.119 C 
BRANCH  19  20
ATOM     20  N   UNL     1      23.007  62.613  62.788  0.00  0.00    -0.302 NA
ATOM     21  C   UNL     1      23.630  61.233  63.019  0.00  0.00    +0.066 C 
ATOM     22  C   UNL     1      24.215  61.106  64.463  0.00  0.00    -0.064 C 
ATOM     23  N   UNL     1      23.110  61.379  65.484  0.00  0.00    +0.379 N 
ATOM     24  C   UNL     1      23.643  61.205  66.843  0.00  0.00    -0.096 C 
ATOM     25  H   UNL     1      22.313  60.615  65.332  0.00  0.00    -0.082 HD
ATOM     26  C   UNL     1      22.484  62.749  65.261  0.00  0.00    -0.064 C 
ATOM     27  C   UNL     1      21.931  62.874  63.813  0.00  0.00    +0.066 C 
ENDBRANCH  19  20
ENDBRANCH  18  19
ENDBRANCH  14  15
ENDBRANCH  12  13
TORSDOF 6
ENDMDL
