MODEL 1
REMARK VINA RESULT:     -11.1      0.000      0.000
REMARK  Name = C:\Users\Docking\Desktop\test protocol\1iep_ligandH.pdb
REMARK  8 active torsions:
REMARK  status: ('A' for Active; 'I' for Inactive)
REMARK    1  A    between atoms: _5  and  _11
REMARK    2  A    between atoms: _19  and  _21
REMARK    3  A    between atoms: _22  and  _66
REMARK    4  A    between atoms: _27  and  _30
REMARK    5  A    between atoms: _32  and  _33
REMARK    6  A    between atoms: _38  and  _43
REMARK    7  A    between atoms: _43  and  _46
REMARK    8  A    between atoms: _53  and  _55
REMARK                            x       y       z     vdW  Elec       q    Type
REMARK                         _______ _______ _______ _____ _____    ______ ____
ROOT
ATOM     10  C   UNL     1      17.420   6.192  38.885  0.00  0.00    +0.038 A 
ATOM     11  C   UNL     1      16.222   6.082  38.135  0.00  0.00    +0.047 A 
ATOM     12  C   UNL     1      16.174   6.466  36.733  0.00  0.00    +0.035 A 
ATOM     32  C   UNL     1      17.367   6.955  36.125  0.00  0.00    +0.024 A 
ATOM     33  C   UNL     1      18.594   7.074  36.873  0.00  0.00    +0.007 A 
ATOM     34  C   UNL     1      18.646   6.699  38.257  0.00  0.00    -0.029 A 
ATOM     35  C   UNL     1      19.988   6.853  39.012  0.00  0.00    +0.045 C 
ENDROOT
BRANCH  10   9
ATOM      4  C   UNL     1      17.205   2.862  42.335  0.00  0.00    +0.077 A 
ATOM      5  C   UNL     1      17.077   1.797  41.382  0.00  0.00    +0.048 A 
ATOM      6  C   UNL     1      17.063   2.150  40.014  0.00  0.00    +0.116 A 
ATOM      7  N   UNL     1      17.171   3.471  39.638  0.00  0.00    -0.223 NA
ATOM      8  C   UNL     1      17.292   4.474  40.583  0.00  0.00    +0.220 A 
ATOM      9  N   UNL     1      17.410   5.809  40.228  0.00  0.00    -0.283 N 
ATOM     36  H   UNL     1      17.489   6.519  40.956  0.00  0.00    +0.155 HD
ATOM     37  N   UNL     1      17.306   4.163  41.896  0.00  0.00    -0.214 NA
BRANCH   4   3
ATOM      1  C   UNL     1      17.398   1.180  45.862  0.00  0.00    +0.020 A 
ATOM      2  C   UNL     1      17.370   1.331  44.425  0.00  0.00    +0.013 A 
ATOM      3  C   UNL     1      17.239   2.649  43.817  0.00  0.00    +0.019 A 
ATOM     38  C   UNL     1      17.138   3.803  44.697  0.00  0.00    +0.120 A 
ATOM     39  N   UNL     1      17.166   3.627  46.077  0.00  0.00    -0.263 NA
ATOM     40  C   UNL     1      17.290   2.364  46.674  0.00  0.00    +0.111 A 
ENDBRANCH   4   3
ENDBRANCH  10   9
BRANCH  12  13
ATOM     13  N   UNL     1      14.984   6.385  35.923  0.00  0.00    -0.281 N 
ATOM     14  C   UNL     1      14.079   7.394  35.634  0.00  0.00    +0.248 C 
ATOM     30  O   UNL     1      14.042   8.473  36.207  0.00  0.00    -0.270 OA
ATOM     31  H   UNL     1      14.784   5.473  35.512  0.00  0.00    +0.155 HD
BRANCH  14  15
ATOM     15  C   UNL     1      13.060   7.166  34.565  0.00  0.00    +0.037 A 
ATOM     16  C   UNL     1      13.452   6.725  33.224  0.00  0.00    +0.013 A 
ATOM     17  C   UNL     1      12.450   6.530  32.206  0.00  0.00    +0.005 A 
ATOM     18  C   UNL     1      11.046   6.774  32.527  0.00  0.00    -0.033 A 
ATOM     28  C   UNL     1      10.685   7.206  33.867  0.00  0.00    +0.005 A 
ATOM     29  C   UNL     1      11.664   7.400  34.867  0.00  0.00    +0.013 A 
BRANCH  18  19
ATOM     19  C   UNL     1       9.912   6.611  31.497  0.00  0.00    +0.119 C 
BRANCH  19  20
ATOM     20  N   UNL     1       9.342   7.858  30.904  0.00  0.00    -0.302 NA
ATOM     21  C   UNL     1       8.593   8.697  31.943  0.00  0.00    +0.066 C 
ATOM     22  C   UNL     1       8.023  10.008  31.311  0.00  0.00    -0.064 C 
ATOM     23  N   UNL     1       7.106   9.650  30.140  0.00  0.00    +0.379 N 
ATOM     24  C   UNL     1       6.522  10.878  29.580  0.00  0.00    -0.096 C 
ATOM     25  H   UNL     1       6.270   9.031  30.542  0.00  0.00    -0.082 HD
ATOM     26  C   UNL     1       7.842   8.813  29.104  0.00  0.00    -0.064 C 
ATOM     27  C   UNL     1       8.430   7.527  29.748  0.00  0.00    +0.066 C 
ENDBRANCH  19  20
ENDBRANCH  18  19
ENDBRANCH  14  15
ENDBRANCH  12  13
TORSDOF 6
ENDMDL
MODEL 2
REMARK VINA RESULT:     -10.8      2.695     13.859
REMARK  Name = C:\Users\Docking\Desktop\test protocol\1iep_ligandH.pdb
REMARK  8 active torsions:
REMARK  status: ('A' for Active; 'I' for Inactive)
REMARK    1  A    between atoms: _5  and  _11
REMARK    2  A    between atoms: _19  and  _21
REMARK    3  A    between atoms: _22  and  _66
REMARK    4  A    between atoms: _27  and  _30
REMARK    5  A    between atoms: _32  and  _33
REMARK    6  A    between atoms: _38  and  _43
REMARK    7  A    between atoms: _43  and  _46
REMARK    8  A    between atoms: _53  and  _55
REMARK                            x       y       z     vdW  Elec       q    Type
REMARK                         _______ _______ _______ _____ _____    ______ ____
ROOT
ATOM     10  C   UNL     1      16.547   5.778  37.440  0.00  0.00    +0.038 A 
ATOM     11  C   UNL     1      16.315   5.039  38.628  0.00  0.00    +0.047 A 
ATOM     12  C   UNL     1      17.230   5.121  39.756  0.00  0.00    +0.035 A 
ATOM     32  C   UNL     1      18.369   5.969  39.642  0.00  0.00    +0.024 A 
ATOM     33  C   UNL     1      18.621   6.727  38.441  0.00  0.00    +0.007 A 
ATOM     34  C   UNL     1      17.724   6.648  37.324  0.00  0.00    -0.029 A 
ATOM     35  C   UNL     1      18.047   7.478  36.060  0.00  0.00    +0.045 C 
ENDROOT
BRANCH  10   9
ATOM      4  C   UNL     1      13.005   7.501  34.697  0.00  0.00    +0.077 A 
ATOM      5  C   UNL     1      12.945   8.726  35.441  0.00  0.00    +0.048 A 
ATOM      6  C   UNL     1      13.838   8.871  36.526  0.00  0.00    +0.116 A 
ATOM      7  N   UNL     1      14.721   7.859  36.835  0.00  0.00    -0.223 NA
ATOM      8  C   UNL     1      14.752   6.689  36.099  0.00  0.00    +0.220 A 
ATOM      9  N   UNL     1      15.637   5.662  36.388  0.00  0.00    -0.283 N 
ATOM     36  H   UNL     1      15.623   4.811  35.825  0.00  0.00    +0.155 HD
ATOM     37  N   UNL     1      13.908   6.526  35.059  0.00  0.00    -0.214 NA
BRANCH   4   3
ATOM      1  C   UNL     1      11.668   6.098  31.299  0.00  0.00    +0.020 A 
ATOM      2  C   UNL     1      12.554   6.358  32.410  0.00  0.00    +0.013 A 
ATOM      3  C   UNL     1      12.129   7.200  33.521  0.00  0.00    +0.019 A 
ATOM     38  C   UNL     1      10.790   7.768  33.476  0.00  0.00    +0.120 A 
ATOM     39  N   UNL     1       9.959   7.502  32.392  0.00  0.00    -0.263 NA
ATOM     40  C   UNL     1      10.359   6.695  31.317  0.00  0.00    +0.111 A 
ENDBRANCH   4   3
ENDBRANCH  10   9
BRANCH  12  13
ATOM     13  N   UNL     1      17.050   4.388  40.985  0.00  0.00    -0.281 N 
ATOM     14  C   UNL     1      17.314   3.049  41.223  0.00  0.00    +0.248 C 
ATOM     30  O   UNL     1      17.545   2.224  40.352  0.00  0.00    -0.270 OA
ATOM     31  H   UNL     1      16.684   4.920  41.774  0.00  0.00    +0.155 HD
BRANCH  14  15
ATOM     15  C   UNL     1      17.306   2.551  42.633  0.00  0.00    +0.037 A 
ATOM     16  C   UNL     1      17.203   3.476  43.764  0.00  0.00    +0.013 A 
ATOM     17  C   UNL     1      17.215   2.971  45.114  0.00  0.00    +0.005 A 
ATOM     18  C   UNL     1      17.329   1.532  45.340  0.00  0.00    -0.033 A 
ATOM     28  C   UNL     1      17.424   0.637  44.199  0.00  0.00    +0.005 A 
ATOM     29  C   UNL     1      17.414   1.128  42.874  0.00  0.00    +0.013 A 
BRANCH  18  19
ATOM     19  C   UNL     1      17.370   0.907  46.747  0.00  0.00    +0.119 C 
BRANCH  19  20
ATOM     20  N   UNL     1      17.814  -0.516  46.850  0.00  0.00    -0.302 NA
ATOM     21  C   UNL     1      17.102  -1.258  47.984  0.00  0.00    +0.066 C 
ATOM     22  C   UNL     1      17.561  -2.751  48.063  0.00  0.00    -0.064 C 
ATOM     23  N   UNL     1      19.079  -2.806  48.248  0.00  0.00    +0.379 N 
ATOM     24  C   UNL     1      19.506  -4.206  48.381  0.00  0.00    -0.096 C 
ATOM     25  H   UNL     1      19.322  -2.286  49.203  0.00  0.00    -0.082 HD
ATOM     26  C   UNL     1      19.794  -2.067  47.125  0.00  0.00    -0.064 C 
ATOM     27  C   UNL     1      19.309  -0.593  47.036  0.00  0.00    +0.066 C 
ENDBRANCH  19  20
ENDBRANCH  18  19
ENDBRANCH  14  15
ENDBRANCH  12  13
TORSDOF 6
ENDMDL
MODEL 3
REMARK VINA RESULT:     -10.6      2.646     13.384
REMARK  Name = C:\Users\Docking\Desktop\test protocol\1iep_ligandH.pdb
REMARK  8 active torsions:
REMARK  status: ('A' for Active; 'I' for Inactive)
REMARK    1  A    between atoms: _5  and  _11
REMARK    2  A    between atoms: _19  and  _21
REMARK    3  A    between atoms: _22  and  _66
REMARK    4  A    between atoms: _27  and  _30
REMARK    5  A    between atoms: _32  and  _33
REMARK    6  A    between atoms: _38  and  _43
REMARK    7  A    between atoms: _43  and  _46
REMARK    8  A    between atoms: _53  and  _55
REMARK                            x       y       z     vdW  Elec       q    Type
REMARK                         _______ _______ _______ _____ _____    ______ ____
ROOT
ATOM     10  C   UNL     1      16.509   5.781  37.457  0.00  0.00    +0.038 A 
ATOM     11  C   UNL     1      16.282   5.032  38.639  0.00  0.00    +0.047 A 
ATOM     12  C   UNL     1      17.202   5.105  39.764  0.00  0.00    +0.035 A 
ATOM     32  C   UNL     1      18.341   5.954  39.651  0.00  0.00    +0.024 A 
ATOM     33  C   UNL     1      18.587   6.722  38.456  0.00  0.00    +0.007 A 
ATOM     34  C   UNL     1      17.685   6.652  37.342  0.00  0.00    -0.029 A 
ATOM     35  C   UNL     1      18.002   7.492  36.083  0.00  0.00    +0.045 C 
ENDROOT
BRANCH  10   9
ATOM      4  C   UNL     1      12.963   7.532  34.736  0.00  0.00    +0.077 A 
ATOM      5  C   UNL     1      12.912   8.754  35.484  0.00  0.00    +0.048 A 
ATOM      6  C   UNL     1      13.811   8.890  36.567  0.00  0.00    +0.116 A 
ATOM      7  N   UNL     1      14.690   7.873  36.868  0.00  0.00    -0.223 NA
ATOM      8  C   UNL     1      14.712   6.706  36.127  0.00  0.00    +0.220 A 
ATOM      9  N   UNL     1      15.593   5.673  36.407  0.00  0.00    -0.283 N 
ATOM     36  H   UNL     1      15.573   4.825  35.841  0.00  0.00    +0.155 HD
ATOM     37  N   UNL     1      13.863   6.551  35.089  0.00  0.00    -0.214 NA
BRANCH   4   3
ATOM      1  C   UNL     1      11.617   6.176  31.322  0.00  0.00    +0.020 A 
ATOM      2  C   UNL     1      12.509   6.428  32.431  0.00  0.00    +0.013 A 
ATOM      3  C   UNL     1      12.080   7.240  33.562  0.00  0.00    +0.019 A 
ATOM     38  C   UNL     1      10.732   7.786  33.542  0.00  0.00    +0.120 A 
ATOM     39  N   UNL     1       9.895   7.528  32.460  0.00  0.00    -0.263 NA
ATOM     40  C   UNL     1      10.298   6.749  31.365  0.00  0.00    +0.111 A 
ENDBRANCH   4   3
ENDBRANCH  10   9
BRANCH  12  13
ATOM     13  N   UNL     1      17.028   4.362  40.987  0.00  0.00    -0.281 N 
ATOM     14  C   UNL     1      17.357   3.039  41.234  0.00  0.00    +0.248 C 
ATOM     30  O   UNL     1      17.657   2.229  40.369  0.00  0.00    -0.270 OA
ATOM     31  H   UNL     1      16.612   4.872  41.766  0.00  0.00    +0.155 HD
BRANCH  14  15
ATOM     15  C   UNL     1      17.337   2.540  42.642  0.00  0.00    +0.037 A 
ATOM     16  C   UNL     1      17.420   1.108  42.943  0.00  0.00    +0.013 A 
ATOM     17  C   UNL     1      17.381   0.653  44.310  0.00  0.00    +0.005 A 
ATOM     18  C   UNL     1      17.260   1.632  45.388  0.00  0.00    -0.033 A 
ATOM     28  C   UNL     1      17.184   3.046  45.062  0.00  0.00    +0.005 A 
ATOM     29  C   UNL     1      17.221   3.496  43.723  0.00  0.00    +0.013 A 
BRANCH  18  19
ATOM     19  C   UNL     1      17.189   1.235  46.874  0.00  0.00    +0.119 C 
BRANCH  19  20
ATOM     20  N   UNL     1      16.087   0.314  47.284  0.00  0.00    -0.302 NA
ATOM     21  C   UNL     1      15.035   1.023  48.142  0.00  0.00    +0.066 C 
ATOM     22  C   UNL     1      13.879   0.050  48.543  0.00  0.00    -0.064 C 
ATOM     23  N   UNL     1      14.462  -1.152  49.287  0.00  0.00    +0.379 N 
ATOM     24  C   UNL     1      13.372  -2.040  49.716  0.00  0.00    -0.096 C 
ATOM     25  H   UNL     1      14.968  -0.770  50.203  0.00  0.00    -0.082 HD
ATOM     26  C   UNL     1      15.511  -1.862  48.442  0.00  0.00    -0.064 C 
ATOM     27  C   UNL     1      16.641  -0.879  48.024  0.00  0.00    +0.066 C 
ENDBRANCH  19  20
ENDBRANCH  18  19
ENDBRANCH  14  15
ENDBRANCH  12  13
TORSDOF 6
ENDMDL
MODEL 4
REMARK VINA RESULT:     -10.5      2.328      3.576
REMARK  Name = C:\Users\Docking\Desktop\test protocol\1iep_ligandH.pdb
REMARK  8 active torsions:
REMARK  status: ('A' for Active; 'I' for Inactive)
REMARK    1  A    between atoms: _5  and  _11
REMARK    2  A    between atoms: _19  and  _21
REMARK    3  A    between atoms: _22  and  _66
REMARK    4  A    between atoms: _27  and  _30
REMARK    5  A    between atoms: _32  and  _33
REMARK    6  A    between atoms: _38  and  _43
REMARK    7  A    between atoms: _43  and  _46
REMARK    8  A    between atoms: _53  and  _55
REMARK                            x       y       z     vdW  Elec       q    Type
REMARK                         _______ _______ _______ _____ _____    ______ ____
ROOT
ATOM     10  C   UNL     1      14.891   5.209  37.399  0.00  0.00    +0.038 A 
ATOM     11  C   UNL     1      13.925   6.210  37.123  0.00  0.00    +0.047 A 
ATOM     12  C   UNL     1      13.663   6.648  35.761  0.00  0.00    +0.035 A 
ATOM     32  C   UNL     1      14.401   6.042  34.703  0.00  0.00    +0.024 A 
ATOM     33  C   UNL     1      15.388   5.024  34.965  0.00  0.00    +0.007 A 
ATOM     34  C   UNL     1      15.652   4.590  36.307  0.00  0.00    -0.029 A 
ATOM     35  C   UNL     1      16.725   3.499  36.530  0.00  0.00    +0.045 C 
ENDROOT
BRANCH  10   9
ATOM      4  C   UNL     1      17.311   5.442  41.538  0.00  0.00    +0.077 A 
ATOM      5  C   UNL     1      18.250   6.385  41.003  0.00  0.00    +0.048 A 
ATOM      6  C   UNL     1      18.080   6.780  39.657  0.00  0.00    +0.116 A 
ATOM      7  N   UNL     1      17.043   6.263  38.910  0.00  0.00    -0.223 NA
ATOM      8  C   UNL     1      16.156   5.353  39.456  0.00  0.00    +0.220 A 
ATOM      9  N   UNL     1      15.102   4.826  38.726  0.00  0.00    -0.283 N 
ATOM     36  H   UNL     1      14.473   4.152  39.162  0.00  0.00    +0.155 HD
ATOM     37  N   UNL     1      16.298   4.960  40.739  0.00  0.00    -0.214 NA
BRANCH   4   3
ATOM      1  C   UNL     1      17.473   5.266  45.442  0.00  0.00    +0.020 A 
ATOM      2  C   UNL     1      17.432   5.810  44.104  0.00  0.00    +0.013 A 
ATOM      3  C   UNL     1      17.357   4.931  42.944  0.00  0.00    +0.019 A 
ATOM     38  C   UNL     1      17.324   3.495  43.174  0.00  0.00    +0.120 A 
ATOM     39  N   UNL     1      17.366   2.999  44.473  0.00  0.00    -0.263 NA
ATOM     40  C   UNL     1      17.441   3.836  45.597  0.00  0.00    +0.111 A 
ENDBRANCH   4   3
ENDBRANCH  10   9
BRANCH  12  13
ATOM     13  N   UNL     1      12.700   7.666  35.421  0.00  0.00    -0.281 N 
ATOM     14  C   UNL     1      12.925   9.018  35.219  0.00  0.00    +0.248 C 
ATOM     30  O   UNL     1      13.961   9.597  35.512  0.00  0.00    -0.270 OA
ATOM     31  H   UNL     1      11.735   7.352  35.316  0.00  0.00    +0.155 HD
BRANCH  14  15
ATOM     15  C   UNL     1      11.838   9.849  34.619  0.00  0.00    +0.037 A 
ATOM     16  C   UNL     1      11.104  10.833  35.419  0.00  0.00    +0.013 A 
ATOM     17  C   UNL     1      10.048  11.610  34.819  0.00  0.00    +0.005 A 
ATOM     18  C   UNL     1       9.722  11.407  33.410  0.00  0.00    -0.033 A 
ATOM     28  C   UNL     1      10.469  10.428  32.638  0.00  0.00    +0.005 A 
ATOM     29  C   UNL     1      11.504   9.664  33.223  0.00  0.00    +0.013 A 
BRANCH  18  19
ATOM     19  C   UNL     1       8.596  12.177  32.693  0.00  0.00    +0.119 C 
BRANCH  19  20
ATOM     20  N   UNL     1       7.317  11.446  32.448  0.00  0.00    -0.302 NA
ATOM     21  C   UNL     1       6.904  10.592  33.649  0.00  0.00    +0.066 C 
ATOM     22  C   UNL     1       5.552   9.853  33.384  0.00  0.00    -0.064 C 
ATOM     23  N   UNL     1       5.683   8.991  32.127  0.00  0.00    +0.379 N 
ATOM     24  C   UNL     1       4.433   8.250  31.907  0.00  0.00    -0.096 C 
ATOM     25  H   UNL     1       6.491   8.245  32.312  0.00  0.00    -0.082 HD
ATOM     26  C   UNL     1       6.097   9.832  30.928  0.00  0.00    -0.064 C 
ATOM     27  C   UNL     1       7.426  10.585  31.213  0.00  0.00    +0.066 C 
ENDBRANCH  19  20
ENDBRANCH  18  19
ENDBRANCH  14  15
ENDBRANCH  12  13
TORSDOF 6
ENDMDL
MODEL 5
REMARK VINA RESULT:     -10.5      1.469      2.133
REMARK  Name = C:\Users\Docking\Desktop\test protocol\1iep_ligandH.pdb
REMARK  8 active torsions:
REMARK  status: ('A' for Active; 'I' for Inactive)
REMARK    1  A    between atoms: _5  and  _11
REMARK    2  A    between atoms: _19  and  _21
REMARK    3  A    between atoms: _22  and  _66
REMARK    4  A    between atoms: _27  and  _30
REMARK    5  A    between atoms: _32  and  _33
REMARK    6  A    between atoms: _38  and  _43
REMARK    7  A    between atoms: _43  and  _46
REMARK    8  A    between atoms: _53  and  _55
REMARK                            x       y       z     vdW  Elec       q    Type
REMARK                         _______ _______ _______ _____ _____    ______ ____
ROOT
ATOM     10  C   UNL     1      16.719   6.438  38.609  0.00  0.00    +0.038 A 
ATOM     11  C   UNL     1      15.423   6.694  38.092  0.00  0.00    +0.047 A 
ATOM     12  C   UNL     1      15.240   7.229  36.752  0.00  0.00    +0.035 A 
ATOM     32  C   UNL     1      16.399   7.490  35.964  0.00  0.00    +0.024 A 
ATOM     33  C   UNL     1      17.723   7.238  36.474  0.00  0.00    +0.007 A 
ATOM     34  C   UNL     1      17.911   6.712  37.796  0.00  0.00    -0.029 A 
ATOM     35  C   UNL     1      19.354   6.466  38.293  0.00  0.00    +0.045 C 
ENDROOT
BRANCH  10   9
ATOM      4  C   UNL     1      17.113   2.777  41.688  0.00  0.00    +0.077 A 
ATOM      5  C   UNL     1      17.051   1.807  40.634  0.00  0.00    +0.048 A 
ATOM      6  C   UNL     1      16.911   2.290  39.313  0.00  0.00    +0.116 A 
ATOM      7  N   UNL     1      16.839   3.646  39.077  0.00  0.00    -0.223 NA
ATOM      8  C   UNL     1      16.900   4.555  40.117  0.00  0.00    +0.220 A 
ATOM      9  N   UNL     1      16.837   5.924  39.902  0.00  0.00    -0.283 N 
ATOM     36  H   UNL     1      16.878   6.561  40.696  0.00  0.00    +0.155 HD
ATOM     37  N   UNL     1      17.032   4.119  41.387  0.00  0.00    -0.214 NA
BRANCH   4   3
ATOM      1  C   UNL     1      17.309   3.009  45.588  0.00  0.00    +0.020 A 
ATOM      2  C   UNL     1      17.155   3.404  44.207  0.00  0.00    +0.013 A 
ATOM      3  C   UNL     1      17.264   2.422  43.135  0.00  0.00    +0.019 A 
ATOM     38  C   UNL     1      17.529   1.038  43.497  0.00  0.00    +0.120 A 
ATOM     39  N   UNL     1      17.673   0.688  44.836  0.00  0.00    -0.263 NA
ATOM     40  C   UNL     1      17.573   1.624  45.876  0.00  0.00    +0.111 A 
ENDBRANCH   4   3
ENDBRANCH  10   9
BRANCH  12  13
ATOM     13  N   UNL     1      13.949   7.516  36.177  0.00  0.00    -0.281 N 
ATOM     14  C   UNL     1      13.442   8.747  35.795  0.00  0.00    +0.248 C 
ATOM     30  O   UNL     1      13.942   9.823  36.089  0.00  0.00    -0.270 OA
ATOM     31  H   UNL     1      13.335   6.714  36.034  0.00  0.00    +0.155 HD
BRANCH  14  15
ATOM     15  C   UNL     1      12.189   8.791  34.980  0.00  0.00    +0.037 A 
ATOM     16  C   UNL     1      10.933   8.232  35.488  0.00  0.00    +0.013 A 
ATOM     17  C   UNL     1       9.743   8.272  34.675  0.00  0.00    +0.005 A 
ATOM     18  C   UNL     1       9.805   8.875  33.345  0.00  0.00    -0.033 A 
ATOM     28  C   UNL     1      11.062   9.426  32.869  0.00  0.00    +0.005 A 
ATOM     29  C   UNL     1      12.231   9.388  33.663  0.00  0.00    +0.013 A 
BRANCH  18  19
ATOM     19  C   UNL     1       8.590   8.942  32.401  0.00  0.00    +0.119 C 
BRANCH  19  20
ATOM     20  N   UNL     1       8.807   8.545  30.978  0.00  0.00    -0.302 NA
ATOM     21  C   UNL     1       7.614   8.912  30.090  0.00  0.00    +0.066 C 
ATOM     22  C   UNL     1       7.868   8.509  28.601  0.00  0.00    -0.064 C 
ATOM     23  N   UNL     1       8.160   7.010  28.523  0.00  0.00    +0.379 N 
ATOM     24  C   UNL     1       8.342   6.618  27.118  0.00  0.00    -0.096 C 
ATOM     25  H   UNL     1       7.265   6.471  28.912  0.00  0.00    -0.082 HD
ATOM     26  C   UNL     1       9.343   6.636  29.405  0.00  0.00    -0.064 C 
ATOM     27  C   UNL     1       9.093   7.066  30.877  0.00  0.00    +0.066 C 
ENDBRANCH  19  20
ENDBRANCH  18  19
ENDBRANCH  14  15
ENDBRANCH  12  13
TORSDOF 6
ENDMDL
