MODEL 1
REMARK VINA RESULT:     -13.2      0.000      0.000
REMARK  Name = C:\Users\Docking\Desktop\test protocol\1iep_ligandH.pdb
REMARK  8 active torsions:
REMARK  status: ('A' for Active; 'I' for Inactive)
REMARK    1  A    between atoms: _5  and  _11
REMARK    2  A    between atoms: _19  and  _21
REMARK    3  A    between atoms: _22  and  _66
REMARK    4  A    between atoms: _27  and  _30
REMARK    5  A    between atoms: _32  and  _33
REMARK    6  A    between atoms: _38  and  _43
REMARK    7  A    between atoms: _43  and  _46
REMARK    8  A    between atoms: _53  and  _55
REMARK                            x       y       z     vdW  Elec       q    Type
REMARK                         _______ _______ _______ _____ _____    ______ ____
ROOT
ATOM     10  C   UNL     1      15.753  54.752  12.363  0.00  0.00    +0.038 A 
ATOM     11  C   UNL     1      15.715  53.898  13.495  0.00  0.00    +0.047 A 
ATOM     12  C   UNL     1      16.697  52.840  13.673  0.00  0.00    +0.035 A 
ATOM     32  C   UNL     1      17.706  52.681  12.680  0.00  0.00    +0.024 A 
ATOM     33  C   UNL     1      17.759  53.538  11.522  0.00  0.00    +0.007 A 
ATOM     34  C   UNL     1      16.792  54.582  11.340  0.00  0.00    -0.029 A 
ATOM     35  C   UNL     1      16.893  55.468  10.076  0.00  0.00    +0.045 C 
ENDROOT
BRANCH  10   9
ATOM      4  C   UNL     1      14.307  59.312  12.751  0.00  0.00    +0.077 A 
ATOM      5  C   UNL     1      15.580  59.734  13.262  0.00  0.00    +0.048 A 
ATOM      6  C   UNL     1      16.577  58.745  13.417  0.00  0.00    +0.116 A 
ATOM      7  N   UNL     1      16.311  57.435  13.082  0.00  0.00    -0.223 NA
ATOM      8  C   UNL     1      15.072  57.062  12.593  0.00  0.00    +0.220 A 
ATOM      9  N   UNL     1      14.785  55.752  12.242  0.00  0.00    -0.283 N 
ATOM     36  H   UNL     1      13.857  55.515  11.892  0.00  0.00    +0.155 HD
ATOM     37  N   UNL     1      14.103  57.987  12.437  0.00  0.00    -0.214 NA
BRANCH   4   3
ATOM      1  C   UNL     1      12.011  62.479  12.743  0.00  0.00    +0.020 A 
ATOM      2  C   UNL     1      13.151  61.624  12.985  0.00  0.00    +0.013 A 
ATOM      3  C   UNL     1      13.154  60.240  12.528  0.00  0.00    +0.019 A 
ATOM     38  C   UNL     1      11.980  59.749  11.823  0.00  0.00    +0.120 A 
ATOM     39  N   UNL     1      10.897  60.594  11.606  0.00  0.00    -0.263 NA
ATOM     40  C   UNL     1      10.881  61.927  12.043  0.00  0.00    +0.111 A 
ENDBRANCH   4   3
ENDBRANCH  10   9
BRANCH  12  13
ATOM     13  N   UNL     1      16.703  51.938  14.798  0.00  0.00    -0.281 N 
ATOM     14  C   UNL     1      15.669  51.669  15.680  0.00  0.00    +0.248 C 
ATOM     30  O   UNL     1      14.643  52.327  15.763  0.00  0.00    -0.270 OA
ATOM     31  H   UNL     1      17.576  51.437  14.965  0.00  0.00    +0.155 HD
BRANCH  14  15
ATOM     15  C   UNL     1      15.800  50.510  16.614  0.00  0.00    +0.037 A 
ATOM     16  C   UNL     1      17.059  49.770  16.735  0.00  0.00    +0.013 A 
ATOM     17  C   UNL     1      17.153  48.645  17.631  0.00  0.00    +0.005 A 
ATOM     18  C   UNL     1      15.984  48.254  18.416  0.00  0.00    -0.033 A 
ATOM     28  C   UNL     1      14.750  49.009  18.280  0.00  0.00    +0.005 A 
ATOM     29  C   UNL     1      14.653  50.111  17.402  0.00  0.00    +0.013 A 
BRANCH  18  19
ATOM     19  C   UNL     1      15.988  47.054  19.381  0.00  0.00    +0.119 C 
BRANCH  19  20
ATOM     20  N   UNL     1      17.242  46.800  20.152  0.00  0.00    -0.302 NA
ATOM     21  C   UNL     1      17.228  45.431  20.838  0.00  0.00    +0.066 C 
ATOM     22  C   UNL     1      18.556  45.173  21.621  0.00  0.00    -0.064 C 
ATOM     23  N   UNL     1      18.768  46.290  22.644  0.00  0.00    +0.379 N 
ATOM     24  C   UNL     1      19.986  46.019  23.421  0.00  0.00    -0.096 C 
ATOM     25  H   UNL     1      17.905  46.270  23.349  0.00  0.00    -0.082 HD
ATOM     26  C   UNL     1      18.781  47.655  21.970  0.00  0.00    -0.064 C 
ATOM     27  C   UNL     1      17.469  47.889  21.171  0.00  0.00    +0.066 C 
ENDBRANCH  19  20
ENDBRANCH  18  19
ENDBRANCH  14  15
ENDBRANCH  12  13
TORSDOF 6
ENDMDL
