MODEL 1
REMARK VINA RESULT:      -8.1      0.000      0.000
REMARK  Name = C:\Users\Docking\Desktop\test protocol\1iep_ligandH.pdb
REMARK  8 active torsions:
REMARK  status: ('A' for Active; 'I' for Inactive)
REMARK    1  A    between atoms: _5  and  _11
REMARK    2  A    between atoms: _19  and  _21
REMARK    3  A    between atoms: _22  and  _66
REMARK    4  A    between atoms: _27  and  _30
REMARK    5  A    between atoms: _32  and  _33
REMARK    6  A    between atoms: _38  and  _43
REMARK    7  A    between atoms: _43  and  _46
REMARK    8  A    between atoms: _53  and  _55
REMARK                            x       y       z     vdW  Elec       q    Type
REMARK                         _______ _______ _______ _____ _____    ______ ____
ROOT
ATOM     10  C   UNL     1       4.935  41.242  24.074  0.00  0.00    +0.038 A 
ATOM     11  C   UNL     1       6.287  40.927  23.781  0.00  0.00    +0.047 A 
ATOM     12  C   UNL     1       7.377  41.748  24.284  0.00  0.00    +0.035 A 
ATOM     32  C   UNL     1       7.054  42.881  25.087  0.00  0.00    +0.024 A 
ATOM     33  C   UNL     1       5.686  43.216  25.394  0.00  0.00    +0.007 A 
ATOM     34  C   UNL     1       4.606  42.411  24.898  0.00  0.00    -0.029 A 
ATOM     35  C   UNL     1       3.158  42.821  25.254  0.00  0.00    +0.045 C 
ENDROOT
BRANCH  10   9
ATOM      4  C   UNL     1       1.737  40.065  20.694  0.00  0.00    +0.077 A 
ATOM      5  C   UNL     1       2.083  41.200  19.888  0.00  0.00    +0.048 A 
ATOM      6  C   UNL     1       3.084  42.066  20.382  0.00  0.00    +0.116 A 
ATOM      7  N   UNL     1       3.687  41.807  21.594  0.00  0.00    -0.223 NA
ATOM      8  C   UNL     1       3.329  40.704  22.347  0.00  0.00    +0.220 A 
ATOM      9  N   UNL     1       3.928  40.419  23.564  0.00  0.00    -0.283 N 
ATOM     36  H   UNL     1       3.630  39.600  24.093  0.00  0.00    +0.155 HD
ATOM     37  N   UNL     1       2.375  39.862  21.897  0.00  0.00    -0.214 NA
BRANCH   4   3
ATOM      1  C   UNL     1      -0.217  36.708  20.233  0.00  0.00    +0.020 A 
ATOM      2  C   UNL     1       0.813  37.640  20.631  0.00  0.00    +0.013 A 
ATOM      3  C   UNL     1       0.701  39.056  20.306  0.00  0.00    +0.019 A 
ATOM     38  C   UNL     1      -0.474  39.500  19.571  0.00  0.00    +0.120 A 
ATOM     39  N   UNL     1      -1.448  38.579  19.200  0.00  0.00    -0.263 NA
ATOM     40  C   UNL     1      -1.351  37.213  19.506  0.00  0.00    +0.111 A 
ENDBRANCH   4   3
ENDBRANCH  10   9
BRANCH  12  13
ATOM     13  N   UNL     1       8.768  41.483  24.012  0.00  0.00    -0.281 N 
ATOM     14  C   UNL     1       9.735  42.373  23.577  0.00  0.00    +0.248 C 
ATOM     30  O   UNL     1       9.501  43.494  23.149  0.00  0.00    -0.270 OA
ATOM     31  H   UNL     1       9.076  40.521  24.159  0.00  0.00    +0.155 HD
BRANCH  14  15
ATOM     15  C   UNL     1      11.170  41.954  23.609  0.00  0.00    +0.037 A 
ATOM     16  C   UNL     1      11.631  40.769  22.881  0.00  0.00    +0.013 A 
ATOM     17  C   UNL     1      13.017  40.376  22.943  0.00  0.00    +0.005 A 
ATOM     18  C   UNL     1      13.952  41.172  23.735  0.00  0.00    -0.033 A 
ATOM     28  C   UNL     1      13.468  42.346  24.443  0.00  0.00    +0.005 A 
ATOM     29  C   UNL     1      12.110  42.733  24.386  0.00  0.00    +0.013 A 
BRANCH  18  19
ATOM     19  C   UNL     1      15.444  40.815  23.874  0.00  0.00    +0.119 C 
BRANCH  19  20
ATOM     20  N   UNL     1      16.373  41.343  22.831  0.00  0.00    -0.302 NA
ATOM     21  C   UNL     1      17.499  40.355  22.513  0.00  0.00    +0.066 C 
ATOM     22  C   UNL     1      18.449  40.913  21.404  0.00  0.00    -0.064 C 
ATOM     23  N   UNL     1      19.020  42.259  21.854  0.00  0.00    +0.379 N 
ATOM     24  C   UNL     1      19.958  42.758  20.839  0.00  0.00    -0.096 C 
ATOM     25  H   UNL     1      19.597  42.084  22.792  0.00  0.00    -0.082 HD
ATOM     26  C   UNL     1      17.907  43.246  22.175  0.00  0.00    -0.064 C 
ATOM     27  C   UNL     1      16.952  42.669  23.257  0.00  0.00    +0.066 C 
ENDBRANCH  19  20
ENDBRANCH  18  19
ENDBRANCH  14  15
ENDBRANCH  12  13
TORSDOF 6
ENDMDL
MODEL 2
REMARK VINA RESULT:      -8.1     26.310     31.182
REMARK  Name = C:\Users\Docking\Desktop\test protocol\1iep_ligandH.pdb
REMARK  8 active torsions:
REMARK  status: ('A' for Active; 'I' for Inactive)
REMARK    1  A    between atoms: _5  and  _11
REMARK    2  A    between atoms: _19  and  _21
REMARK    3  A    between atoms: _22  and  _66
REMARK    4  A    between atoms: _27  and  _30
REMARK    5  A    between atoms: _32  and  _33
REMARK    6  A    between atoms: _38  and  _43
REMARK    7  A    between atoms: _43  and  _46
REMARK    8  A    between atoms: _53  and  _55
REMARK                            x       y       z     vdW  Elec       q    Type
REMARK                         _______ _______ _______ _____ _____    ______ ____
ROOT
ATOM     10  C   UNL     1      24.968  30.761  -4.152  0.00  0.00    +0.038 A 
ATOM     11  C   UNL     1      24.795  31.823  -3.228  0.00  0.00    +0.047 A 
ATOM     12  C   UNL     1      25.709  32.005  -2.111  0.00  0.00    +0.035 A 
ATOM     32  C   UNL     1      26.791  31.087  -1.967  0.00  0.00    +0.024 A 
ATOM     33  C   UNL     1      26.980  30.001  -2.897  0.00  0.00    +0.007 A 
ATOM     34  C   UNL     1      26.080  29.815  -3.999  0.00  0.00    -0.029 A 
ATOM     35  C   UNL     1      26.328  28.630  -4.960  0.00  0.00    +0.045 C 
ENDROOT
BRANCH  10   9
ATOM      4  C   UNL     1      20.781  29.286  -5.978  0.00  0.00    +0.077 A 
ATOM      5  C   UNL     1      20.379  28.696  -4.734  0.00  0.00    +0.048 A 
ATOM      6  C   UNL     1      21.281  28.787  -3.650  0.00  0.00    +0.116 A 
ATOM      7  N   UNL     1      22.493  29.424  -3.811  0.00  0.00    -0.223 NA
ATOM      8  C   UNL     1      22.851  29.981  -5.025  0.00  0.00    +0.220 A 
ATOM      9  N   UNL     1      24.060  30.633  -5.206  0.00  0.00    -0.283 N 
ATOM     36  H   UNL     1      24.290  31.024  -6.119  0.00  0.00    +0.155 HD
ATOM     37  N   UNL     1      22.007  29.906  -6.075  0.00  0.00    -0.214 NA
BRANCH   4   3
ATOM      1  C   UNL     1      19.561  28.795  -9.662  0.00  0.00    +0.020 A 
ATOM      2  C   UNL     1      20.418  28.785  -8.499  0.00  0.00    +0.013 A 
ATOM      3  C   UNL     1      19.936  29.274  -7.214  0.00  0.00    +0.019 A 
ATOM     38  C   UNL     1      18.570  29.770  -7.138  0.00  0.00    +0.120 A 
ATOM     39  N   UNL     1      17.768  29.769  -8.275  0.00  0.00    -0.263 NA
ATOM     40  C   UNL     1      18.221  29.302  -9.517  0.00  0.00    +0.111 A 
ENDBRANCH   4   3
ENDBRANCH  10   9
BRANCH  12  13
ATOM     13  N   UNL     1      25.580  33.059  -1.137  0.00  0.00    -0.281 N 
ATOM     14  C   UNL     1      26.083  34.348  -1.205  0.00  0.00    +0.248 C 
ATOM     30  O   UNL     1      26.907  34.726  -2.024  0.00  0.00    -0.270 OA
ATOM     31  H   UNL     1      25.053  32.828  -0.295  0.00  0.00    +0.155 HD
BRANCH  14  15
ATOM     15  C   UNL     1      25.613  35.360  -0.211  0.00  0.00    +0.037 A 
ATOM     16  C   UNL     1      25.962  36.777  -0.345  0.00  0.00    +0.013 A 
ATOM     17  C   UNL     1      25.510  37.730   0.638  0.00  0.00    +0.005 A 
ATOM     18  C   UNL     1      24.702  37.268   1.764  0.00  0.00    -0.033 A 
ATOM     28  C   UNL     1      24.365  35.858   1.870  0.00  0.00    +0.005 A 
ATOM     29  C   UNL     1      24.808  34.921   0.909  0.00  0.00    +0.013 A 
BRANCH  18  19
ATOM     19  C   UNL     1      24.194  38.211   2.871  0.00  0.00    +0.119 C 
BRANCH  19  20
ATOM     20  N   UNL     1      24.501  39.665   2.724  0.00  0.00    -0.302 NA
ATOM     21  C   UNL     1      24.434  40.404   4.064  0.00  0.00    +0.066 C 
ATOM     22  C   UNL     1      24.780  41.920   3.896  0.00  0.00    -0.064 C 
ATOM     23  N   UNL     1      23.823  42.549   2.882  0.00  0.00    +0.379 N 
ATOM     24  C   UNL     1      24.108  43.986   2.765  0.00  0.00    -0.096 C 
ATOM     25  H   UNL     1      22.788  42.440   3.282  0.00  0.00    -0.082 HD
ATOM     26  C   UNL     1      23.881  41.818   1.548  0.00  0.00    -0.064 C 
ATOM     27  C   UNL     1      23.564  40.307   1.730  0.00  0.00    +0.066 C 
ENDBRANCH  19  20
ENDBRANCH  18  19
ENDBRANCH  14  15
ENDBRANCH  12  13
TORSDOF 6
ENDMDL
MODEL 3
REMARK VINA RESULT:      -8.1     22.865     27.805
REMARK  Name = C:\Users\Docking\Desktop\test protocol\1iep_ligandH.pdb
REMARK  8 active torsions:
REMARK  status: ('A' for Active; 'I' for Inactive)
REMARK    1  A    between atoms: _5  and  _11
REMARK    2  A    between atoms: _19  and  _21
REMARK    3  A    between atoms: _22  and  _66
REMARK    4  A    between atoms: _27  and  _30
REMARK    5  A    between atoms: _32  and  _33
REMARK    6  A    between atoms: _38  and  _43
REMARK    7  A    between atoms: _43  and  _46
REMARK    8  A    between atoms: _53  and  _55
REMARK                            x       y       z     vdW  Elec       q    Type
REMARK                         _______ _______ _______ _____ _____    ______ ____
ROOT
ATOM     10  C   UNL     1      20.202  25.470   3.634  0.00  0.00    +0.038 A 
ATOM     11  C   UNL     1      18.941  25.197   4.222  0.00  0.00    +0.047 A 
ATOM     12  C   UNL     1      18.359  23.865   4.171  0.00  0.00    +0.035 A 
ATOM     32  C   UNL     1      19.091  22.833   3.514  0.00  0.00    +0.024 A 
ATOM     33  C   UNL     1      20.373  23.093   2.909  0.00  0.00    +0.007 A 
ATOM     34  C   UNL     1      20.951  24.406   2.955  0.00  0.00    -0.029 A 
ATOM     35  C   UNL     1      22.327  24.629   2.284  0.00  0.00    +0.045 C 
ENDROOT
BRANCH  10   9
ATOM      4  C   UNL     1      20.981  29.833   1.790  0.00  0.00    +0.077 A 
ATOM      5  C   UNL     1      20.338  29.490   0.554  0.00  0.00    +0.048 A 
ATOM      6  C   UNL     1      19.826  28.179   0.431  0.00  0.00    +0.116 A 
ATOM      7  N   UNL     1      19.954  27.285   1.472  0.00  0.00    -0.223 NA
ATOM      8  C   UNL     1      20.581  27.647   2.650  0.00  0.00    +0.220 A 
ATOM      9  N   UNL     1      20.714  26.767   3.713  0.00  0.00    -0.283 N 
ATOM     36  H   UNL     1      21.190  27.071   4.562  0.00  0.00    +0.155 HD
ATOM     37  N   UNL     1      21.080  28.893   2.792  0.00  0.00    -0.214 NA
BRANCH   4   3
ATOM      1  C   UNL     1      22.970  33.184   1.452  0.00  0.00    +0.020 A 
ATOM      2  C   UNL     1      22.428  31.884   1.129  0.00  0.00    +0.013 A 
ATOM      3  C   UNL     1      21.569  31.180   2.073  0.00  0.00    +0.019 A 
ATOM     38  C   UNL     1      21.276  31.824   3.345  0.00  0.00    +0.120 A 
ATOM     39  N   UNL     1      21.813  33.076   3.629  0.00  0.00    -0.263 NA
ATOM     40  C   UNL     1      22.642  33.762   2.729  0.00  0.00    +0.111 A 
ENDBRANCH   4   3
ENDBRANCH  10   9
BRANCH  12  13
ATOM     13  N   UNL     1      17.079  23.530   4.744  0.00  0.00    -0.281 N 
ATOM     14  C   UNL     1      16.824  22.905   5.953  0.00  0.00    +0.248 C 
ATOM     30  O   UNL     1      17.671  22.342   6.632  0.00  0.00    -0.270 OA
ATOM     31  H   UNL     1      16.261  23.786   4.190  0.00  0.00    +0.155 HD
BRANCH  14  15
ATOM     15  C   UNL     1      15.425  22.888   6.477  0.00  0.00    +0.037 A 
ATOM     16  C   UNL     1      15.132  22.467   7.849  0.00  0.00    +0.013 A 
ATOM     17  C   UNL     1      13.771  22.444   8.324  0.00  0.00    +0.005 A 
ATOM     18  C   UNL     1      12.692  22.846   7.425  0.00  0.00    -0.033 A 
ATOM     28  C   UNL     1      13.011  23.264   6.070  0.00  0.00    +0.005 A 
ATOM     29  C   UNL     1      14.344  23.287   5.601  0.00  0.00    +0.013 A 
BRANCH  18  19
ATOM     19  C   UNL     1      11.209  22.832   7.840  0.00  0.00    +0.119 C 
BRANCH  19  20
ATOM     20  N   UNL     1      10.580  24.145   8.175  0.00  0.00    -0.302 NA
ATOM     21  C   UNL     1       9.468  24.000   9.217  0.00  0.00    +0.066 C 
ATOM     22  C   UNL     1       8.836  25.386   9.572  0.00  0.00    -0.064 C 
ATOM     23  N   UNL     1       8.303  26.042   8.297  0.00  0.00    +0.379 N 
ATOM     24  C   UNL     1       7.657  27.318   8.636  0.00  0.00    -0.096 C 
ATOM     25  H   UNL     1       7.522  25.369   7.873  0.00  0.00    -0.082 HD
ATOM     26  C   UNL     1       9.402  26.187   7.255  0.00  0.00    -0.064 C 
ATOM     27  C   UNL     1      10.043  24.809   6.931  0.00  0.00    +0.066 C 
ENDBRANCH  19  20
ENDBRANCH  18  19
ENDBRANCH  14  15
ENDBRANCH  12  13
TORSDOF 6
ENDMDL
MODEL 4
REMARK VINA RESULT:      -8.0     22.494     24.572
REMARK  Name = C:\Users\Docking\Desktop\test protocol\1iep_ligandH.pdb
REMARK  8 active torsions:
REMARK  status: ('A' for Active; 'I' for Inactive)
REMARK    1  A    between atoms: _5  and  _11
REMARK    2  A    between atoms: _19  and  _21
REMARK    3  A    between atoms: _22  and  _66
REMARK    4  A    between atoms: _27  and  _30
REMARK    5  A    between atoms: _32  and  _33
REMARK    6  A    between atoms: _38  and  _43
REMARK    7  A    between atoms: _43  and  _46
REMARK    8  A    between atoms: _53  and  _55
REMARK                            x       y       z     vdW  Elec       q    Type
REMARK                         _______ _______ _______ _____ _____    ______ ____
ROOT
ATOM     10  C   UNL     1      12.678  23.329   7.639  0.00  0.00    +0.038 A 
ATOM     11  C   UNL     1      13.838  23.802   6.974  0.00  0.00    +0.047 A 
ATOM     12  C   UNL     1      15.164  23.344   7.358  0.00  0.00    +0.035 A 
ATOM     32  C   UNL     1      15.272  22.402   8.423  0.00  0.00    +0.024 A 
ATOM     33  C   UNL     1      14.103  21.912   9.110  0.00  0.00    +0.007 A 
ATOM     34  C   UNL     1      12.792  22.362   8.737  0.00  0.00    -0.029 A 
ATOM     35  C   UNL     1      11.575  21.808   9.513  0.00  0.00    +0.045 C 
ENDROOT
BRANCH  10   9
ATOM      4  C   UNL     1       9.117  26.545   7.773  0.00  0.00    +0.077 A 
ATOM      5  C   UNL     1       9.789  27.336   8.763  0.00  0.00    +0.048 A 
ATOM      6  C   UNL     1      11.046  26.877   9.217  0.00  0.00    +0.116 A 
ATOM      7  N   UNL     1      11.581  25.712   8.711  0.00  0.00    -0.223 NA
ATOM      8  C   UNL     1      10.906  24.972   7.757  0.00  0.00    +0.220 A 
ATOM      9  N   UNL     1      11.429  23.802   7.229  0.00  0.00    -0.283 N 
ATOM     36  H   UNL     1      10.896  23.281   6.533  0.00  0.00    +0.155 HD
ATOM     37  N   UNL     1       9.704  25.389   7.309  0.00  0.00    -0.214 NA
BRANCH   4   3
ATOM      1  C   UNL     1       5.342  27.498   7.399  0.00  0.00    +0.020 A 
ATOM      2  C   UNL     1       6.606  27.157   8.010  0.00  0.00    +0.013 A 
ATOM      3  C   UNL     1       7.784  26.901   7.192  0.00  0.00    +0.019 A 
ATOM     38  C   UNL     1       7.648  26.999   5.746  0.00  0.00    +0.120 A 
ATOM     39  N   UNL     1       6.418  27.327   5.186  0.00  0.00    -0.263 NA
ATOM     40  C   UNL     1       5.277  27.574   5.964  0.00  0.00    +0.111 A 
ENDBRANCH   4   3
ENDBRANCH  10   9
BRANCH  12  13
ATOM     13  N   UNL     1      16.379  23.795   6.725  0.00  0.00    -0.281 N 
ATOM     14  C   UNL     1      17.002  23.267   5.606  0.00  0.00    +0.248 C 
ATOM     30  O   UNL     1      16.723  22.189   5.103  0.00  0.00    -0.270 OA
ATOM     31  H   UNL     1      16.834  24.600   7.154  0.00  0.00    +0.155 HD
BRANCH  14  15
ATOM     15  C   UNL     1      18.106  24.042   4.961  0.00  0.00    +0.037 A 
ATOM     16  C   UNL     1      18.089  25.507   4.933  0.00  0.00    +0.013 A 
ATOM     17  C   UNL     1      19.158  26.230   4.290  0.00  0.00    +0.005 A 
ATOM     18  C   UNL     1      20.253  25.487   3.670  0.00  0.00    -0.033 A 
ATOM     28  C   UNL     1      20.247  24.035   3.717  0.00  0.00    +0.005 A 
ATOM     29  C   UNL     1      19.201  23.323   4.346  0.00  0.00    +0.013 A 
BRANCH  18  19
ATOM     19  C   UNL     1      21.424  26.175   2.943  0.00  0.00    +0.119 C 
BRANCH  19  20
ATOM     20  N   UNL     1      21.125  26.831   1.635  0.00  0.00    -0.302 NA
ATOM     21  C   UNL     1      20.685  28.288   1.810  0.00  0.00    +0.066 C 
ATOM     22  C   UNL     1      20.399  28.965   0.430  0.00  0.00    -0.064 C 
ATOM     23  N   UNL     1      19.333  28.163  -0.317  0.00  0.00    +0.379 N 
ATOM     24  C   UNL     1      19.019  28.830  -1.590  0.00  0.00    -0.096 C 
ATOM     25  H   UNL     1      18.407  28.169   0.305  0.00  0.00    -0.082 HD
ATOM     26  C   UNL     1      19.761  26.713  -0.493  0.00  0.00    -0.064 C 
ATOM     27  C   UNL     1      20.071  26.058   0.882  0.00  0.00    +0.066 C 
ENDBRANCH  19  20
ENDBRANCH  18  19
ENDBRANCH  14  15
ENDBRANCH  12  13
TORSDOF 6
ENDMDL
MODEL 5
REMARK VINA RESULT:      -8.0     23.410     27.956
REMARK  Name = C:\Users\Docking\Desktop\test protocol\1iep_ligandH.pdb
REMARK  8 active torsions:
REMARK  status: ('A' for Active; 'I' for Inactive)
REMARK    1  A    between atoms: _5  and  _11
REMARK    2  A    between atoms: _19  and  _21
REMARK    3  A    between atoms: _22  and  _66
REMARK    4  A    between atoms: _27  and  _30
REMARK    5  A    between atoms: _32  and  _33
REMARK    6  A    between atoms: _38  and  _43
REMARK    7  A    between atoms: _43  and  _46
REMARK    8  A    between atoms: _53  and  _55
REMARK                            x       y       z     vdW  Elec       q    Type
REMARK                         _______ _______ _______ _____ _____    ______ ____
ROOT
ATOM     10  C   UNL     1      19.727  25.801   4.163  0.00  0.00    +0.038 A 
ATOM     11  C   UNL     1      18.465  25.664   4.795  0.00  0.00    +0.047 A 
ATOM     12  C   UNL     1      17.793  24.375   4.863  0.00  0.00    +0.035 A 
ATOM     32  C   UNL     1      18.438  23.246   4.279  0.00  0.00    +0.024 A 
ATOM     33  C   UNL     1      19.720  23.367   3.632  0.00  0.00    +0.007 A 
ATOM     34  C   UNL     1      20.386  24.636   3.559  0.00  0.00    -0.029 A 
ATOM     35  C   UNL     1      21.757  24.709   2.847  0.00  0.00    +0.045 C 
ENDROOT
BRANCH  10   9
ATOM      4  C   UNL     1      20.916  29.859   1.892  0.00  0.00    +0.077 A 
ATOM      5  C   UNL     1      20.315  29.418   0.666  0.00  0.00    +0.048 A 
ATOM      6  C   UNL     1      19.716  28.138   0.660  0.00  0.00    +0.116 A 
ATOM      7  N   UNL     1      19.724  27.365   1.800  0.00  0.00    -0.223 NA
ATOM      8  C   UNL     1      20.314  27.819   2.966  0.00  0.00    +0.220 A 
ATOM      9  N   UNL     1      20.327  27.062   4.127  0.00  0.00    -0.283 N 
ATOM     36  H   UNL     1      20.779  27.429   4.964  0.00  0.00    +0.155 HD
ATOM     37  N   UNL     1      20.894  29.037   2.997  0.00  0.00    -0.214 NA
BRANCH   4   3
ATOM      1  C   UNL     1      23.093  33.047   1.260  0.00  0.00    +0.020 A 
ATOM      2  C   UNL     1      22.472  31.759   1.052  0.00  0.00    +0.013 A 
ATOM      3  C   UNL     1      21.585  31.188   2.057  0.00  0.00    +0.019 A 
ATOM     38  C   UNL     1      21.344  31.952   3.272  0.00  0.00    +0.120 A 
ATOM     39  N   UNL     1      21.957  33.189   3.446  0.00  0.00    -0.263 NA
ATOM     40  C   UNL     1      22.814  33.748   2.486  0.00  0.00    +0.111 A 
ENDBRANCH   4   3
ENDBRANCH  10   9
BRANCH  12  13
ATOM     13  N   UNL     1      16.508  24.177   5.485  0.00  0.00    -0.281 N 
ATOM     14  C   UNL     1      15.514  23.283   5.120  0.00  0.00    +0.248 C 
ATOM     30  O   UNL     1      15.495  22.664   4.067  0.00  0.00    -0.270 OA
ATOM     31  H   UNL     1      16.305  24.767   6.292  0.00  0.00    +0.155 HD
BRANCH  14  15
ATOM     15  C   UNL     1      14.369  23.056   6.053  0.00  0.00    +0.037 A 
ATOM     16  C   UNL     1      14.587  22.580   7.422  0.00  0.00    +0.013 A 
ATOM     17  C   UNL     1      13.464  22.353   8.296  0.00  0.00    +0.005 A 
ATOM     18  C   UNL     1      12.111  22.602   7.804  0.00  0.00    -0.033 A 
ATOM     28  C   UNL     1      11.924  23.079   6.444  0.00  0.00    +0.005 A 
ATOM     29  C   UNL     1      13.022  23.302   5.583  0.00  0.00    +0.013 A 
BRANCH  18  19
ATOM     19  C   UNL     1      10.853  22.367   8.660  0.00  0.00    +0.119 C 
BRANCH  19  20
ATOM     20  N   UNL     1      10.992  21.474   9.849  0.00  0.00    -0.302 NA
ATOM     21  C   UNL     1      11.020  19.994   9.456  0.00  0.00    +0.066 C 
ATOM     22  C   UNL     1      11.189  19.075  10.709  0.00  0.00    -0.064 C 
ATOM     23  N   UNL     1      10.054  19.351  11.697  0.00  0.00    +0.379 N 
ATOM     24  C   UNL     1      10.177  18.448  12.851  0.00  0.00    -0.096 C 
ATOM     25  H   UNL     1       9.094  19.115  11.183  0.00  0.00    -0.082 HD
ATOM     26  C   UNL     1      10.018  20.821  12.092  0.00  0.00    -0.064 C 
ATOM     27  C   UNL     1       9.880  21.727  10.836  0.00  0.00    +0.066 C 
ENDBRANCH  19  20
ENDBRANCH  18  19
ENDBRANCH  14  15
ENDBRANCH  12  13
TORSDOF 6
ENDMDL
