MODEL 1
REMARK VINA RESULT:      -9.0      0.000      0.000
REMARK  Name = C:\Users\Docking\Desktop\test protocol\1iep_ligandH.pdb
REMARK  8 active torsions:
REMARK  status: ('A' for Active; 'I' for Inactive)
REMARK    1  A    between atoms: _5  and  _11
REMARK    2  A    between atoms: _19  and  _21
REMARK    3  A    between atoms: _22  and  _66
REMARK    4  A    between atoms: _27  and  _30
REMARK    5  A    between atoms: _32  and  _33
REMARK    6  A    between atoms: _38  and  _43
REMARK    7  A    between atoms: _43  and  _46
REMARK    8  A    between atoms: _53  and  _55
REMARK                            x       y       z     vdW  Elec       q    Type
REMARK                         _______ _______ _______ _____ _____    ______ ____
ROOT
ATOM     10  C   UNL     1     129.612  68.726 125.932  0.00  0.00    +0.038 A 
ATOM     11  C   UNL     1     129.888  68.763 124.542  0.00  0.00    +0.047 A 
ATOM     12  C   UNL     1     128.827  68.976 123.569  0.00  0.00    +0.035 A 
ATOM     32  C   UNL     1     127.496  69.151 124.049  0.00  0.00    +0.024 A 
ATOM     33  C   UNL     1     127.197  69.115 125.459  0.00  0.00    +0.007 A 
ATOM     34  C   UNL     1     128.239  68.903 126.422  0.00  0.00    -0.029 A 
ATOM     35  C   UNL     1     127.860  68.868 127.921  0.00  0.00    +0.045 C 
ENDROOT
BRANCH  10   9
ATOM      4  C   UNL     1     132.329  65.888 128.689  0.00  0.00    +0.077 A 
ATOM      5  C   UNL     1     131.561  64.724 128.349  0.00  0.00    +0.048 A 
ATOM      6  C   UNL     1     130.471  64.900 127.467  0.00  0.00    +0.116 A 
ATOM      7  N   UNL     1     130.180  66.151 126.968  0.00  0.00    -0.223 NA
ATOM      8  C   UNL     1     130.939  67.253 127.318  0.00  0.00    +0.220 A 
ATOM      9  N   UNL     1     130.668  68.519 126.822  0.00  0.00    -0.283 N 
ATOM     36  H   UNL     1     131.247  69.307 127.109  0.00  0.00    +0.155 HD
ATOM     37  N   UNL     1     131.984  67.111 128.159  0.00  0.00    -0.214 NA
BRANCH   4   3
ATOM      1  C   UNL     1     134.743  66.578 131.688  0.00  0.00    +0.020 A 
ATOM      2  C   UNL     1     133.576  66.638 130.838  0.00  0.00    +0.013 A 
ATOM      3  C   UNL     1     133.512  65.863 129.605  0.00  0.00    +0.019 A 
ATOM     38  C   UNL     1     134.654  65.030 129.259  0.00  0.00    +0.120 A 
ATOM     39  N   UNL     1     135.764  64.993 130.097  0.00  0.00    -0.263 NA
ATOM     40  C   UNL     1     135.838  65.736 131.285  0.00  0.00    +0.111 A 
ENDBRANCH   4   3
ENDBRANCH  10   9
BRANCH  12  13
ATOM     13  N   UNL     1     129.046  69.015 122.145  0.00  0.00    -0.281 N 
ATOM     14  C   UNL     1     129.103  70.129 121.322  0.00  0.00    +0.248 C 
ATOM     30  O   UNL     1     128.759  71.253 121.656  0.00  0.00    -0.270 OA
ATOM     31  H   UNL     1     129.175  68.113 121.687  0.00  0.00    +0.155 HD
BRANCH  14  15
ATOM     15  C   UNL     1     129.599  69.967 119.921  0.00  0.00    +0.037 A 
ATOM     16  C   UNL     1     130.488  68.862 119.553  0.00  0.00    +0.013 A 
ATOM     17  C   UNL     1     130.966  68.739 118.199  0.00  0.00    +0.005 A 
ATOM     18  C   UNL     1     130.554  69.724 117.202  0.00  0.00    -0.033 A 
ATOM     28  C   UNL     1     129.668  70.807 117.593  0.00  0.00    +0.005 A 
ATOM     29  C   UNL     1     129.198  70.932 118.920  0.00  0.00    +0.013 A 
BRANCH  18  19
ATOM     19  C   UNL     1     131.032  69.683 115.738  0.00  0.00    +0.119 C 
BRANCH  19  20
ATOM     20  N   UNL     1     131.778  68.467 115.296  0.00  0.00    -0.302 NA
ATOM     21  C   UNL     1     133.292  68.698 115.276  0.00  0.00    +0.066 C 
ATOM     22  C   UNL     1     134.058  67.409 114.833  0.00  0.00    -0.064 C 
ATOM     23  N   UNL     1     133.559  66.970 113.456  0.00  0.00    +0.379 N 
ATOM     24  C   UNL     1     134.318  65.792 113.011  0.00  0.00    -0.096 C 
ATOM     25  H   UNL     1     133.769  67.798 112.740  0.00  0.00    -0.082 HD
ATOM     26  C   UNL     1     132.054  66.741 113.467  0.00  0.00    -0.064 C 
ATOM     27  C   UNL     1     131.304  68.019 113.936  0.00  0.00    +0.066 C 
ENDBRANCH  19  20
ENDBRANCH  18  19
ENDBRANCH  14  15
ENDBRANCH  12  13
TORSDOF 6
ENDMDL
MODEL 2
REMARK VINA RESULT:      -8.6     22.540     25.136
REMARK  Name = C:\Users\Docking\Desktop\test protocol\1iep_ligandH.pdb
REMARK  8 active torsions:
REMARK  status: ('A' for Active; 'I' for Inactive)
REMARK    1  A    between atoms: _5  and  _11
REMARK    2  A    between atoms: _19  and  _21
REMARK    3  A    between atoms: _22  and  _66
REMARK    4  A    between atoms: _27  and  _30
REMARK    5  A    between atoms: _32  and  _33
REMARK    6  A    between atoms: _38  and  _43
REMARK    7  A    between atoms: _43  and  _46
REMARK    8  A    between atoms: _53  and  _55
REMARK                            x       y       z     vdW  Elec       q    Type
REMARK                         _______ _______ _______ _____ _____    ______ ____
ROOT
ATOM     10  C   UNL     1     132.080  88.727 140.647  0.00  0.00    +0.038 A 
ATOM     11  C   UNL     1     132.394  88.366 139.312  0.00  0.00    +0.047 A 
ATOM     12  C   UNL     1     133.690  88.684 138.732  0.00  0.00    +0.035 A 
ATOM     32  C   UNL     1     134.643  89.367 139.542  0.00  0.00    +0.024 A 
ATOM     33  C   UNL     1     134.340  89.742 140.901  0.00  0.00    +0.007 A 
ATOM     34  C   UNL     1     133.063  89.434 141.477  0.00  0.00    -0.029 A 
ATOM     35  C   UNL     1     132.790  89.866 142.937  0.00  0.00    +0.045 C 
ENDROOT
BRANCH  10   9
ATOM      4  C   UNL     1     129.073  85.740 142.901  0.00  0.00    +0.077 A 
ATOM      5  C   UNL     1     130.091  84.741 143.060  0.00  0.00    +0.048 A 
ATOM      6  C   UNL     1     131.373  85.032 142.541  0.00  0.00    +0.116 A 
ATOM      7  N   UNL     1     131.608  86.236 141.913  0.00  0.00    -0.223 NA
ATOM      8  C   UNL     1     130.604  87.176 141.775  0.00  0.00    +0.220 A 
ATOM      9  N   UNL     1     130.820  88.397 141.154  0.00  0.00    -0.283 N 
ATOM     36  H   UNL     1     130.052  89.061 141.065  0.00  0.00    +0.155 HD
ATOM     37  N   UNL     1     129.371  86.922 142.260  0.00  0.00    -0.214 NA
BRANCH   4   3
ATOM      1  C   UNL     1     125.221  86.184 143.410  0.00  0.00    +0.020 A 
ATOM      2  C   UNL     1     126.557  86.377 142.896  0.00  0.00    +0.013 A 
ATOM      3  C   UNL     1     127.670  85.581 143.398  0.00  0.00    +0.019 A 
ATOM     38  C   UNL     1     127.395  84.590 144.428  0.00  0.00    +0.120 A 
ATOM     39  N   UNL     1     126.098  84.428 144.905  0.00  0.00    -0.263 NA
ATOM     40  C   UNL     1     125.019  85.189 144.430  0.00  0.00    +0.111 A 
ENDBRANCH   4   3
ENDBRANCH  10   9
BRANCH  12  13
ATOM     13  N   UNL     1     134.062  88.350 137.380  0.00  0.00    -0.281 N 
ATOM     14  C   UNL     1     133.468  87.427 136.536  0.00  0.00    +0.248 C 
ATOM     30  O   UNL     1     132.652  86.590 136.892  0.00  0.00    -0.270 OA
ATOM     31  H   UNL     1     134.862  88.856 136.999  0.00  0.00    +0.155 HD
BRANCH  14  15
ATOM     15  C   UNL     1     133.844  87.423 135.089  0.00  0.00    +0.037 A 
ATOM     16  C   UNL     1     135.187  87.814 134.653  0.00  0.00    +0.013 A 
ATOM     17  C   UNL     1     135.519  87.819 133.250  0.00  0.00    +0.005 A 
ATOM     18  C   UNL     1     134.505  87.429 132.273  0.00  0.00    -0.033 A 
ATOM     28  C   UNL     1     133.182  87.040 132.734  0.00  0.00    +0.005 A 
ATOM     29  C   UNL     1     132.853  87.036 134.108  0.00  0.00    +0.013 A 
BRANCH  18  19
ATOM     19  C   UNL     1     134.764  87.424 130.755  0.00  0.00    +0.119 C 
BRANCH  19  20
ATOM     20  N   UNL     1     134.425  88.667 129.999  0.00  0.00    -0.302 NA
ATOM     21  C   UNL     1     133.710  88.361 128.681  0.00  0.00    +0.066 C 
ATOM     22  C   UNL     1     133.343  89.673 127.914  0.00  0.00    -0.064 C 
ATOM     23  N   UNL     1     134.613  90.488 127.665  0.00  0.00    +0.379 N 
ATOM     24  C   UNL     1     134.280  91.694 126.894  0.00  0.00    -0.096 C 
ATOM     25  H   UNL     1     135.296  89.865 127.041  0.00  0.00    -0.082 HD
ATOM     26  C   UNL     1     135.333  90.794 128.971  0.00  0.00    -0.064 C 
ATOM     27  C   UNL     1     135.667  89.485 129.738  0.00  0.00    +0.066 C 
ENDBRANCH  19  20
ENDBRANCH  18  19
ENDBRANCH  14  15
ENDBRANCH  12  13
TORSDOF 6
ENDMDL
MODEL 3
REMARK VINA RESULT:      -8.2      1.882      2.545
REMARK  Name = C:\Users\Docking\Desktop\test protocol\1iep_ligandH.pdb
REMARK  8 active torsions:
REMARK  status: ('A' for Active; 'I' for Inactive)
REMARK    1  A    between atoms: _5  and  _11
REMARK    2  A    between atoms: _19  and  _21
REMARK    3  A    between atoms: _22  and  _66
REMARK    4  A    between atoms: _27  and  _30
REMARK    5  A    between atoms: _32  and  _33
REMARK    6  A    between atoms: _38  and  _43
REMARK    7  A    between atoms: _43  and  _46
REMARK    8  A    between atoms: _53  and  _55
REMARK                            x       y       z     vdW  Elec       q    Type
REMARK                         _______ _______ _______ _____ _____    ______ ____
ROOT
ATOM     10  C   UNL     1     129.788  68.824 125.973  0.00  0.00    +0.038 A 
ATOM     11  C   UNL     1     130.197  69.024 124.630  0.00  0.00    +0.047 A 
ATOM     12  C   UNL     1     129.223  69.248 123.572  0.00  0.00    +0.035 A 
ATOM     32  C   UNL     1     127.841  69.266 123.919  0.00  0.00    +0.024 A 
ATOM     33  C   UNL     1     127.408  69.063 125.279  0.00  0.00    +0.007 A 
ATOM     34  C   UNL     1     128.363  68.839 126.326  0.00  0.00    -0.029 A 
ATOM     35  C   UNL     1     127.841  68.621 127.766  0.00  0.00    +0.045 C 
ENDROOT
BRANCH  10   9
ATOM      4  C   UNL     1     132.503  65.946 128.691  0.00  0.00    +0.077 A 
ATOM      5  C   UNL     1     131.906  64.764 128.140  0.00  0.00    +0.048 A 
ATOM      6  C   UNL     1     130.898  64.940 127.165  0.00  0.00    +0.116 A 
ATOM      7  N   UNL     1     130.524  66.208 126.777  0.00  0.00    -0.223 NA
ATOM      8  C   UNL     1     131.120  67.328 127.329  0.00  0.00    +0.220 A 
ATOM      9  N   UNL     1     130.765  68.613 126.948  0.00  0.00    -0.283 N 
ATOM     36  H   UNL     1     131.223  69.412 127.385  0.00  0.00    +0.155 HD
ATOM     37  N   UNL     1     132.083  67.186 128.263  0.00  0.00    -0.214 NA
BRANCH   4   3
ATOM      1  C   UNL     1     135.761  65.069 130.669  0.00  0.00    +0.020 A 
ATOM      2  C   UNL     1     134.746  65.050 129.641  0.00  0.00    +0.013 A 
ATOM      3  C   UNL     1     133.583  65.925 129.727  0.00  0.00    +0.019 A 
ATOM     38  C   UNL     1     133.477  66.813 130.875  0.00  0.00    +0.120 A 
ATOM     39  N   UNL     1     134.469  66.807 131.850  0.00  0.00    -0.263 NA
ATOM     40  C   UNL     1     135.592  65.969 131.779  0.00  0.00    +0.111 A 
ENDBRANCH   4   3
ENDBRANCH  10   9
BRANCH  12  13
ATOM     13  N   UNL     1     129.579  69.449 122.190  0.00  0.00    -0.281 N 
ATOM     14  C   UNL     1     129.368  68.591 121.123  0.00  0.00    +0.248 C 
ATOM     30  O   UNL     1     129.031  67.422 121.233  0.00  0.00    -0.270 OA
ATOM     31  H   UNL     1     130.042  70.331 121.971  0.00  0.00    +0.155 HD
BRANCH  14  15
ATOM     15  C   UNL     1     129.575  69.102 119.733  0.00  0.00    +0.037 A 
ATOM     16  C   UNL     1     128.497  69.772 119.002  0.00  0.00    +0.013 A 
ATOM     17  C   UNL     1     128.719  70.240 117.656  0.00  0.00    +0.005 A 
ATOM     18  C   UNL     1     130.026  70.040 117.034  0.00  0.00    -0.033 A 
ATOM     28  C   UNL     1     131.079  69.377 117.785  0.00  0.00    +0.005 A 
ATOM     29  C   UNL     1     130.865  68.916 119.104  0.00  0.00    +0.013 A 
BRANCH  18  19
ATOM     19  C   UNL     1     130.344  70.488 115.596  0.00  0.00    +0.119 C 
BRANCH  19  20
ATOM     20  N   UNL     1     129.841  69.627 114.484  0.00  0.00    -0.302 NA
ATOM     21  C   UNL     1     128.439  70.040 114.027  0.00  0.00    +0.066 C 
ATOM     22  C   UNL     1     127.938  69.143 112.849  0.00  0.00    -0.064 C 
ATOM     23  N   UNL     1     127.956  67.677 113.284  0.00  0.00    +0.379 N 
ATOM     24  C   UNL     1     127.430  66.837 112.198  0.00  0.00    -0.096 C 
ATOM     25  H   UNL     1     127.267  67.574 114.155  0.00  0.00    -0.082 HD
ATOM     26  C   UNL     1     129.346  67.259 113.742  0.00  0.00    -0.064 C 
ATOM     27  C   UNL     1     129.847  68.175 114.894  0.00  0.00    +0.066 C 
ENDBRANCH  19  20
ENDBRANCH  18  19
ENDBRANCH  14  15
ENDBRANCH  12  13
TORSDOF 6
ENDMDL
MODEL 4
REMARK VINA RESULT:      -8.2     23.266     28.366
REMARK  Name = C:\Users\Docking\Desktop\test protocol\1iep_ligandH.pdb
REMARK  8 active torsions:
REMARK  status: ('A' for Active; 'I' for Inactive)
REMARK    1  A    between atoms: _5  and  _11
REMARK    2  A    between atoms: _19  and  _21
REMARK    3  A    between atoms: _22  and  _66
REMARK    4  A    between atoms: _27  and  _30
REMARK    5  A    between atoms: _32  and  _33
REMARK    6  A    between atoms: _38  and  _43
REMARK    7  A    between atoms: _43  and  _46
REMARK    8  A    between atoms: _53  and  _55
REMARK                            x       y       z     vdW  Elec       q    Type
REMARK                         _______ _______ _______ _____ _____    ______ ____
ROOT
ATOM     10  C   UNL     1     133.551  90.265 136.787  0.00  0.00    +0.038 A 
ATOM     11  C   UNL     1     132.943  89.375 137.708  0.00  0.00    +0.047 A 
ATOM     12  C   UNL     1     133.251  89.436 139.128  0.00  0.00    +0.035 A 
ATOM     32  C   UNL     1     134.183  90.417 139.576  0.00  0.00    +0.024 A 
ATOM     33  C   UNL     1     134.812  91.328 138.653  0.00  0.00    +0.007 A 
ATOM     34  C   UNL     1     134.514  91.272 137.250  0.00  0.00    -0.029 A 
ATOM     35  C   UNL     1     135.223  92.270 136.305  0.00  0.00    +0.045 C 
ENDROOT
BRANCH  10   9
ATOM      4  C   UNL     1     134.242  88.494 132.379  0.00  0.00    +0.077 A 
ATOM      5  C   UNL     1     135.379  87.728 132.801  0.00  0.00    +0.048 A 
ATOM      6  C   UNL     1     135.758  87.823 134.159  0.00  0.00    +0.116 A 
ATOM      7  N   UNL     1     135.045  88.627 135.022  0.00  0.00    -0.223 NA
ATOM      8  C   UNL     1     133.954  89.354 134.582  0.00  0.00    +0.220 A 
ATOM      9  N   UNL     1     133.218  90.163 135.434  0.00  0.00    -0.283 N 
ATOM     36  H   UNL     1     132.424  90.689 135.069  0.00  0.00    +0.155 HD
ATOM     37  N   UNL     1     133.573  89.281 133.290  0.00  0.00    -0.214 NA
BRANCH   4   3
ATOM      1  C   UNL     1     134.024  88.427 128.474  0.00  0.00    +0.020 A 
ATOM      2  C   UNL     1     134.582  88.422 129.807  0.00  0.00    +0.013 A 
ATOM      3  C   UNL     1     133.716  88.496 130.977  0.00  0.00    +0.019 A 
ATOM     38  C   UNL     1     132.279  88.572 130.763  0.00  0.00    +0.120 A 
ATOM     39  N   UNL     1     131.770  88.577 129.468  0.00  0.00    -0.263 NA
ATOM     40  C   UNL     1     132.594  88.508 128.334  0.00  0.00    +0.111 A 
ENDBRANCH   4   3
ENDBRANCH  10   9
BRANCH  12  13
ATOM     13  N   UNL     1     132.671  88.554 140.110  0.00  0.00    -0.281 N 
ATOM     14  C   UNL     1     131.859  88.888 141.182  0.00  0.00    +0.248 C 
ATOM     30  O   UNL     1     131.682  90.028 141.585  0.00  0.00    -0.270 OA
ATOM     31  H   UNL     1     132.884  87.562 140.002  0.00  0.00    +0.155 HD
BRANCH  14  15
ATOM     15  C   UNL     1     131.153  87.798 141.921  0.00  0.00    +0.037 A 
ATOM     16  C   UNL     1     130.225  88.098 143.014  0.00  0.00    +0.013 A 
ATOM     17  C   UNL     1     129.570  87.027 143.722  0.00  0.00    +0.005 A 
ATOM     18  C   UNL     1     129.840  85.644 143.336  0.00  0.00    -0.033 A 
ATOM     28  C   UNL     1     130.760  85.374 142.244  0.00  0.00    +0.005 A 
ATOM     29  C   UNL     1     131.405  86.422 141.549  0.00  0.00    +0.013 A 
BRANCH  18  19
ATOM     19  C   UNL     1     129.202  84.437 144.049  0.00  0.00    +0.119 C 
BRANCH  19  20
ATOM     20  N   UNL     1     128.209  84.726 145.127  0.00  0.00    -0.302 NA
ATOM     21  C   UNL     1     128.523  83.964 146.417  0.00  0.00    +0.066 C 
ATOM     22  C   UNL     1     127.487  84.295 147.540  0.00  0.00    -0.064 C 
ATOM     23  N   UNL     1     126.078  83.964 147.045  0.00  0.00    +0.379 N 
ATOM     24  C   UNL     1     125.107  84.220 148.119  0.00  0.00    -0.096 C 
ATOM     25  H   UNL     1     126.048  82.873 146.814  0.00  0.00    -0.082 HD
ATOM     26  C   UNL     1     125.759  84.715 145.760  0.00  0.00    -0.064 C 
ATOM     27  C   UNL     1     126.811  84.402 144.660  0.00  0.00    +0.066 C 
ENDBRANCH  19  20
ENDBRANCH  18  19
ENDBRANCH  14  15
ENDBRANCH  12  13
TORSDOF 6
ENDMDL
MODEL 5
REMARK VINA RESULT:      -8.0      2.745      3.996
REMARK  Name = C:\Users\Docking\Desktop\test protocol\1iep_ligandH.pdb
REMARK  8 active torsions:
REMARK  status: ('A' for Active; 'I' for Inactive)
REMARK    1  A    between atoms: _5  and  _11
REMARK    2  A    between atoms: _19  and  _21
REMARK    3  A    between atoms: _22  and  _66
REMARK    4  A    between atoms: _27  and  _30
REMARK    5  A    between atoms: _32  and  _33
REMARK    6  A    between atoms: _38  and  _43
REMARK    7  A    between atoms: _43  and  _46
REMARK    8  A    between atoms: _53  and  _55
REMARK                            x       y       z     vdW  Elec       q    Type
REMARK                         _______ _______ _______ _____ _____    ______ ____
ROOT
ATOM     10  C   UNL     1     131.406  67.191 128.416  0.00  0.00    +0.038 A 
ATOM     11  C   UNL     1     131.453  67.758 127.117  0.00  0.00    +0.047 A 
ATOM     12  C   UNL     1     130.236  68.154 126.425  0.00  0.00    +0.035 A 
ATOM     32  C   UNL     1     128.989  67.959 127.087  0.00  0.00    +0.024 A 
ATOM     33  C   UNL     1     128.923  67.383 128.406  0.00  0.00    +0.007 A 
ATOM     34  C   UNL     1     130.120  66.988 129.093  0.00  0.00    -0.029 A 
ATOM     35  C   UNL     1     129.989  66.369 130.504  0.00  0.00    +0.045 C 
ENDROOT
BRANCH  10   9
ATOM      4  C   UNL     1     135.063  64.161 129.114  0.00  0.00    +0.077 A 
ATOM      5  C   UNL     1     134.525  63.205 128.189  0.00  0.00    +0.048 A 
ATOM      6  C   UNL     1     133.302  63.528 127.560  0.00  0.00    +0.116 A 
ATOM      7  N   UNL     1     132.672  64.721 127.842  0.00  0.00    -0.223 NA
ATOM      8  C   UNL     1     133.217  65.620 128.741  0.00  0.00    +0.220 A 
ATOM      9  N   UNL     1     132.605  66.829 129.034  0.00  0.00    -0.283 N 
ATOM     36  H   UNL     1     133.036  67.461 129.708  0.00  0.00    +0.155 HD
ATOM     37  N   UNL     1     134.384  65.334 129.356  0.00  0.00    -0.214 NA
BRANCH   4   3
ATOM      1  C   UNL     1     137.716  63.869 131.973  0.00  0.00    +0.020 A 
ATOM      2  C   UNL     1     136.450  64.068 131.306  0.00  0.00    +0.013 A 
ATOM      3  C   UNL     1     136.348  63.965 129.856  0.00  0.00    +0.019 A 
ATOM     38  C   UNL     1     137.556  63.656 129.104  0.00  0.00    +0.120 A 
ATOM     39  N   UNL     1     138.761  63.471 129.774  0.00  0.00    -0.263 NA
ATOM     40  C   UNL     1     138.872  63.569 131.169  0.00  0.00    +0.111 A 
ENDBRANCH   4   3
ENDBRANCH  10   9
BRANCH  12  13
ATOM     13  N   UNL     1     130.220  68.728 125.102  0.00  0.00    -0.281 N 
ATOM     14  C   UNL     1     130.131  68.066 123.888  0.00  0.00    +0.248 C 
ATOM     30  O   UNL     1     130.267  66.860 123.746  0.00  0.00    -0.270 OA
ATOM     31  H   UNL     1     130.282  69.745 125.055  0.00  0.00    +0.155 HD
BRANCH  14  15
ATOM     15  C   UNL     1     129.867  68.862 122.650  0.00  0.00    +0.037 A 
ATOM     16  C   UNL     1     130.438  68.470 121.359  0.00  0.00    +0.013 A 
ATOM     17  C   UNL     1     130.182  69.264 120.184  0.00  0.00    +0.005 A 
ATOM     18  C   UNL     1     129.348  70.459 120.295  0.00  0.00    -0.033 A 
ATOM     28  C   UNL     1     128.791  70.822 121.587  0.00  0.00    +0.005 A 
ATOM     29  C   UNL     1     129.041  70.046 122.742  0.00  0.00    +0.013 A 
BRANCH  18  19
ATOM     19  C   UNL     1     129.040  71.378 119.098  0.00  0.00    +0.119 C 
BRANCH  19  20
ATOM     20  N   UNL     1     128.947  70.739 117.752  0.00  0.00    -0.302 NA
ATOM     21  C   UNL     1     130.211  70.970 116.918  0.00  0.00    +0.066 C 
ATOM     22  C   UNL     1     130.106  70.276 115.521  0.00  0.00    -0.064 C 
ATOM     23  N   UNL     1     128.869  70.797 114.787  0.00  0.00    +0.379 N 
ATOM     24  C   UNL     1     128.800  70.189 113.450  0.00  0.00    -0.096 C 
ATOM     25  H   UNL     1     128.995  71.897 114.653  0.00  0.00    -0.082 HD
ATOM     26  C   UNL     1     127.609  70.573 115.610  0.00  0.00    -0.064 C 
ATOM     27  C   UNL     1     127.735  71.243 117.007  0.00  0.00    +0.066 C 
ENDBRANCH  19  20
ENDBRANCH  18  19
ENDBRANCH  14  15
ENDBRANCH  12  13
TORSDOF 6
ENDMDL
