MODEL 1
REMARK VINA RESULT:      -7.6      0.000      0.000
REMARK  Name = C:\Users\Docking\Desktop\test protocol\1iep_ligandH.pdb
REMARK  8 active torsions:
REMARK  status: ('A' for Active; 'I' for Inactive)
REMARK    1  A    between atoms: _5  and  _11
REMARK    2  A    between atoms: _19  and  _21
REMARK    3  A    between atoms: _22  and  _66
REMARK    4  A    between atoms: _27  and  _30
REMARK    5  A    between atoms: _32  and  _33
REMARK    6  A    between atoms: _38  and  _43
REMARK    7  A    between atoms: _43  and  _46
REMARK    8  A    between atoms: _53  and  _55
REMARK                            x       y       z     vdW  Elec       q    Type
REMARK                         _______ _______ _______ _____ _____    ______ ____
ROOT
ATOM     10  C   UNL     1     -28.077 -21.510  -2.237  0.00  0.00    +0.038 A 
ATOM     11  C   UNL     1     -27.179 -22.064  -3.185  0.00  0.00    +0.047 A 
ATOM     12  C   UNL     1     -26.453 -21.217  -4.118  0.00  0.00    +0.035 A 
ATOM     32  C   UNL     1     -26.663 -19.808  -4.056  0.00  0.00    +0.024 A 
ATOM     33  C   UNL     1     -27.572 -19.229  -3.099  0.00  0.00    +0.007 A 
ATOM     34  C   UNL     1     -28.294 -20.060  -2.178  0.00  0.00    -0.029 A 
ATOM     35  C   UNL     1     -29.261 -19.384  -1.178  0.00  0.00    +0.045 C 
ENDROOT
BRANCH  10   9
ATOM      4  C   UNL     1     -31.426 -24.817  -1.298  0.00  0.00    +0.077 A 
ATOM      5  C   UNL     1     -31.897 -24.811  -2.653  0.00  0.00    +0.048 A 
ATOM      6  C   UNL     1     -31.255 -23.937  -3.559  0.00  0.00    +0.116 A 
ATOM      7  N   UNL     1     -30.220 -23.134  -3.131  0.00  0.00    -0.223 NA
ATOM      8  C   UNL     1     -29.792 -23.164  -1.816  0.00  0.00    +0.220 A 
ATOM      9  N   UNL     1     -28.748 -22.371  -1.365  0.00  0.00    -0.283 N 
ATOM     36  H   UNL     1     -28.467 -22.416  -0.386  0.00  0.00    +0.155 HD
ATOM     37  N   UNL     1     -30.390 -23.988  -0.931  0.00  0.00    -0.214 NA
BRANCH   4   3
ATOM      1  C   UNL     1     -32.997 -26.053   2.065  0.00  0.00    +0.020 A 
ATOM      2  C   UNL     1     -32.449 -25.169   1.062  0.00  0.00    +0.013 A 
ATOM      3  C   UNL     1     -32.001 -25.688  -0.224  0.00  0.00    +0.019 A 
ATOM     38  C   UNL     1     -32.123 -27.118  -0.466  0.00  0.00    +0.120 A 
ATOM     39  N   UNL     1     -32.653 -27.945   0.519  0.00  0.00    -0.263 NA
ATOM     40  C   UNL     1     -33.086 -27.457   1.761  0.00  0.00    +0.111 A 
ENDBRANCH   4   3
ENDBRANCH  10   9
BRANCH  12  13
ATOM     13  N   UNL     1     -25.535 -21.723  -5.108  0.00  0.00    -0.281 N 
ATOM     14  C   UNL     1     -25.245 -21.189  -6.353  0.00  0.00    +0.248 C 
ATOM     30  O   UNL     1     -25.895 -20.307  -6.895  0.00  0.00    -0.270 OA
ATOM     31  H   UNL     1     -25.038 -22.579  -4.861  0.00  0.00    +0.155 HD
BRANCH  14  15
ATOM     15  C   UNL     1     -24.074 -21.722  -7.113  0.00  0.00    +0.037 A 
ATOM     16  C   UNL     1     -23.607 -23.098  -6.922  0.00  0.00    +0.013 A 
ATOM     17  C   UNL     1     -22.464 -23.582  -7.655  0.00  0.00    +0.005 A 
ATOM     18  C   UNL     1     -21.780 -22.688  -8.587  0.00  0.00    -0.033 A 
ATOM     28  C   UNL     1     -22.268 -21.330  -8.761  0.00  0.00    +0.005 A 
ATOM     29  C   UNL     1     -23.387 -20.852  -8.043  0.00  0.00    +0.013 A 
BRANCH  18  19
ATOM     19  C   UNL     1     -20.540 -23.113  -9.396  0.00  0.00    +0.119 C 
BRANCH  19  20
ATOM     20  N   UNL     1     -19.789 -24.312  -8.917  0.00  0.00    -0.302 NA
ATOM     21  C   UNL     1     -18.511 -23.928  -8.167  0.00  0.00    +0.066 C 
ATOM     22  C   UNL     1     -17.750 -25.193  -7.654  0.00  0.00    -0.064 C 
ATOM     23  N   UNL     1     -17.430 -26.108  -8.838  0.00  0.00    +0.379 N 
ATOM     24  C   UNL     1     -16.663 -27.271  -8.367  0.00  0.00    -0.096 C 
ATOM     25  H   UNL     1     -16.779 -25.536  -9.540  0.00  0.00    -0.082 HD
ATOM     26  C   UNL     1     -18.696 -26.492  -9.591  0.00  0.00    -0.064 C 
ATOM     27  C   UNL     1     -19.459 -25.227 -10.071  0.00  0.00    +0.066 C 
ENDBRANCH  19  20
ENDBRANCH  18  19
ENDBRANCH  14  15
ENDBRANCH  12  13
TORSDOF 6
ENDMDL
MODEL 2
REMARK VINA RESULT:      -7.5      1.672      2.523
REMARK  Name = C:\Users\Docking\Desktop\test protocol\1iep_ligandH.pdb
REMARK  8 active torsions:
REMARK  status: ('A' for Active; 'I' for Inactive)
REMARK    1  A    between atoms: _5  and  _11
REMARK    2  A    between atoms: _19  and  _21
REMARK    3  A    between atoms: _22  and  _66
REMARK    4  A    between atoms: _27  and  _30
REMARK    5  A    between atoms: _32  and  _33
REMARK    6  A    between atoms: _38  and  _43
REMARK    7  A    between atoms: _43  and  _46
REMARK    8  A    between atoms: _53  and  _55
REMARK                            x       y       z     vdW  Elec       q    Type
REMARK                         _______ _______ _______ _____ _____    ______ ____
ROOT
ATOM     10  C   UNL     1     -28.011 -21.526  -2.227  0.00  0.00    +0.038 A 
ATOM     11  C   UNL     1     -27.115 -22.059  -3.189  0.00  0.00    +0.047 A 
ATOM     12  C   UNL     1     -26.395 -21.192  -4.108  0.00  0.00    +0.035 A 
ATOM     32  C   UNL     1     -26.610 -19.786  -4.019  0.00  0.00    +0.024 A 
ATOM     33  C   UNL     1     -27.518 -19.227  -3.049  0.00  0.00    +0.007 A 
ATOM     34  C   UNL     1     -28.233 -20.078  -2.140  0.00  0.00    -0.029 A 
ATOM     35  C   UNL     1     -29.199 -19.424  -1.125  0.00  0.00    +0.045 C 
ENDROOT
BRANCH  10   9
ATOM      4  C   UNL     1     -31.368 -24.838  -1.329  0.00  0.00    +0.077 A 
ATOM      5  C   UNL     1     -31.856 -24.794  -2.678  0.00  0.00    +0.048 A 
ATOM      6  C   UNL     1     -31.220 -23.901  -3.569  0.00  0.00    +0.116 A 
ATOM      7  N   UNL     1     -30.175 -23.115  -3.134  0.00  0.00    -0.223 NA
ATOM      8  C   UNL     1     -29.730 -23.180  -1.826  0.00  0.00    +0.220 A 
ATOM      9  N   UNL     1     -28.676 -22.405  -1.369  0.00  0.00    -0.283 N 
ATOM     36  H   UNL     1     -28.383 -22.477  -0.395  0.00  0.00    +0.155 HD
ATOM     37  N   UNL     1     -30.322 -24.024  -0.955  0.00  0.00    -0.214 NA
BRANCH   4   3
ATOM      1  C   UNL     1     -32.843 -26.162   2.043  0.00  0.00    +0.020 A 
ATOM      2  C   UNL     1     -32.300 -25.256   1.057  0.00  0.00    +0.013 A 
ATOM      3  C   UNL     1     -31.933 -25.733  -0.271  0.00  0.00    +0.019 A 
ATOM     38  C   UNL     1     -32.131 -27.143  -0.571  0.00  0.00    +0.120 A 
ATOM     39  N   UNL     1     -32.654 -27.992   0.399  0.00  0.00    -0.263 NA
ATOM     40  C   UNL     1     -33.009 -27.544   1.680  0.00  0.00    +0.111 A 
ENDBRANCH   4   3
ENDBRANCH  10   9
BRANCH  12  13
ATOM     13  N   UNL     1     -25.479 -21.676  -5.111  0.00  0.00    -0.281 N 
ATOM     14  C   UNL     1     -25.242 -21.154  -6.372  0.00  0.00    +0.248 C 
ATOM     30  O   UNL     1     -25.943 -20.312  -6.913  0.00  0.00    -0.270 OA
ATOM     31  H   UNL     1     -24.939 -22.505  -4.860  0.00  0.00    +0.155 HD
BRANCH  14  15
ATOM     15  C   UNL     1     -24.066 -21.650  -7.150  0.00  0.00    +0.037 A 
ATOM     16  C   UNL     1     -23.398 -20.802  -8.140  0.00  0.00    +0.013 A 
ATOM     17  C   UNL     1     -22.276 -21.311  -8.888  0.00  0.00    +0.005 A 
ATOM     18  C   UNL     1     -21.815 -22.676  -8.648  0.00  0.00    -0.033 A 
ATOM     28  C   UNL     1     -22.493 -23.494  -7.656  0.00  0.00    +0.005 A 
ATOM     29  C   UNL     1     -23.594 -22.999  -6.921  0.00  0.00    +0.013 A 
BRANCH  18  19
ATOM     19  C   UNL     1     -20.639 -23.309  -9.416  0.00  0.00    +0.119 C 
BRANCH  19  20
ATOM     20  N   UNL     1     -20.408 -22.845 -10.817  0.00  0.00    -0.302 NA
ATOM     21  C   UNL     1     -20.937 -23.846 -11.848  0.00  0.00    +0.066 C 
ATOM     22  C   UNL     1     -20.707 -23.334 -13.307  0.00  0.00    -0.064 C 
ATOM     23  N   UNL     1     -19.216 -23.070 -13.523  0.00  0.00    +0.379 N 
ATOM     24  C   UNL     1     -18.990 -22.644 -14.912  0.00  0.00    -0.096 C 
ATOM     25  H   UNL     1     -18.677 -24.034 -13.373  0.00  0.00    -0.082 HD
ATOM     26  C   UNL     1     -18.682 -22.078 -12.500  0.00  0.00    -0.064 C 
ATOM     27  C   UNL     1     -18.941 -22.583 -11.053  0.00  0.00    +0.066 C 
ENDBRANCH  19  20
ENDBRANCH  18  19
ENDBRANCH  14  15
ENDBRANCH  12  13
TORSDOF 6
ENDMDL
MODEL 3
REMARK VINA RESULT:      -7.5      3.478      7.246
REMARK  Name = C:\Users\Docking\Desktop\test protocol\1iep_ligandH.pdb
REMARK  8 active torsions:
REMARK  status: ('A' for Active; 'I' for Inactive)
REMARK    1  A    between atoms: _5  and  _11
REMARK    2  A    between atoms: _19  and  _21
REMARK    3  A    between atoms: _22  and  _66
REMARK    4  A    between atoms: _27  and  _30
REMARK    5  A    between atoms: _32  and  _33
REMARK    6  A    between atoms: _38  and  _43
REMARK    7  A    between atoms: _43  and  _46
REMARK    8  A    between atoms: _53  and  _55
REMARK                            x       y       z     vdW  Elec       q    Type
REMARK                         _______ _______ _______ _____ _____    ______ ____
ROOT
ATOM     10  C   UNL     1     -30.950 -27.030  -0.496  0.00  0.00    +0.038 A 
ATOM     11  C   UNL     1     -30.236 -25.922  -1.020  0.00  0.00    +0.047 A 
ATOM     12  C   UNL     1     -30.700 -25.221  -2.207  0.00  0.00    +0.035 A 
ATOM     32  C   UNL     1     -31.897 -25.675  -2.835  0.00  0.00    +0.024 A 
ATOM     33  C   UNL     1     -32.634 -26.800  -2.317  0.00  0.00    +0.007 A 
ATOM     34  C   UNL     1     -32.180 -27.497  -1.147  0.00  0.00    -0.029 A 
ATOM     35  C   UNL     1     -33.007 -28.701  -0.640  0.00  0.00    +0.045 C 
ENDROOT
BRANCH  10   9
ATOM      4  C   UNL     1     -31.001 -27.876   4.228  0.00  0.00    +0.077 A 
ATOM      5  C   UNL     1     -32.079 -26.953   4.442  0.00  0.00    +0.048 A 
ATOM      6  C   UNL     1     -32.587 -26.276   3.310  0.00  0.00    +0.116 A 
ATOM      7  N   UNL     1     -32.050 -26.512   2.063  0.00  0.00    -0.223 NA
ATOM      8  C   UNL     1     -31.009 -27.407   1.893  0.00  0.00    +0.220 A 
ATOM      9  N   UNL     1     -30.459 -27.666   0.647  0.00  0.00    -0.283 N 
ATOM     36  H   UNL     1     -29.688 -28.327   0.564  0.00  0.00    +0.155 HD
ATOM     37  N   UNL     1     -30.506 -28.065   2.957  0.00  0.00    -0.214 NA
BRANCH   4   3
ATOM      1  C   UNL     1     -30.192 -29.450   7.717  0.00  0.00    +0.020 A 
ATOM      2  C   UNL     1     -30.848 -28.664   6.697  0.00  0.00    +0.013 A 
ATOM      3  C   UNL     1     -30.359 -28.670   5.323  0.00  0.00    +0.019 A 
ATOM     38  C   UNL     1     -29.196 -29.487   5.013  0.00  0.00    +0.120 A 
ATOM     39  N   UNL     1     -28.584 -30.232   6.017  0.00  0.00    -0.263 NA
ATOM     40  C   UNL     1     -29.045 -30.233   7.342  0.00  0.00    +0.111 A 
ENDBRANCH   4   3
ENDBRANCH  10   9
BRANCH  12  13
ATOM     13  N   UNL     1     -30.013 -24.095  -2.789  0.00  0.00    -0.281 N 
ATOM     14  C   UNL     1     -29.897 -22.812  -2.280  0.00  0.00    +0.248 C 
ATOM     30  O   UNL     1     -30.551 -22.379  -1.343  0.00  0.00    -0.270 OA
ATOM     31  H   UNL     1     -29.557 -24.264  -3.686  0.00  0.00    +0.155 HD
BRANCH  14  15
ATOM     15  C   UNL     1     -28.924 -21.870  -2.911  0.00  0.00    +0.037 A 
ATOM     16  C   UNL     1     -29.371 -20.619  -3.530  0.00  0.00    +0.013 A 
ATOM     17  C   UNL     1     -28.413 -19.736  -4.148  0.00  0.00    +0.005 A 
ATOM     18  C   UNL     1     -26.998 -20.100  -4.147  0.00  0.00    -0.033 A 
ATOM     28  C   UNL     1     -26.583 -21.344  -3.522  0.00  0.00    +0.005 A 
ATOM     29  C   UNL     1     -27.518 -22.213  -2.916  0.00  0.00    +0.013 A 
BRANCH  18  19
ATOM     19  C   UNL     1     -25.910 -19.228  -4.801  0.00  0.00    +0.119 C 
BRANCH  19  20
ATOM     20  N   UNL     1     -24.888 -19.924  -5.639  0.00  0.00    -0.302 NA
ATOM     21  C   UNL     1     -23.580 -19.133  -5.726  0.00  0.00    +0.066 C 
ATOM     22  C   UNL     1     -22.515 -19.886  -6.587  0.00  0.00    -0.064 C 
ATOM     23  N   UNL     1     -23.084 -20.147  -7.983  0.00  0.00    +0.379 N 
ATOM     24  C   UNL     1     -22.064 -20.804  -8.813  0.00  0.00    -0.096 C 
ATOM     25  H   UNL     1     -23.312 -19.159  -8.445  0.00  0.00    -0.082 HD
ATOM     26  C   UNL     1     -24.386 -20.932  -7.906  0.00  0.00    -0.064 C 
ATOM     27  C   UNL     1     -25.427 -20.188  -7.023  0.00  0.00    +0.066 C 
ENDBRANCH  19  20
ENDBRANCH  18  19
ENDBRANCH  14  15
ENDBRANCH  12  13
TORSDOF 6
ENDMDL
MODEL 4
REMARK VINA RESULT:      -7.5      4.738      7.450
REMARK  Name = C:\Users\Docking\Desktop\test protocol\1iep_ligandH.pdb
REMARK  8 active torsions:
REMARK  status: ('A' for Active; 'I' for Inactive)
REMARK    1  A    between atoms: _5  and  _11
REMARK    2  A    between atoms: _19  and  _21
REMARK    3  A    between atoms: _22  and  _66
REMARK    4  A    between atoms: _27  and  _30
REMARK    5  A    between atoms: _32  and  _33
REMARK    6  A    between atoms: _38  and  _43
REMARK    7  A    between atoms: _43  and  _46
REMARK    8  A    between atoms: _53  and  _55
REMARK                            x       y       z     vdW  Elec       q    Type
REMARK                         _______ _______ _______ _____ _____    ______ ____
ROOT
ATOM     10  C   UNL     1     -30.977 -26.430  -0.671  0.00  0.00    +0.038 A 
ATOM     11  C   UNL     1     -30.233 -25.326  -1.159  0.00  0.00    +0.047 A 
ATOM     12  C   UNL     1     -30.426 -24.826  -2.511  0.00  0.00    +0.035 A 
ATOM     32  C   UNL     1     -31.389 -25.474  -3.339  0.00  0.00    +0.024 A 
ATOM     33  C   UNL     1     -32.154 -26.598  -2.860  0.00  0.00    +0.007 A 
ATOM     34  C   UNL     1     -31.966 -27.097  -1.527  0.00  0.00    -0.029 A 
ATOM     35  C   UNL     1     -32.809 -28.309  -1.069  0.00  0.00    +0.045 C 
ENDROOT
BRANCH  10   9
ATOM      4  C   UNL     1     -32.201 -26.744   3.960  0.00  0.00    +0.077 A 
ATOM      5  C   UNL     1     -33.376 -25.945   3.765  0.00  0.00    +0.048 A 
ATOM      6  C   UNL     1     -33.626 -25.466   2.459  0.00  0.00    +0.116 A 
ATOM      7  N   UNL     1     -32.758 -25.771   1.432  0.00  0.00    -0.223 NA
ATOM      8  C   UNL     1     -31.633 -26.543   1.655  0.00  0.00    +0.220 A 
ATOM      9  N   UNL     1     -30.751 -26.868   0.636  0.00  0.00    -0.283 N 
ATOM     36  H   UNL     1     -29.928 -27.434   0.843  0.00  0.00    +0.155 HD
ATOM     37  N   UNL     1     -31.371 -27.010   2.894  0.00  0.00    -0.214 NA
BRANCH   4   3
ATOM      1  C   UNL     1     -31.961 -27.481   7.794  0.00  0.00    +0.020 A 
ATOM      2  C   UNL     1     -32.381 -26.887   6.545  0.00  0.00    +0.013 A 
ATOM      3  C   UNL     1     -31.802 -27.324   5.281  0.00  0.00    +0.019 A 
ATOM     38  C   UNL     1     -30.795 -28.374   5.315  0.00  0.00    +0.120 A 
ATOM     39  N   UNL     1     -30.410 -28.926   6.533  0.00  0.00    -0.263 NA
ATOM     40  C   UNL     1     -30.958 -28.512   7.756  0.00  0.00    +0.111 A 
ENDBRANCH   4   3
ENDBRANCH  10   9
BRANCH  12  13
ATOM     13  N   UNL     1     -29.693 -23.714  -3.064  0.00  0.00    -0.281 N 
ATOM     14  C   UNL     1     -29.997 -22.366  -2.975  0.00  0.00    +0.248 C 
ATOM     30  O   UNL     1     -31.067 -21.923  -2.585  0.00  0.00    -0.270 OA
ATOM     31  H   UNL     1     -28.848 -23.950  -3.584  0.00  0.00    +0.155 HD
BRANCH  14  15
ATOM     15  C   UNL     1     -28.969 -21.365  -3.393  0.00  0.00    +0.037 A 
ATOM     16  C   UNL     1     -29.355 -20.050  -3.911  0.00  0.00    +0.013 A 
ATOM     17  C   UNL     1     -28.343 -19.110  -4.324  0.00  0.00    +0.005 A 
ATOM     18  C   UNL     1     -26.934 -19.481  -4.217  0.00  0.00    -0.033 A 
ATOM     28  C   UNL     1     -26.579 -20.790  -3.695  0.00  0.00    +0.005 A 
ATOM     29  C   UNL     1     -27.568 -21.715  -3.291  0.00  0.00    +0.013 A 
BRANCH  18  19
ATOM     19  C   UNL     1     -25.788 -18.549  -4.653  0.00  0.00    +0.119 C 
BRANCH  19  20
ATOM     20  N   UNL     1     -25.422 -18.547  -6.101  0.00  0.00    -0.302 NA
ATOM     21  C   UNL     1     -26.246 -17.532  -6.900  0.00  0.00    +0.066 C 
ATOM     22  C   UNL     1     -25.834 -17.527  -8.409  0.00  0.00    -0.064 C 
ATOM     23  N   UNL     1     -26.001 -18.934  -8.985  0.00  0.00    +0.379 N 
ATOM     24  C   UNL     1     -25.670 -18.920 -10.417  0.00  0.00    -0.096 C 
ATOM     25  H   UNL     1     -27.076 -19.214  -8.888  0.00  0.00    -0.082 HD
ATOM     26  C   UNL     1     -25.188 -19.949  -8.195  0.00  0.00    -0.064 C 
ATOM     27  C   UNL     1     -25.584 -19.926  -6.692  0.00  0.00    +0.066 C 
ENDBRANCH  19  20
ENDBRANCH  18  19
ENDBRANCH  14  15
ENDBRANCH  12  13
TORSDOF 6
ENDMDL
MODEL 5
REMARK VINA RESULT:      -7.4     20.729     23.386
REMARK  Name = C:\Users\Docking\Desktop\test protocol\1iep_ligandH.pdb
REMARK  8 active torsions:
REMARK  status: ('A' for Active; 'I' for Inactive)
REMARK    1  A    between atoms: _5  and  _11
REMARK    2  A    between atoms: _19  and  _21
REMARK    3  A    between atoms: _22  and  _66
REMARK    4  A    between atoms: _27  and  _30
REMARK    5  A    between atoms: _32  and  _33
REMARK    6  A    between atoms: _38  and  _43
REMARK    7  A    between atoms: _43  and  _46
REMARK    8  A    between atoms: _53  and  _55
REMARK                            x       y       z     vdW  Elec       q    Type
REMARK                         _______ _______ _______ _____ _____    ______ ____
ROOT
ATOM     10  C   UNL     1     -38.242 -34.272 -19.930  0.00  0.00    +0.038 A 
ATOM     11  C   UNL     1     -37.986 -32.878 -19.888  0.00  0.00    +0.047 A 
ATOM     12  C   UNL     1     -39.072 -31.912 -19.960  0.00  0.00    +0.035 A 
ATOM     32  C   UNL     1     -40.406 -32.401 -20.072  0.00  0.00    +0.024 A 
ATOM     33  C   UNL     1     -40.683 -33.815 -20.117  0.00  0.00    +0.007 A 
ATOM     34  C   UNL     1     -39.616 -34.773 -20.049  0.00  0.00    -0.029 A 
ATOM     35  C   UNL     1     -39.972 -36.277 -20.109  0.00  0.00    +0.045 C 
ENDROOT
BRANCH  10   9
ATOM      4  C   UNL     1     -34.733 -36.844 -21.959  0.00  0.00    +0.077 A 
ATOM      5  C   UNL     1     -35.099 -36.413 -23.277  0.00  0.00    +0.048 A 
ATOM      6  C   UNL     1     -36.200 -35.535 -23.391  0.00  0.00    +0.116 A 
ATOM      7  N   UNL     1     -36.878 -35.125 -22.263  0.00  0.00    -0.223 NA
ATOM      8  C   UNL     1     -36.500 -35.561 -21.006  0.00  0.00    +0.220 A 
ATOM      9  N   UNL     1     -37.162 -35.155 -19.858  0.00  0.00    -0.283 N 
ATOM     36  H   UNL     1     -36.857 -35.505 -18.950  0.00  0.00    +0.155 HD
ATOM     37  N   UNL     1     -35.452 -36.401 -20.871  0.00  0.00    -0.214 NA
BRANCH   4   3
ATOM      1  C   UNL     1     -31.157 -38.420 -21.803  0.00  0.00    +0.020 A 
ATOM      2  C   UNL     1     -32.224 -37.494 -22.103  0.00  0.00    +0.013 A 
ATOM      3  C   UNL     1     -33.590 -37.769 -21.675  0.00  0.00    +0.019 A 
ATOM     38  C   UNL     1     -33.844 -38.998 -20.939  0.00  0.00    +0.120 A 
ATOM     39  N   UNL     1     -32.796 -39.872 -20.666  0.00  0.00    -0.263 NA
ATOM     40  C   UNL     1     -31.478 -39.619 -21.075  0.00  0.00    +0.111 A 
ENDBRANCH   4   3
ENDBRANCH  10   9
BRANCH  12  13
ATOM     13  N   UNL     1     -38.873 -30.484 -19.930  0.00  0.00    -0.281 N 
ATOM     14  C   UNL     1     -38.345 -29.677 -20.924  0.00  0.00    +0.248 C 
ATOM     30  O   UNL     1     -37.762 -30.092 -21.915  0.00  0.00    -0.270 OA
ATOM     31  H   UNL     1     -39.156 -30.011 -19.072  0.00  0.00    +0.155 HD
BRANCH  14  15
ATOM     15  C   UNL     1     -38.469 -28.193 -20.791  0.00  0.00    +0.037 A 
ATOM     16  C   UNL     1     -39.491 -27.590 -19.932  0.00  0.00    +0.013 A 
ATOM     17  C   UNL     1     -39.600 -26.156 -19.835  0.00  0.00    +0.005 A 
ATOM     18  C   UNL     1     -38.682 -25.314 -20.600  0.00  0.00    -0.033 A 
ATOM     28  C   UNL     1     -37.674 -25.939 -21.440  0.00  0.00    +0.005 A 
ATOM     29  C   UNL     1     -37.565 -27.345 -21.538  0.00  0.00    +0.013 A 
BRANCH  18  19
ATOM     19  C   UNL     1     -38.739 -23.776 -20.573  0.00  0.00    +0.119 C 
BRANCH  19  20
ATOM     20  N   UNL     1     -37.676 -23.039 -21.320  0.00  0.00    -0.302 NA
ATOM     21  C   UNL     1     -36.474 -22.708 -20.431  0.00  0.00    +0.066 C 
ATOM     22  C   UNL     1     -35.362 -21.957 -21.234  0.00  0.00    -0.064 C 
ATOM     23  N   UNL     1     -35.950 -20.685 -21.846  0.00  0.00    +0.379 N 
ATOM     24  C   UNL     1     -34.893 -19.947 -22.553  0.00  0.00    -0.096 C 
ATOM     25  H   UNL     1     -36.309 -20.042 -21.009  0.00  0.00    -0.082 HD
ATOM     26  C   UNL     1     -37.147 -21.004 -22.729  0.00  0.00    -0.064 C 
ATOM     27  C   UNL     1     -38.234 -21.776 -21.929  0.00  0.00    +0.066 C 
ENDBRANCH  19  20
ENDBRANCH  18  19
ENDBRANCH  14  15
ENDBRANCH  12  13
TORSDOF 6
ENDMDL
