MODEL 1
REMARK VINA RESULT:      -8.7      0.000      0.000
REMARK  Name = C:\Users\Docking\Desktop\test protocol\1iep_ligandH.pdb
REMARK  8 active torsions:
REMARK  status: ('A' for Active; 'I' for Inactive)
REMARK    1  A    between atoms: _5  and  _11
REMARK    2  A    between atoms: _19  and  _21
REMARK    3  A    between atoms: _22  and  _66
REMARK    4  A    between atoms: _27  and  _30
REMARK    5  A    between atoms: _32  and  _33
REMARK    6  A    between atoms: _38  and  _43
REMARK    7  A    between atoms: _43  and  _46
REMARK    8  A    between atoms: _53  and  _55
REMARK                            x       y       z     vdW  Elec       q    Type
REMARK                         _______ _______ _______ _____ _____    ______ ____
ROOT
ATOM     10  C   UNL     1    -112.090  -5.204 -96.644  0.00  0.00    +0.038 A 
ATOM     11  C   UNL     1    -111.978  -4.942 -95.255  0.00  0.00    +0.047 A 
ATOM     12  C   UNL     1    -111.029  -3.963 -94.748  0.00  0.00    +0.035 A 
ATOM     32  C   UNL     1    -110.210  -3.268 -95.685  0.00  0.00    +0.024 A 
ATOM     33  C   UNL     1    -110.311  -3.523 -97.101  0.00  0.00    +0.007 A 
ATOM     34  C   UNL     1    -111.244  -4.489 -97.606  0.00  0.00    -0.029 A 
ATOM     35  C   UNL     1    -111.304  -4.726 -99.133  0.00  0.00    +0.045 C 
ENDROOT
BRANCH  10   9
ATOM      4  C   UNL     1    -113.346  -9.709 -97.727  0.00  0.00    +0.077 A 
ATOM      5  C   UNL     1    -112.033 -10.208 -97.434  0.00  0.00    +0.048 A 
ATOM      6  C   UNL     1    -111.062  -9.271 -97.015  0.00  0.00    +0.116 A 
ATOM      7  N   UNL     1    -111.390  -7.938 -96.900  0.00  0.00    -0.223 NA
ATOM      8  C   UNL     1    -112.665  -7.489 -97.192  0.00  0.00    +0.220 A 
ATOM      9  N   UNL     1    -113.019  -6.154 -97.075  0.00  0.00    -0.283 N 
ATOM     36  H   UNL     1    -113.968  -5.862 -97.307  0.00  0.00    +0.155 HD
ATOM     37  N   UNL     1    -113.610  -8.364 -97.595  0.00  0.00    -0.214 NA
BRANCH   4   3
ATOM      1  C   UNL     1    -115.808 -11.775 -99.956  0.00  0.00    +0.020 A 
ATOM      2  C   UNL     1    -114.696 -10.935 -99.573  0.00  0.00    +0.013 A 
ATOM      3  C   UNL     1    -114.481 -10.574 -98.178  0.00  0.00    +0.019 A 
ATOM     38  C   UNL     1    -115.416 -11.084 -97.186  0.00  0.00    +0.120 A 
ATOM     39  N   UNL     1    -116.478 -11.890 -97.584  0.00  0.00    -0.263 NA
ATOM     40  C   UNL     1    -116.697 -12.242 -98.925  0.00  0.00    +0.111 A 
ENDBRANCH   4   3
ENDBRANCH  10   9
BRANCH  12  13
ATOM     13  N   UNL     1    -110.864  -3.661 -93.348  0.00  0.00    -0.281 N 
ATOM     14  C   UNL     1    -109.742  -3.858 -92.560  0.00  0.00    +0.248 C 
ATOM     30  O   UNL     1    -108.773  -4.525 -92.891  0.00  0.00    -0.270 OA
ATOM     31  H   UNL     1    -111.674  -3.252 -92.881  0.00  0.00    +0.155 HD
BRANCH  14  15
ATOM     15  C   UNL     1    -109.695  -3.235 -91.202  0.00  0.00    +0.037 A 
ATOM     16  C   UNL     1    -110.798  -2.408 -90.706  0.00  0.00    +0.013 A 
ATOM     17  C   UNL     1    -110.719  -1.805 -89.399  0.00  0.00    +0.005 A 
ATOM     18  C   UNL     1    -109.532  -2.029 -88.578  0.00  0.00    -0.033 A 
ATOM     28  C   UNL     1    -108.455  -2.858 -89.092  0.00  0.00    +0.005 A 
ATOM     29  C   UNL     1    -108.528  -3.450 -90.373  0.00  0.00    +0.013 A 
BRANCH  18  19
ATOM     19  C   UNL     1    -109.354  -1.408 -87.180  0.00  0.00    +0.119 C 
BRANCH  19  20
ATOM     20  N   UNL     1    -110.182  -1.970 -86.071  0.00  0.00    -0.302 NA
ATOM     21  C   UNL     1    -110.056  -1.146 -84.786  0.00  0.00    +0.066 C 
ATOM     22  C   UNL     1    -110.947  -1.735 -83.644  0.00  0.00    -0.064 C 
ATOM     23  N   UNL     1    -110.554  -3.192 -83.394  0.00  0.00    +0.379 N 
ATOM     24  C   UNL     1    -111.349  -3.731 -82.281  0.00  0.00    -0.096 C 
ATOM     25  H   UNL     1    -109.483  -3.204 -83.082  0.00  0.00    -0.082 HD
ATOM     26  C   UNL     1    -110.673  -4.017 -84.667  0.00  0.00    -0.064 C 
ATOM     27  C   UNL     1    -109.807  -3.407 -85.805  0.00  0.00    +0.066 C 
ENDBRANCH  19  20
ENDBRANCH  18  19
ENDBRANCH  14  15
ENDBRANCH  12  13
TORSDOF 6
ENDMDL
MODEL 2
REMARK VINA RESULT:      -8.4      4.888     13.192
REMARK  Name = C:\Users\Docking\Desktop\test protocol\1iep_ligandH.pdb
REMARK  8 active torsions:
REMARK  status: ('A' for Active; 'I' for Inactive)
REMARK    1  A    between atoms: _5  and  _11
REMARK    2  A    between atoms: _19  and  _21
REMARK    3  A    between atoms: _22  and  _66
REMARK    4  A    between atoms: _27  and  _30
REMARK    5  A    between atoms: _32  and  _33
REMARK    6  A    between atoms: _38  and  _43
REMARK    7  A    between atoms: _43  and  _46
REMARK    8  A    between atoms: _53  and  _55
REMARK                            x       y       z     vdW  Elec       q    Type
REMARK                         _______ _______ _______ _____ _____    ______ ____
ROOT
ATOM     10  C   UNL     1    -109.282  -1.445 -87.178  0.00  0.00    +0.038 A 
ATOM     11  C   UNL     1    -109.052  -2.248 -88.323  0.00  0.00    +0.047 A 
ATOM     12  C   UNL     1    -108.975  -1.661 -89.652  0.00  0.00    +0.035 A 
ATOM     32  C   UNL     1    -109.135  -0.250 -89.777  0.00  0.00    +0.024 A 
ATOM     33  C   UNL     1    -109.370   0.582 -88.623  0.00  0.00    +0.007 A 
ATOM     34  C   UNL     1    -109.449   0.008 -87.310  0.00  0.00    -0.029 A 
ATOM     35  C   UNL     1    -109.710   0.947 -86.110  0.00  0.00    +0.045 C 
ENDROOT
BRANCH  10   9
ATOM      4  C   UNL     1    -111.734  -3.165 -83.427  0.00  0.00    +0.077 A 
ATOM      5  C   UNL     1    -112.993  -2.778 -83.997  0.00  0.00    +0.048 A 
ATOM      6  C   UNL     1    -112.965  -2.132 -85.254  0.00  0.00    +0.116 A 
ATOM      7  N   UNL     1    -111.762  -1.896 -85.884  0.00  0.00    -0.223 NA
ATOM      8  C   UNL     1    -110.566  -2.281 -85.306  0.00  0.00    +0.220 A 
ATOM      9  N   UNL     1    -109.346  -2.062 -85.926  0.00  0.00    -0.283 N 
ATOM     36  H   UNL     1    -108.486  -2.354 -85.463  0.00  0.00    +0.155 HD
ATOM     37  N   UNL     1    -110.566  -2.898 -84.106  0.00  0.00    -0.214 NA
BRANCH   4   3
ATOM      1  C   UNL     1    -110.649  -5.655 -80.613  0.00  0.00    +0.020 A 
ATOM      2  C   UNL     1    -110.744  -5.021 -81.908  0.00  0.00    +0.013 A 
ATOM      3  C   UNL     1    -111.600  -3.859 -82.108  0.00  0.00    +0.019 A 
ATOM     38  C   UNL     1    -112.352  -3.358 -80.967  0.00  0.00    +0.120 A 
ATOM     39  N   UNL     1    -112.242  -3.989 -79.732  0.00  0.00    -0.263 NA
ATOM     40  C   UNL     1    -111.423  -5.109 -79.528  0.00  0.00    +0.111 A 
ENDBRANCH   4   3
ENDBRANCH  10   9
BRANCH  12  13
ATOM     13  N   UNL     1    -108.752  -2.427 -90.852  0.00  0.00    -0.281 N 
ATOM     14  C   UNL     1    -109.637  -3.274 -91.499  0.00  0.00    +0.248 C 
ATOM     30  O   UNL     1    -110.691  -3.667 -91.022  0.00  0.00    -0.270 OA
ATOM     31  H   UNL     1    -107.829  -2.335 -91.277  0.00  0.00    +0.155 HD
BRANCH  14  15
ATOM     15  C   UNL     1    -109.296  -3.766 -92.869  0.00  0.00    +0.037 A 
ATOM     16  C   UNL     1    -107.911  -3.786 -93.346  0.00  0.00    +0.013 A 
ATOM     17  C   UNL     1    -107.611  -4.249 -94.678  0.00  0.00    +0.005 A 
ATOM     18  C   UNL     1    -108.700  -4.698 -95.542  0.00  0.00    -0.033 A 
ATOM     28  C   UNL     1    -110.065  -4.673 -95.041  0.00  0.00    +0.005 A 
ATOM     29  C   UNL     1    -110.362  -4.218 -93.737  0.00  0.00    +0.013 A 
BRANCH  18  19
ATOM     19  C   UNL     1    -108.475  -5.189 -96.984  0.00  0.00    +0.119 C 
BRANCH  19  20
ATOM     20  N   UNL     1    -107.820  -4.241 -97.934  0.00  0.00    -0.302 NA
ATOM     21  C   UNL     1    -108.824  -3.621 -98.911  0.00  0.00    +0.066 C 
ATOM     22  C   UNL     1    -108.125  -2.615 -99.883  0.00  0.00    -0.064 C 
ATOM     23  N   UNL     1    -107.007  -3.335-100.639  0.00  0.00    +0.379 N 
ATOM     24  C   UNL     1    -106.387  -2.407-101.596  0.00  0.00    -0.096 C 
ATOM     25  H   UNL     1    -107.473  -4.162-101.224  0.00  0.00    -0.082 HD
ATOM     26  C   UNL     1    -106.006  -3.957 -99.676  0.00  0.00    -0.064 C 
ATOM     27  C   UNL     1    -106.715  -4.932 -98.695  0.00  0.00    +0.066 C 
ENDBRANCH  19  20
ENDBRANCH  18  19
ENDBRANCH  14  15
ENDBRANCH  12  13
TORSDOF 6
ENDMDL
MODEL 3
REMARK VINA RESULT:      -8.3      1.712     12.845
REMARK  Name = C:\Users\Docking\Desktop\test protocol\1iep_ligandH.pdb
REMARK  8 active torsions:
REMARK  status: ('A' for Active; 'I' for Inactive)
REMARK    1  A    between atoms: _5  and  _11
REMARK    2  A    between atoms: _19  and  _21
REMARK    3  A    between atoms: _22  and  _66
REMARK    4  A    between atoms: _27  and  _30
REMARK    5  A    between atoms: _32  and  _33
REMARK    6  A    between atoms: _38  and  _43
REMARK    7  A    between atoms: _43  and  _46
REMARK    8  A    between atoms: _53  and  _55
REMARK                            x       y       z     vdW  Elec       q    Type
REMARK                         _______ _______ _______ _____ _____    ______ ____
ROOT
ATOM     10  C   UNL     1    -108.886  -3.028 -89.074  0.00  0.00    +0.038 A 
ATOM     11  C   UNL     1    -109.625  -3.730 -90.060  0.00  0.00    +0.047 A 
ATOM     12  C   UNL     1    -109.513  -3.388 -91.470  0.00  0.00    +0.035 A 
ATOM     32  C   UNL     1    -108.637  -2.327 -91.840  0.00  0.00    +0.024 A 
ATOM     33  C   UNL     1    -107.878  -1.602 -90.851  0.00  0.00    +0.007 A 
ATOM     34  C   UNL     1    -107.987  -1.933 -89.459  0.00  0.00    -0.029 A 
ATOM     35  C   UNL     1    -107.155  -1.118 -88.441  0.00  0.00    +0.045 C 
ENDROOT
BRANCH  10   9
ATOM      4  C   UNL     1    -110.781  -2.442 -84.703  0.00  0.00    +0.077 A 
ATOM      5  C   UNL     1    -111.522  -1.285 -85.115  0.00  0.00    +0.048 A 
ATOM      6  C   UNL     1    -111.382  -0.869 -86.458  0.00  0.00    +0.116 A 
ATOM      7  N   UNL     1    -110.560  -1.566 -87.316  0.00  0.00    -0.223 NA
ATOM      8  C   UNL     1    -109.858  -2.677 -86.887  0.00  0.00    +0.220 A 
ATOM      9  N   UNL     1    -109.032  -3.398 -87.735  0.00  0.00    -0.283 N 
ATOM     36  H   UNL     1    -108.525  -4.208 -87.378  0.00  0.00    +0.155 HD
ATOM     37  N   UNL     1    -109.973  -3.094 -85.609  0.00  0.00    -0.214 NA
BRANCH   4   3
ATOM      1  C   UNL     1    -110.791  -4.929 -81.684  0.00  0.00    +0.020 A 
ATOM      2  C   UNL     1    -110.743  -4.436 -83.041  0.00  0.00    +0.013 A 
ATOM      3  C   UNL     1    -110.826  -3.007 -83.317  0.00  0.00    +0.019 A 
ATOM     38  C   UNL     1    -110.956  -2.097 -82.189  0.00  0.00    +0.120 A 
ATOM     39  N   UNL     1    -111.001  -2.601 -80.893  0.00  0.00    -0.263 NA
ATOM     40  C   UNL     1    -110.925  -3.974 -80.615  0.00  0.00    +0.111 A 
ENDBRANCH   4   3
ENDBRANCH  10   9
BRANCH  12  13
ATOM     13  N   UNL     1    -110.245  -4.060 -92.515  0.00  0.00    -0.281 N 
ATOM     14  C   UNL     1    -111.351  -3.600 -93.212  0.00  0.00    +0.248 C 
ATOM     30  O   UNL     1    -112.011  -2.623 -92.892  0.00  0.00    -0.270 OA
ATOM     31  H   UNL     1    -109.907  -4.988 -92.772  0.00  0.00    +0.155 HD
BRANCH  14  15
ATOM     15  C   UNL     1    -111.795  -4.341 -94.431  0.00  0.00    +0.037 A 
ATOM     16  C   UNL     1    -113.140  -4.160 -94.983  0.00  0.00    +0.013 A 
ATOM     17  C   UNL     1    -113.549  -4.899 -96.151  0.00  0.00    +0.005 A 
ATOM     18  C   UNL     1    -112.609  -5.827 -96.776  0.00  0.00    -0.033 A 
ATOM     28  C   UNL     1    -111.279  -5.983 -96.211  0.00  0.00    +0.005 A 
ATOM     29  C   UNL     1    -110.875  -5.261 -95.066  0.00  0.00    +0.013 A 
BRANCH  18  19
ATOM     19  C   UNL     1    -112.967  -6.673 -98.012  0.00  0.00    +0.119 C 
BRANCH  19  20
ATOM     20  N   UNL     1    -113.655  -7.977 -97.773  0.00  0.00    -0.302 NA
ATOM     21  C   UNL     1    -112.847  -9.160 -98.313  0.00  0.00    +0.066 C 
ATOM     22  C   UNL     1    -113.571 -10.518 -98.034  0.00  0.00    -0.064 C 
ATOM     23  N   UNL     1    -114.967 -10.486 -98.657  0.00  0.00    +0.379 N 
ATOM     24  C   UNL     1    -115.628 -11.782 -98.446  0.00  0.00    -0.096 C 
ATOM     25  H   UNL     1    -114.845 -10.343 -99.755  0.00  0.00    -0.082 HD
ATOM     26  C   UNL     1    -115.776  -9.310 -98.126  0.00  0.00    -0.064 C 
ATOM     27  C   UNL     1    -115.035  -7.968 -98.383  0.00  0.00    +0.066 C 
ENDBRANCH  19  20
ENDBRANCH  18  19
ENDBRANCH  14  15
ENDBRANCH  12  13
TORSDOF 6
ENDMDL
MODEL 4
REMARK VINA RESULT:      -8.3      1.160      1.442
REMARK  Name = C:\Users\Docking\Desktop\test protocol\1iep_ligandH.pdb
REMARK  8 active torsions:
REMARK  status: ('A' for Active; 'I' for Inactive)
REMARK    1  A    between atoms: _5  and  _11
REMARK    2  A    between atoms: _19  and  _21
REMARK    3  A    between atoms: _22  and  _66
REMARK    4  A    between atoms: _27  and  _30
REMARK    5  A    between atoms: _32  and  _33
REMARK    6  A    between atoms: _38  and  _43
REMARK    7  A    between atoms: _43  and  _46
REMARK    8  A    between atoms: _53  and  _55
REMARK                            x       y       z     vdW  Elec       q    Type
REMARK                         _______ _______ _______ _____ _____    ______ ____
ROOT
ATOM     10  C   UNL     1    -111.815  -4.981 -96.987  0.00  0.00    +0.038 A 
ATOM     11  C   UNL     1    -111.595  -4.657 -95.624  0.00  0.00    +0.047 A 
ATOM     12  C   UNL     1    -110.597  -3.672 -95.236  0.00  0.00    +0.035 A 
ATOM     32  C   UNL     1    -109.844  -3.033 -96.264  0.00  0.00    +0.024 A 
ATOM     33  C   UNL     1    -110.054  -3.351 -97.654  0.00  0.00    +0.007 A 
ATOM     34  C   UNL     1    -111.034  -4.324 -98.043  0.00  0.00    -0.029 A 
ATOM     35  C   UNL     1    -111.212  -4.630 -99.548  0.00  0.00    +0.045 C 
ENDROOT
BRANCH  10   9
ATOM      4  C   UNL     1    -113.252  -9.523 -97.574  0.00  0.00    +0.077 A 
ATOM      5  C   UNL     1    -111.953 -10.038 -97.251  0.00  0.00    +0.048 A 
ATOM      6  C   UNL     1    -110.940  -9.101 -96.947  0.00  0.00    +0.116 A 
ATOM      7  N   UNL     1    -111.218  -7.751 -96.967  0.00  0.00    -0.223 NA
ATOM      8  C   UNL     1    -112.481  -7.287 -97.284  0.00  0.00    +0.220 A 
ATOM      9  N   UNL     1    -112.785  -5.935 -97.303  0.00  0.00    -0.283 N 
ATOM     36  H   UNL     1    -113.727  -5.633 -97.550  0.00  0.00    +0.155 HD
ATOM     37  N   UNL     1    -113.465  -8.162 -97.580  0.00  0.00    -0.214 NA
BRANCH   4   3
ATOM      1  C   UNL     1    -115.728 -11.874 -99.484  0.00  0.00    +0.020 A 
ATOM      2  C   UNL     1    -114.574 -11.049 -99.205  0.00  0.00    +0.013 A 
ATOM      3  C   UNL     1    -114.426 -10.387 -97.915  0.00  0.00    +0.019 A 
ATOM     38  C   UNL     1    -115.470 -10.583 -96.920  0.00  0.00    +0.120 A 
ATOM     39  N   UNL     1    -116.570 -11.381 -97.217  0.00  0.00    -0.263 NA
ATOM     40  C   UNL     1    -116.724 -12.022 -98.456  0.00  0.00    +0.111 A 
ENDBRANCH   4   3
ENDBRANCH  10   9
BRANCH  12  13
ATOM     13  N   UNL     1    -110.324  -3.308 -93.868  0.00  0.00    -0.281 N 
ATOM     14  C   UNL     1    -109.291  -3.751 -93.059  0.00  0.00    +0.248 C 
ATOM     30  O   UNL     1    -108.563  -4.697 -93.323  0.00  0.00    -0.270 OA
ATOM     31  H   UNL     1    -110.971  -2.643 -93.445  0.00  0.00    +0.155 HD
BRANCH  14  15
ATOM     15  C   UNL     1    -109.038  -3.052 -91.762  0.00  0.00    +0.037 A 
ATOM     16  C   UNL     1    -108.615  -3.792 -90.570  0.00  0.00    +0.013 A 
ATOM     17  C   UNL     1    -108.395  -3.095 -89.328  0.00  0.00    +0.005 A 
ATOM     18  C   UNL     1    -108.595  -1.649 -89.272  0.00  0.00    -0.033 A 
ATOM     28  C   UNL     1    -109.010  -0.940 -90.471  0.00  0.00    +0.005 A 
ATOM     29  C   UNL     1    -109.228  -1.619 -91.690  0.00  0.00    +0.013 A 
BRANCH  18  19
ATOM     19  C   UNL     1    -108.404  -0.828 -87.983  0.00  0.00    +0.119 C 
BRANCH  19  20
ATOM     20  N   UNL     1    -109.527  -0.827 -86.999  0.00  0.00    -0.302 NA
ATOM     21  C   UNL     1    -109.690   0.533 -86.315  0.00  0.00    +0.066 C 
ATOM     22  C   UNL     1    -110.884   0.523 -85.305  0.00  0.00    -0.064 C 
ATOM     23  N   UNL     1    -110.664  -0.582 -84.270  0.00  0.00    +0.379 N 
ATOM     24  C   UNL     1    -111.755  -0.556 -83.286  0.00  0.00    -0.096 C 
ATOM     25  H   UNL     1    -109.715  -0.354 -83.730  0.00  0.00    -0.082 HD
ATOM     26  C   UNL     1    -110.498  -1.937 -84.943  0.00  0.00    -0.064 C 
ATOM     27  C   UNL     1    -109.328  -1.907 -85.965  0.00  0.00    +0.066 C 
ENDBRANCH  19  20
ENDBRANCH  18  19
ENDBRANCH  14  15
ENDBRANCH  12  13
TORSDOF 6
ENDMDL
MODEL 5
REMARK VINA RESULT:      -8.3      4.469     14.150
REMARK  Name = C:\Users\Docking\Desktop\test protocol\1iep_ligandH.pdb
REMARK  8 active torsions:
REMARK  status: ('A' for Active; 'I' for Inactive)
REMARK    1  A    between atoms: _5  and  _11
REMARK    2  A    between atoms: _19  and  _21
REMARK    3  A    between atoms: _22  and  _66
REMARK    4  A    between atoms: _27  and  _30
REMARK    5  A    between atoms: _32  and  _33
REMARK    6  A    between atoms: _38  and  _43
REMARK    7  A    between atoms: _43  and  _46
REMARK    8  A    between atoms: _53  and  _55
REMARK                            x       y       z     vdW  Elec       q    Type
REMARK                         _______ _______ _______ _____ _____    ______ ____
ROOT
ATOM     10  C   UNL     1    -111.269  -0.295 -82.919  0.00  0.00    +0.038 A 
ATOM     11  C   UNL     1    -110.915  -1.066 -84.056  0.00  0.00    +0.047 A 
ATOM     12  C   UNL     1    -110.225  -0.465 -85.187  0.00  0.00    +0.035 A 
ATOM     32  C   UNL     1    -109.908   0.923 -85.125  0.00  0.00    +0.024 A 
ATOM     33  C   UNL     1    -110.261   1.722 -83.978  0.00  0.00    +0.007 A 
ATOM     34  C   UNL     1    -110.944   1.135 -82.860  0.00  0.00    -0.029 A 
ATOM     35  C   UNL     1    -111.304   2.040 -81.659  0.00  0.00    +0.045 C 
ENDROOT
BRANCH  10   9
ATOM      4  C   UNL     1    -112.003  -4.047 -80.017  0.00  0.00    +0.077 A 
ATOM      5  C   UNL     1    -111.002  -4.831 -80.680  0.00  0.00    +0.048 A 
ATOM      6  C   UNL     1    -110.326  -4.235 -81.768  0.00  0.00    +0.116 A 
ATOM      7  N   UNL     1    -110.636  -2.949 -82.155  0.00  0.00    -0.223 NA
ATOM      8  C   UNL     1    -111.608  -2.221 -81.495  0.00  0.00    +0.220 A 
ATOM      9  N   UNL     1    -111.931  -0.923 -81.862  0.00  0.00    -0.283 N 
ATOM     36  H   UNL     1    -112.659  -0.422 -81.354  0.00  0.00    +0.155 HD
ATOM     37  N   UNL     1    -112.269  -2.768 -80.453  0.00  0.00    -0.214 NA
BRANCH   4   3
ATOM      1  C   UNL     1    -113.203  -6.106 -76.915  0.00  0.00    +0.020 A 
ATOM      2  C   UNL     1    -112.396  -5.674 -78.033  0.00  0.00    +0.013 A 
ATOM      3  C   UNL     1    -112.801  -4.536 -78.848  0.00  0.00    +0.019 A 
ATOM     38  C   UNL     1    -114.038  -3.851 -78.503  0.00  0.00    +0.120 A 
ATOM     39  N   UNL     1    -114.795  -4.290 -77.421  0.00  0.00    -0.263 NA
ATOM     40  C   UNL     1    -114.416  -5.385 -76.630  0.00  0.00    +0.111 A 
ENDBRANCH   4   3
ENDBRANCH  10   9
BRANCH  12  13
ATOM     13  N   UNL     1    -109.847  -1.195 -86.372  0.00  0.00    -0.281 N 
ATOM     14  C   UNL     1    -110.396  -1.102 -87.640  0.00  0.00    +0.248 C 
ATOM     30  O   UNL     1    -111.442  -0.527 -87.900  0.00  0.00    -0.270 OA
ATOM     31  H   UNL     1    -109.083  -1.862 -86.262  0.00  0.00    +0.155 HD
BRANCH  14  15
ATOM     15  C   UNL     1    -109.687  -1.754 -88.783  0.00  0.00    +0.037 A 
ATOM     16  C   UNL     1    -109.275  -3.159 -88.721  0.00  0.00    +0.013 A 
ATOM     17  C   UNL     1    -108.578  -3.758 -89.830  0.00  0.00    +0.005 A 
ATOM     18  C   UNL     1    -108.288  -2.952 -91.014  0.00  0.00    -0.033 A 
ATOM     28  C   UNL     1    -108.712  -1.562 -91.052  0.00  0.00    +0.005 A 
ATOM     29  C   UNL     1    -109.395  -0.971 -89.965  0.00  0.00    +0.013 A 
BRANCH  18  19
ATOM     19  C   UNL     1    -107.530  -3.503 -92.236  0.00  0.00    +0.119 C 
BRANCH  19  20
ATOM     20  N   UNL     1    -108.255  -3.518 -93.541  0.00  0.00    -0.302 NA
ATOM     21  C   UNL     1    -109.566  -4.305 -93.461  0.00  0.00    +0.066 C 
ATOM     22  C   UNL     1    -110.323  -4.291 -94.829  0.00  0.00    -0.064 C 
ATOM     23  N   UNL     1    -109.414  -4.863 -95.917  0.00  0.00    +0.379 N 
ATOM     24  C   UNL     1    -110.142  -4.906 -97.194  0.00  0.00    -0.096 C 
ATOM     25  H   UNL     1    -109.167  -5.913 -95.634  0.00  0.00    -0.082 HD
ATOM     26  C   UNL     1    -108.106  -4.089 -96.002  0.00  0.00    -0.064 C 
ATOM     27  C   UNL     1    -107.377  -4.084 -94.630  0.00  0.00    +0.066 C 
ENDBRANCH  19  20
ENDBRANCH  18  19
ENDBRANCH  14  15
ENDBRANCH  12  13
TORSDOF 6
ENDMDL
