MODEL 1
REMARK VINA RESULT:      -9.0      0.000      0.000
REMARK  Name = C:\Users\Docking\Desktop\test protocol\1iep_ligandH.pdb
REMARK  8 active torsions:
REMARK  status: ('A' for Active; 'I' for Inactive)
REMARK    1  A    between atoms: _5  and  _11
REMARK    2  A    between atoms: _19  and  _21
REMARK    3  A    between atoms: _22  and  _66
REMARK    4  A    between atoms: _27  and  _30
REMARK    5  A    between atoms: _32  and  _33
REMARK    6  A    between atoms: _38  and  _43
REMARK    7  A    between atoms: _43  and  _46
REMARK    8  A    between atoms: _53  and  _55
REMARK                            x       y       z     vdW  Elec       q    Type
REMARK                         _______ _______ _______ _____ _____    ______ ____
ROOT
ATOM     10  C   UNL     1      15.421  25.926  19.804  0.00  0.00    +0.038 A 
ATOM     11  C   UNL     1      14.350  24.997  19.757  0.00  0.00    +0.047 A 
ATOM     12  C   UNL     1      13.155  25.265  18.974  0.00  0.00    +0.035 A 
ATOM     32  C   UNL     1      13.084  26.490  18.248  0.00  0.00    +0.024 A 
ATOM     33  C   UNL     1      14.162  27.446  18.285  0.00  0.00    +0.007 A 
ATOM     34  C   UNL     1      15.343  27.188  19.058  0.00  0.00    -0.029 A 
ATOM     35  C   UNL     1      16.465  28.252  19.067  0.00  0.00    +0.045 C 
ENDROOT
BRANCH  10   9
ATOM      4  C   UNL     1      19.342  23.309  20.705  0.00  0.00    +0.077 A 
ATOM      5  C   UNL     1      19.117  22.470  19.564  0.00  0.00    +0.048 A 
ATOM      6  C   UNL     1      17.976  22.741  18.775  0.00  0.00    +0.116 A 
ATOM      7  N   UNL     1      17.132  23.776  19.111  0.00  0.00    -0.223 NA
ATOM      8  C   UNL     1      17.377  24.565  20.220  0.00  0.00    +0.220 A 
ATOM      9  N   UNL     1      16.546  25.617  20.573  0.00  0.00    -0.283 N 
ATOM     36  H   UNL     1      16.757  26.171  21.402  0.00  0.00    +0.155 HD
ATOM     37  N   UNL     1      18.459  24.326  20.990  0.00  0.00    -0.214 NA
BRANCH   4   3
ATOM      1  C   UNL     1      22.108  24.019  23.378  0.00  0.00    +0.020 A 
ATOM      2  C   UNL     1      20.981  24.224  22.499  0.00  0.00    +0.013 A 
ATOM      3  C   UNL     1      20.506  23.151  21.634  0.00  0.00    +0.019 A 
ATOM     38  C   UNL     1      21.199  21.873  21.685  0.00  0.00    +0.120 A 
ATOM     39  N   UNL     1      22.283  21.705  22.541  0.00  0.00    -0.263 NA
ATOM     40  C   UNL     1      22.750  22.731  23.376  0.00  0.00    +0.111 A 
ENDBRANCH   4   3
ENDBRANCH  10   9
BRANCH  12  13
ATOM     13  N   UNL     1      12.033  24.363  18.895  0.00  0.00    -0.281 N 
ATOM     14  C   UNL     1      11.034  24.329  17.935  0.00  0.00    +0.248 C 
ATOM     30  O   UNL     1      10.835  25.210  17.113  0.00  0.00    -0.270 OA
ATOM     31  H   UNL     1      11.967  23.665  19.636  0.00  0.00    +0.155 HD
BRANCH  14  15
ATOM     15  C   UNL     1      10.114  23.151  17.893  0.00  0.00    +0.037 A 
ATOM     16  C   UNL     1       8.797  23.192  18.533  0.00  0.00    +0.013 A 
ATOM     17  C   UNL     1       7.936  22.037  18.492  0.00  0.00    +0.005 A 
ATOM     18  C   UNL     1       8.390  20.830  17.806  0.00  0.00    -0.033 A 
ATOM     28  C   UNL     1       9.699  20.818  17.174  0.00  0.00    +0.005 A 
ATOM     29  C   UNL     1      10.546  21.949  17.214  0.00  0.00    +0.013 A 
BRANCH  18  19
ATOM     19  C   UNL     1       7.547  19.543  17.730  0.00  0.00    +0.119 C 
BRANCH  19  20
ATOM     20  N   UNL     1       6.486  19.359  18.765  0.00  0.00    -0.302 NA
ATOM     21  C   UNL     1       6.438  17.921  19.289  0.00  0.00    +0.066 C 
ATOM     22  C   UNL     1       5.338  17.752  20.387  0.00  0.00    -0.064 C 
ATOM     23  N   UNL     1       3.981  18.165  19.814  0.00  0.00    +0.379 N 
ATOM     24  C   UNL     1       2.936  17.952  20.825  0.00  0.00    -0.096 C 
ATOM     25  H   UNL     1       3.761  17.493  18.952  0.00  0.00    -0.082 HD
ATOM     26  C   UNL     1       4.021  19.592  19.287  0.00  0.00    -0.064 C 
ATOM     27  C   UNL     1       5.137  19.757  18.218  0.00  0.00    +0.066 C 
ENDBRANCH  19  20
ENDBRANCH  18  19
ENDBRANCH  14  15
ENDBRANCH  12  13
TORSDOF 6
ENDMDL
MODEL 2
REMARK VINA RESULT:      -8.9      7.348     11.538
REMARK  Name = C:\Users\Docking\Desktop\test protocol\1iep_ligandH.pdb
REMARK  8 active torsions:
REMARK  status: ('A' for Active; 'I' for Inactive)
REMARK    1  A    between atoms: _5  and  _11
REMARK    2  A    between atoms: _19  and  _21
REMARK    3  A    between atoms: _22  and  _66
REMARK    4  A    between atoms: _27  and  _30
REMARK    5  A    between atoms: _32  and  _33
REMARK    6  A    between atoms: _38  and  _43
REMARK    7  A    between atoms: _43  and  _46
REMARK    8  A    between atoms: _53  and  _55
REMARK                            x       y       z     vdW  Elec       q    Type
REMARK                         _______ _______ _______ _____ _____    ______ ____
ROOT
ATOM     10  C   UNL     1      22.679  20.993  25.077  0.00  0.00    +0.038 A 
ATOM     11  C   UNL     1      21.697  21.678  24.316  0.00  0.00    +0.047 A 
ATOM     12  C   UNL     1      22.009  22.227  23.005  0.00  0.00    +0.035 A 
ATOM     32  C   UNL     1      23.330  22.056  22.498  0.00  0.00    +0.024 A 
ATOM     33  C   UNL     1      24.340  21.363  23.259  0.00  0.00    +0.007 A 
ATOM     34  C   UNL     1      24.040  20.823  24.554  0.00  0.00    -0.029 A 
ATOM     35  C   UNL     1      25.164  20.095  25.327  0.00  0.00    +0.045 C 
ENDROOT
BRANCH  10   9
ATOM      4  C   UNL     1      22.434  21.321  29.859  0.00  0.00    +0.077 A 
ATOM      5  C   UNL     1      23.090  22.597  29.865  0.00  0.00    +0.048 A 
ATOM      6  C   UNL     1      23.481  23.130  28.616  0.00  0.00    +0.116 A 
ATOM      7  N   UNL     1      23.229  22.432  27.455  0.00  0.00    -0.223 NA
ATOM      8  C   UNL     1      22.596  21.203  27.486  0.00  0.00    +0.220 A 
ATOM      9  N   UNL     1      22.325  20.487  26.330  0.00  0.00    -0.283 N 
ATOM     36  H   UNL     1      21.862  19.581  26.395  0.00  0.00    +0.155 HD
ATOM     37  N   UNL     1      22.214  20.671  28.665  0.00  0.00    -0.214 NA
BRANCH   4   3
ATOM      1  C   UNL     1      20.892  20.616  33.384  0.00  0.00    +0.020 A 
ATOM      2  C   UNL     1      21.335  21.333  32.211  0.00  0.00    +0.013 A 
ATOM      3  C   UNL     1      21.957  20.628  31.098  0.00  0.00    +0.019 A 
ATOM     38  C   UNL     1      22.118  19.185  31.205  0.00  0.00    +0.120 A 
ATOM     39  N   UNL     1      21.683  18.522  32.348  0.00  0.00    -0.263 NA
ATOM     40  C   UNL     1      21.084  19.190  33.426  0.00  0.00    +0.111 A 
ENDBRANCH   4   3
ENDBRANCH  10   9
BRANCH  12  13
ATOM     13  N   UNL     1      21.056  22.939  22.191  0.00  0.00    -0.281 N 
ATOM     14  C   UNL     1      20.063  22.410  21.383  0.00  0.00    +0.248 C 
ATOM     30  O   UNL     1      19.981  21.231  21.070  0.00  0.00    -0.270 OA
ATOM     31  H   UNL     1      21.121  23.957  22.213  0.00  0.00    +0.155 HD
BRANCH  14  15
ATOM     15  C   UNL     1      19.018  23.325  20.830  0.00  0.00    +0.037 A 
ATOM     16  C   UNL     1      18.664  24.573  21.510  0.00  0.00    +0.013 A 
ATOM     17  C   UNL     1      17.641  25.429  20.964  0.00  0.00    +0.005 A 
ATOM     18  C   UNL     1      16.965  25.039  19.729  0.00  0.00    -0.033 A 
ATOM     28  C   UNL     1      17.339  23.798  19.072  0.00  0.00    +0.005 A 
ATOM     29  C   UNL     1      18.341  22.956  19.605  0.00  0.00    +0.013 A 
BRANCH  18  19
ATOM     19  C   UNL     1      15.846  25.881  19.086  0.00  0.00    +0.119 C 
BRANCH  19  20
ATOM     20  N   UNL     1      16.255  26.911  18.086  0.00  0.00    -0.302 NA
ATOM     21  C   UNL     1      16.816  28.170  18.753  0.00  0.00    +0.066 C 
ATOM     22  C   UNL     1      17.259  29.228  17.691  0.00  0.00    -0.064 C 
ATOM     23  N   UNL     1      16.070  29.575  16.793  0.00  0.00    +0.379 N 
ATOM     24  C   UNL     1      16.468  30.612  15.831  0.00  0.00    -0.096 C 
ATOM     25  H   UNL     1      15.271  30.004  17.442  0.00  0.00    -0.082 HD
ATOM     26  C   UNL     1      15.504  28.328  16.128  0.00  0.00    -0.064 C 
ATOM     27  C   UNL     1      15.094  27.271  17.191  0.00  0.00    +0.066 C 
ENDBRANCH  19  20
ENDBRANCH  18  19
ENDBRANCH  14  15
ENDBRANCH  12  13
TORSDOF 6
ENDMDL
MODEL 3
REMARK VINA RESULT:      -8.9      6.550     12.675
REMARK  Name = C:\Users\Docking\Desktop\test protocol\1iep_ligandH.pdb
REMARK  8 active torsions:
REMARK  status: ('A' for Active; 'I' for Inactive)
REMARK    1  A    between atoms: _5  and  _11
REMARK    2  A    between atoms: _19  and  _21
REMARK    3  A    between atoms: _22  and  _66
REMARK    4  A    between atoms: _27  and  _30
REMARK    5  A    between atoms: _32  and  _33
REMARK    6  A    between atoms: _38  and  _43
REMARK    7  A    between atoms: _43  and  _46
REMARK    8  A    between atoms: _53  and  _55
REMARK                            x       y       z     vdW  Elec       q    Type
REMARK                         _______ _______ _______ _____ _____    ______ ____
ROOT
ATOM     10  C   UNL     1      15.794  26.412  18.173  0.00  0.00    +0.038 A 
ATOM     11  C   UNL     1      16.914  25.873  18.857  0.00  0.00    +0.047 A 
ATOM     12  C   UNL     1      16.772  25.267  20.172  0.00  0.00    +0.035 A 
ATOM     32  C   UNL     1      15.475  25.223  20.760  0.00  0.00    +0.024 A 
ATOM     33  C   UNL     1      14.326  25.766  20.079  0.00  0.00    +0.007 A 
ATOM     34  C   UNL     1      14.459  26.368  18.783  0.00  0.00    -0.029 A 
ATOM     35  C   UNL     1      13.194  26.940  18.103  0.00  0.00    +0.045 C 
ENDROOT
BRANCH  10   9
ATOM      4  C   UNL     1      17.060  30.066  15.331  0.00  0.00    +0.077 A 
ATOM      5  C   UNL     1      17.335  30.919  16.451  0.00  0.00    +0.048 A 
ATOM      6  C   UNL     1      17.131  30.382  17.741  0.00  0.00    +0.116 A 
ATOM      7  N   UNL     1      16.685  29.086  17.889  0.00  0.00    -0.223 NA
ATOM      8  C   UNL     1      16.428  28.290  16.788  0.00  0.00    +0.220 A 
ATOM      9  N   UNL     1      15.987  26.982  16.913  0.00  0.00    -0.283 N 
ATOM     36  H   UNL     1      15.801  26.430  16.076  0.00  0.00    +0.155 HD
ATOM     37  N   UNL     1      16.614  28.781  15.545  0.00  0.00    -0.214 NA
BRANCH   4   3
ATOM      1  C   UNL     1      17.792  32.188  12.128  0.00  0.00    +0.020 A 
ATOM      2  C   UNL     1      17.642  31.832  13.520  0.00  0.00    +0.013 A 
ATOM      3  C   UNL     1      17.230  30.488  13.904  0.00  0.00    +0.019 A 
ATOM     38  C   UNL     1      16.978  29.520  12.848  0.00  0.00    +0.120 A 
ATOM     39  N   UNL     1      17.129  29.892  11.516  0.00  0.00    -0.263 NA
ATOM     40  C   UNL     1      17.523  31.183  11.133  0.00  0.00    +0.111 A 
ENDBRANCH   4   3
ENDBRANCH  10   9
BRANCH  12  13
ATOM     13  N   UNL     1      17.874  24.711  20.917  0.00  0.00    -0.281 N 
ATOM     14  C   UNL     1      18.683  23.641  20.571  0.00  0.00    +0.248 C 
ATOM     30  O   UNL     1      18.445  22.860  19.662  0.00  0.00    -0.270 OA
ATOM     31  H   UNL     1      18.084  25.161  21.809  0.00  0.00    +0.155 HD
BRANCH  14  15
ATOM     15  C   UNL     1      19.930  23.394  21.358  0.00  0.00    +0.037 A 
ATOM     16  C   UNL     1      20.684  22.146  21.216  0.00  0.00    +0.013 A 
ATOM     17  C   UNL     1      21.874  21.926  21.999  0.00  0.00    +0.005 A 
ATOM     18  C   UNL     1      22.318  22.959  22.932  0.00  0.00    -0.033 A 
ATOM     28  C   UNL     1      21.554  24.190  23.050  0.00  0.00    +0.005 A 
ATOM     29  C   UNL     1      20.387  24.409  22.284  0.00  0.00    +0.013 A 
BRANCH  18  19
ATOM     19  C   UNL     1      23.564  22.802  23.823  0.00  0.00    +0.119 C 
BRANCH  19  20
ATOM     20  N   UNL     1      23.341  22.681  25.295  0.00  0.00    -0.302 NA
ATOM     21  C   UNL     1      24.605  23.007  26.096  0.00  0.00    +0.066 C 
ATOM     22  C   UNL     1      24.348  22.898  27.634  0.00  0.00    -0.064 C 
ATOM     23  N   UNL     1      23.843  21.493  27.966  0.00  0.00    +0.379 N 
ATOM     24  C   UNL     1      23.656  21.369  29.419  0.00  0.00    -0.096 C 
ATOM     25  H   UNL     1      24.636  20.769  27.664  0.00  0.00    -0.082 HD
ATOM     26  C   UNL     1      22.588  21.160  27.172  0.00  0.00    -0.064 C 
ATOM     27  C   UNL     1      22.847  21.300  25.646  0.00  0.00    +0.066 C 
ENDBRANCH  19  20
ENDBRANCH  18  19
ENDBRANCH  14  15
ENDBRANCH  12  13
TORSDOF 6
ENDMDL
MODEL 4
REMARK VINA RESULT:      -8.7      6.741     11.660
REMARK  Name = C:\Users\Docking\Desktop\test protocol\1iep_ligandH.pdb
REMARK  8 active torsions:
REMARK  status: ('A' for Active; 'I' for Inactive)
REMARK    1  A    between atoms: _5  and  _11
REMARK    2  A    between atoms: _19  and  _21
REMARK    3  A    between atoms: _22  and  _66
REMARK    4  A    between atoms: _27  and  _30
REMARK    5  A    between atoms: _32  and  _33
REMARK    6  A    between atoms: _38  and  _43
REMARK    7  A    between atoms: _43  and  _46
REMARK    8  A    between atoms: _53  and  _55
REMARK                            x       y       z     vdW  Elec       q    Type
REMARK                         _______ _______ _______ _____ _____    ______ ____
ROOT
ATOM     10  C   UNL     1      15.964  26.288  17.988  0.00  0.00    +0.038 A 
ATOM     11  C   UNL     1      17.059  25.568  18.530  0.00  0.00    +0.047 A 
ATOM     12  C   UNL     1      16.949  24.882  19.808  0.00  0.00    +0.035 A 
ATOM     32  C   UNL     1      15.708  24.948  20.506  0.00  0.00    +0.024 A 
ATOM     33  C   UNL     1      14.585  25.676  19.970  0.00  0.00    +0.007 A 
ATOM     34  C   UNL     1      14.688  26.357  18.711  0.00  0.00    -0.029 A 
ATOM     35  C   UNL     1      13.454  27.128  18.187  0.00  0.00    +0.045 C 
ENDROOT
BRANCH  10   9
ATOM      4  C   UNL     1      17.119  30.109  15.322  0.00  0.00    +0.077 A 
ATOM      5  C   UNL     1      17.400  30.906  16.481  0.00  0.00    +0.048 A 
ATOM      6  C   UNL     1      17.228  30.298  17.745  0.00  0.00    +0.116 A 
ATOM      7  N   UNL     1      16.806  28.989  17.831  0.00  0.00    -0.223 NA
ATOM      8  C   UNL     1      16.542  28.248  16.693  0.00  0.00    +0.220 A 
ATOM      9  N   UNL     1      16.125  26.928  16.757  0.00  0.00    -0.283 N 
ATOM     36  H   UNL     1      15.933  26.418  15.895  0.00  0.00    +0.155 HD
ATOM     37  N   UNL     1      16.697  28.807  15.475  0.00  0.00    -0.214 NA
BRANCH   4   3
ATOM      1  C   UNL     1      17.759  32.410  12.225  0.00  0.00    +0.020 A 
ATOM      2  C   UNL     1      17.640  31.978  13.598  0.00  0.00    +0.013 A 
ATOM      3  C   UNL     1      17.256  30.609  13.918  0.00  0.00    +0.019 A 
ATOM     38  C   UNL     1      16.998  29.694  12.815  0.00  0.00    +0.120 A 
ATOM     39  N   UNL     1      17.120  30.139  11.503  0.00  0.00    -0.263 NA
ATOM     40  C   UNL     1      17.487  31.455  11.183  0.00  0.00    +0.111 A 
ENDBRANCH   4   3
ENDBRANCH  10   9
BRANCH  12  13
ATOM     13  N   UNL     1      18.029  24.143  20.413  0.00  0.00    -0.281 N 
ATOM     14  C   UNL     1      18.738  24.456  21.561  0.00  0.00    +0.248 C 
ATOM     30  O   UNL     1      18.693  25.538  22.128  0.00  0.00    -0.270 OA
ATOM     31  H   UNL     1      18.304  23.284  19.937  0.00  0.00    +0.155 HD
BRANCH  14  15
ATOM     15  C   UNL     1      19.639  23.424  22.158  0.00  0.00    +0.037 A 
ATOM     16  C   UNL     1      20.913  23.795  22.780  0.00  0.00    +0.013 A 
ATOM     17  C   UNL     1      21.771  22.777  23.333  0.00  0.00    +0.005 A 
ATOM     18  C   UNL     1      21.357  21.378  23.268  0.00  0.00    -0.033 A 
ATOM     28  C   UNL     1      20.085  21.039  22.650  0.00  0.00    +0.005 A 
ATOM     29  C   UNL     1      19.242  22.033  22.106  0.00  0.00    +0.013 A 
BRANCH  18  19
ATOM     19  C   UNL     1      22.219  20.224  23.813  0.00  0.00    +0.119 C 
BRANCH  19  20
ATOM     20  N   UNL     1      21.556  18.896  23.983  0.00  0.00    -0.302 NA
ATOM     21  C   UNL     1      21.645  18.390  25.425  0.00  0.00    +0.066 C 
ATOM     22  C   UNL     1      20.928  17.010  25.589  0.00  0.00    -0.064 C 
ATOM     23  N   UNL     1      21.544  15.999  24.621  0.00  0.00    +0.379 N 
ATOM     24  C   UNL     1      20.911  14.687  24.813  0.00  0.00    -0.096 C 
ATOM     25  H   UNL     1      22.623  15.896  24.881  0.00  0.00    -0.082 HD
ATOM     26  C   UNL     1      21.462  16.497  23.184  0.00  0.00    -0.064 C 
ATOM     27  C   UNL     1      22.152  17.882  23.039  0.00  0.00    +0.066 C 
ENDBRANCH  19  20
ENDBRANCH  18  19
ENDBRANCH  14  15
ENDBRANCH  12  13
TORSDOF 6
ENDMDL
MODEL 5
REMARK VINA RESULT:      -8.6      6.285     13.799
REMARK  Name = C:\Users\Docking\Desktop\test protocol\1iep_ligandH.pdb
REMARK  8 active torsions:
REMARK  status: ('A' for Active; 'I' for Inactive)
REMARK    1  A    between atoms: _5  and  _11
REMARK    2  A    between atoms: _19  and  _21
REMARK    3  A    between atoms: _22  and  _66
REMARK    4  A    between atoms: _27  and  _30
REMARK    5  A    between atoms: _32  and  _33
REMARK    6  A    between atoms: _38  and  _43
REMARK    7  A    between atoms: _43  and  _46
REMARK    8  A    between atoms: _53  and  _55
REMARK                            x       y       z     vdW  Elec       q    Type
REMARK                         _______ _______ _______ _____ _____    ______ ____
ROOT
ATOM     10  C   UNL     1      20.004  21.286  20.588  0.00  0.00    +0.038 A 
ATOM     11  C   UNL     1      20.066  20.920  21.957  0.00  0.00    +0.047 A 
ATOM     12  C   UNL     1      21.256  20.299  22.517  0.00  0.00    +0.035 A 
ATOM     32  C   UNL     1      22.367  20.069  21.654  0.00  0.00    +0.024 A 
ATOM     33  C   UNL     1      22.321  20.434  20.260  0.00  0.00    +0.007 A 
ATOM     34  C   UNL     1      21.148  21.044  19.701  0.00  0.00    -0.029 A 
ATOM     35  C   UNL     1      21.152  21.408  18.198  0.00  0.00    +0.045 C 
ENDROOT
BRANCH  10   9
ATOM      4  C   UNL     1      16.861  24.909  20.396  0.00  0.00    +0.077 A 
ATOM      5  C   UNL     1      17.594  25.674  21.363  0.00  0.00    +0.048 A 
ATOM      6  C   UNL     1      18.771  25.096  21.891  0.00  0.00    +0.116 A 
ATOM      7  N   UNL     1      19.175  23.846  21.475  0.00  0.00    -0.223 NA
ATOM      8  C   UNL     1      18.444  23.134  20.542  0.00  0.00    +0.220 A 
ATOM      9  N   UNL     1      18.836  21.879  20.104  0.00  0.00    -0.283 N 
ATOM     36  H   UNL     1      18.265  21.383  19.419  0.00  0.00    +0.155 HD
ATOM     37  N   UNL     1      17.316  23.663  20.024  0.00  0.00    -0.214 NA
BRANCH   4   3
ATOM      1  C   UNL     1      13.090  25.425  19.495  0.00  0.00    +0.020 A 
ATOM      2  C   UNL     1      14.276  24.934  20.157  0.00  0.00    +0.013 A 
ATOM      3  C   UNL     1      15.600  25.385  19.745  0.00  0.00    +0.019 A 
ATOM     38  C   UNL     1      15.688  26.341  18.652  0.00  0.00    +0.120 A 
ATOM     39  N   UNL     1      14.528  26.795  18.032  0.00  0.00    -0.263 NA
ATOM     40  C   UNL     1      13.250  26.367  18.419  0.00  0.00    +0.111 A 
ENDBRANCH   4   3
ENDBRANCH  10   9
BRANCH  12  13
ATOM     13  N   UNL     1      21.374  19.899  23.897  0.00  0.00    -0.281 N 
ATOM     14  C   UNL     1      21.619  18.631  24.397  0.00  0.00    +0.248 C 
ATOM     30  O   UNL     1      21.562  17.604  23.737  0.00  0.00    -0.270 OA
ATOM     31  H   UNL     1      21.264  20.640  24.589  0.00  0.00    +0.155 HD
BRANCH  14  15
ATOM     15  C   UNL     1      21.963  18.480  25.844  0.00  0.00    +0.037 A 
ATOM     16  C   UNL     1      22.619  17.270  26.347  0.00  0.00    +0.013 A 
ATOM     17  C   UNL     1      22.925  17.142  27.750  0.00  0.00    +0.005 A 
ATOM     18  C   UNL     1      22.576  18.230  28.660  0.00  0.00    -0.033 A 
ATOM     28  C   UNL     1      21.931  19.422  28.134  0.00  0.00    +0.005 A 
ATOM     29  C   UNL     1      21.628  19.549  26.759  0.00  0.00    +0.013 A 
BRANCH  18  19
ATOM     19  C   UNL     1      22.845  18.172  30.175  0.00  0.00    +0.119 C 
BRANCH  19  20
ATOM     20  N   UNL     1      22.236  19.242  31.020  0.00  0.00    -0.302 NA
ATOM     21  C   UNL     1      23.211  20.394  31.278  0.00  0.00    +0.066 C 
ATOM     22  C   UNL     1      22.550  21.516  32.145  0.00  0.00    -0.064 C 
ATOM     23  N   UNL     1      22.060  20.915  33.463  0.00  0.00    +0.379 N 
ATOM     24  C   UNL     1      21.490  21.978  34.305  0.00  0.00    -0.096 C 
ATOM     25  H   UNL     1      22.947  20.501  33.996  0.00  0.00    -0.082 HD
ATOM     26  C   UNL     1      21.092  19.767  33.216  0.00  0.00    -0.064 C 
ATOM     27  C   UNL     1      21.749  18.672  32.329  0.00  0.00    +0.066 C 
ENDBRANCH  19  20
ENDBRANCH  18  19
ENDBRANCH  14  15
ENDBRANCH  12  13
TORSDOF 6
ENDMDL
