MODEL 1
REMARK VINA RESULT:      -7.7      0.000      0.000
REMARK  Name = C:\Users\Docking\Desktop\test protocol\1iep_ligandH.pdb
REMARK  8 active torsions:
REMARK  status: ('A' for Active; 'I' for Inactive)
REMARK    1  A    between atoms: _5  and  _11
REMARK    2  A    between atoms: _19  and  _21
REMARK    3  A    between atoms: _22  and  _66
REMARK    4  A    between atoms: _27  and  _30
REMARK    5  A    between atoms: _32  and  _33
REMARK    6  A    between atoms: _38  and  _43
REMARK    7  A    between atoms: _43  and  _46
REMARK    8  A    between atoms: _53  and  _55
REMARK                            x       y       z     vdW  Elec       q    Type
REMARK                         _______ _______ _______ _____ _____    ______ ____
ROOT
ATOM     10  C   UNL     1       4.067   2.641   1.809  0.00  0.00    +0.038 A 
ATOM     11  C   UNL     1       4.791   2.609   3.028  0.00  0.00    +0.047 A 
ATOM     12  C   UNL     1       4.107   2.496   4.307  0.00  0.00    +0.035 A 
ATOM     32  C   UNL     1       2.684   2.414   4.307  0.00  0.00    +0.024 A 
ATOM     33  C   UNL     1       1.932   2.446   3.077  0.00  0.00    +0.007 A 
ATOM     34  C   UNL     1       2.601   2.560   1.813  0.00  0.00    -0.029 A 
ATOM     35  C   UNL     1       1.743   2.596   0.526  0.00  0.00    +0.045 C 
ENDROOT
BRANCH  10   9
ATOM      4  C   UNL     1       6.228   5.226  -1.609  0.00  0.00    +0.077 A 
ATOM      5  C   UNL     1       5.895   6.464  -0.966  0.00  0.00    +0.048 A 
ATOM      6  C   UNL     1       5.161   6.392   0.239  0.00  0.00    +0.116 A 
ATOM      7  N   UNL     1       4.793   5.168   0.754  0.00  0.00    -0.223 NA
ATOM      8  C   UNL     1       5.128   3.993   0.107  0.00  0.00    +0.220 A 
ATOM      9  N   UNL     1       4.774   2.750   0.610  0.00  0.00    -0.283 N 
ATOM     36  H   UNL     1       5.034   1.907   0.099  0.00  0.00    +0.155 HD
ATOM     37  N   UNL     1       5.827   4.035  -1.046  0.00  0.00    -0.214 NA
BRANCH   4   3
ATOM      1  C   UNL     1       8.512   3.928  -4.508  0.00  0.00    +0.020 A 
ATOM      2  C   UNL     1       7.782   3.964  -3.262  0.00  0.00    +0.013 A 
ATOM      3  C   UNL     1       7.002   5.137  -2.887  0.00  0.00    +0.019 A 
ATOM     38  C   UNL     1       6.982   6.267  -3.804  0.00  0.00    +0.120 A 
ATOM     39  N   UNL     1       7.696   6.205  -4.997  0.00  0.00    -0.263 NA
ATOM     40  C   UNL     1       8.450   5.082  -5.367  0.00  0.00    +0.111 A 
ENDBRANCH   4   3
ENDBRANCH  10   9
BRANCH  12  13
ATOM     13  N   UNL     1       4.788   2.468   5.577  0.00  0.00    -0.281 N 
ATOM     14  C   UNL     1       4.321   1.972   6.783  0.00  0.00    +0.248 C 
ATOM     30  O   UNL     1       3.158   1.669   7.002  0.00  0.00    -0.270 OA
ATOM     31  H   UNL     1       5.730   2.861   5.588  0.00  0.00    +0.155 HD
BRANCH  14  15
ATOM     15  C   UNL     1       5.283   1.801   7.914  0.00  0.00    +0.037 A 
ATOM     16  C   UNL     1       6.570   2.501   7.931  0.00  0.00    +0.013 A 
ATOM     17  C   UNL     1       7.486   2.305   9.026  0.00  0.00    +0.005 A 
ATOM     18  C   UNL     1       7.118   1.405  10.116  0.00  0.00    -0.033 A 
ATOM     28  C   UNL     1       5.833   0.726  10.077  0.00  0.00    +0.005 A 
ATOM     29  C   UNL     1       4.932   0.915   9.005  0.00  0.00    +0.013 A 
BRANCH  18  19
ATOM     19  C   UNL     1       8.042   1.119  11.314  0.00  0.00    +0.119 C 
BRANCH  19  20
ATOM     20  N   UNL     1       9.251   1.983  11.465  0.00  0.00    -0.302 NA
ATOM     21  C   UNL     1      10.514   1.302  10.931  0.00  0.00    +0.066 C 
ATOM     22  C   UNL     1      11.765   2.229  11.076  0.00  0.00    -0.064 C 
ATOM     23  N   UNL     1      11.940   2.617  12.546  0.00  0.00    +0.379 N 
ATOM     24  C   UNL     1      13.149   3.441  12.695  0.00  0.00    -0.096 C 
ATOM     25  H   UNL     1      12.096   1.679  13.127  0.00  0.00    -0.082 HD
ATOM     26  C   UNL     1      10.688   3.292  13.086  0.00  0.00    -0.064 C 
ATOM     27  C   UNL     1       9.445   2.375  12.910  0.00  0.00    +0.066 C 
ENDBRANCH  19  20
ENDBRANCH  18  19
ENDBRANCH  14  15
ENDBRANCH  12  13
TORSDOF 6
ENDMDL
MODEL 2
REMARK VINA RESULT:      -7.6     29.612     34.508
REMARK  Name = C:\Users\Docking\Desktop\test protocol\1iep_ligandH.pdb
REMARK  8 active torsions:
REMARK  status: ('A' for Active; 'I' for Inactive)
REMARK    1  A    between atoms: _5  and  _11
REMARK    2  A    between atoms: _19  and  _21
REMARK    3  A    between atoms: _22  and  _66
REMARK    4  A    between atoms: _27  and  _30
REMARK    5  A    between atoms: _32  and  _33
REMARK    6  A    between atoms: _38  and  _43
REMARK    7  A    between atoms: _43  and  _46
REMARK    8  A    between atoms: _53  and  _55
REMARK                            x       y       z     vdW  Elec       q    Type
REMARK                         _______ _______ _______ _____ _____    ______ ____
ROOT
ATOM     10  C   UNL     1      41.453  10.309  12.396  0.00  0.00    +0.038 A 
ATOM     11  C   UNL     1      40.137  10.311  12.925  0.00  0.00    +0.047 A 
ATOM     12  C   UNL     1      39.722  11.300  13.908  0.00  0.00    +0.035 A 
ATOM     32  C   UNL     1      40.673  12.275  14.328  0.00  0.00    +0.024 A 
ATOM     33  C   UNL     1      42.016  12.287  13.802  0.00  0.00    +0.007 A 
ATOM     34  C   UNL     1      42.431  11.312  12.834  0.00  0.00    -0.029 A 
ATOM     35  C   UNL     1      43.885  11.368  12.309  0.00  0.00    +0.045 C 
ENDROOT
BRANCH  10   9
ATOM      4  C   UNL     1      41.755   5.745  10.943  0.00  0.00    +0.077 A 
ATOM      5  C   UNL     1      41.205   5.254  12.174  0.00  0.00    +0.048 A 
ATOM      6  C   UNL     1      40.865   6.209  13.159  0.00  0.00    +0.116 A 
ATOM      7  N   UNL     1      41.063   7.552  12.919  0.00  0.00    -0.223 NA
ATOM      8  C   UNL     1      41.597   7.991  11.721  0.00  0.00    +0.220 A 
ATOM      9  N   UNL     1      41.797   9.336  11.455  0.00  0.00    -0.283 N 
ATOM     36  H   UNL     1      42.200   9.619  10.562  0.00  0.00    +0.155 HD
ATOM     37  N   UNL     1      41.932   7.099  10.766  0.00  0.00    -0.214 NA
BRANCH   4   3
ATOM      1  C   UNL     1      42.932   2.655   8.852  0.00  0.00    +0.020 A 
ATOM      2  C   UNL     1      42.548   3.466   9.985  0.00  0.00    +0.013 A 
ATOM      3  C   UNL     1      42.161   4.860   9.806  0.00  0.00    +0.019 A 
ATOM     38  C   UNL     1      42.173   5.407   8.457  0.00  0.00    +0.120 A 
ATOM     39  N   UNL     1      42.548   4.602   7.386  0.00  0.00    -0.263 NA
ATOM     40  C   UNL     1      42.924   3.260   7.546  0.00  0.00    +0.111 A 
ENDBRANCH   4   3
ENDBRANCH  10   9
BRANCH  12  13
ATOM     13  N   UNL     1      38.402  11.347  14.486  0.00  0.00    -0.281 N 
ATOM     14  C   UNL     1      37.225  11.769  13.889  0.00  0.00    +0.248 C 
ATOM     30  O   UNL     1      37.167  12.376  12.830  0.00  0.00    -0.270 OA
ATOM     31  H   UNL     1      38.325  11.030  15.452  0.00  0.00    +0.155 HD
BRANCH  14  15
ATOM     15  C   UNL     1      35.927  11.491  14.575  0.00  0.00    +0.037 A 
ATOM     16  C   UNL     1      35.111  12.575  15.126  0.00  0.00    +0.013 A 
ATOM     17  C   UNL     1      33.871  12.277  15.798  0.00  0.00    +0.005 A 
ATOM     18  C   UNL     1      33.439  10.887  15.921  0.00  0.00    -0.033 A 
ATOM     28  C   UNL     1      34.265   9.831  15.361  0.00  0.00    +0.005 A 
ATOM     29  C   UNL     1      35.482  10.119  14.702  0.00  0.00    +0.013 A 
BRANCH  18  19
ATOM     19  C   UNL     1      32.141  10.475  16.641  0.00  0.00    +0.119 C 
BRANCH  19  20
ATOM     20  N   UNL     1      32.214   9.308  17.569  0.00  0.00    -0.302 NA
ATOM     21  C   UNL     1      30.828   8.865  18.046  0.00  0.00    +0.066 C 
ATOM     22  C   UNL     1      30.922   7.629  18.999  0.00  0.00    -0.064 C 
ATOM     23  N   UNL     1      31.821   7.972  20.188  0.00  0.00    +0.379 N 
ATOM     24  C   UNL     1      31.865   6.831  21.114  0.00  0.00    -0.096 C 
ATOM     25  H   UNL     1      31.355   8.828  20.728  0.00  0.00    -0.082 HD
ATOM     26  C   UNL     1      33.201   8.415  19.722  0.00  0.00    -0.064 C 
ATOM     27  C   UNL     1      33.094   9.626  18.753  0.00  0.00    +0.066 C 
ENDBRANCH  19  20
ENDBRANCH  18  19
ENDBRANCH  14  15
ENDBRANCH  12  13
TORSDOF 6
ENDMDL
MODEL 3
REMARK VINA RESULT:      -7.6     19.614     25.474
REMARK  Name = C:\Users\Docking\Desktop\test protocol\1iep_ligandH.pdb
REMARK  8 active torsions:
REMARK  status: ('A' for Active; 'I' for Inactive)
REMARK    1  A    between atoms: _5  and  _11
REMARK    2  A    between atoms: _19  and  _21
REMARK    3  A    between atoms: _22  and  _66
REMARK    4  A    between atoms: _27  and  _30
REMARK    5  A    between atoms: _32  and  _33
REMARK    6  A    between atoms: _38  and  _43
REMARK    7  A    between atoms: _43  and  _46
REMARK    8  A    between atoms: _53  and  _55
REMARK                            x       y       z     vdW  Elec       q    Type
REMARK                         _______ _______ _______ _____ _____    ______ ____
ROOT
ATOM     10  C   UNL     1      27.192  12.331  -5.031  0.00  0.00    +0.038 A 
ATOM     11  C   UNL     1      26.035  12.973  -5.540  0.00  0.00    +0.047 A 
ATOM     12  C   UNL     1      25.413  14.079  -4.828  0.00  0.00    +0.035 A 
ATOM     32  C   UNL     1      25.999  14.507  -3.601  0.00  0.00    +0.024 A 
ATOM     33  C   UNL     1      27.175  13.865  -3.069  0.00  0.00    +0.007 A 
ATOM     34  C   UNL     1      27.791  12.772  -3.765  0.00  0.00    -0.029 A 
ATOM     35  C   UNL     1      29.047  12.117  -3.145  0.00  0.00    +0.045 C 
ENDROOT
BRANCH  10   9
ATOM      4  C   UNL     1      30.237  10.582  -8.303  0.00  0.00    +0.077 A 
ATOM      5  C   UNL     1      30.746  11.887  -8.614  0.00  0.00    +0.048 A 
ATOM      6  C   UNL     1      30.192  12.983  -7.914  0.00  0.00    +0.116 A 
ATOM      7  N   UNL     1      29.204  12.777  -6.976  0.00  0.00    -0.223 NA
ATOM      8  C   UNL     1      28.735  11.505  -6.701  0.00  0.00    +0.220 A 
ATOM      9  N   UNL     1      27.748  11.274  -5.756  0.00  0.00    -0.283 N 
ATOM     36  H   UNL     1      27.423  10.322  -5.588  0.00  0.00    +0.155 HD
ATOM     37  N   UNL     1      29.247  10.443  -7.357  0.00  0.00    -0.214 NA
BRANCH   4   3
ATOM      1  C   UNL     1      32.411   7.476  -9.266  0.00  0.00    +0.020 A 
ATOM      2  C   UNL     1      31.988   8.690  -8.606  0.00  0.00    +0.013 A 
ATOM      3  C   UNL     1      30.724   9.325  -8.955  0.00  0.00    +0.019 A 
ATOM     38  C   UNL     1      29.904   8.702  -9.983  0.00  0.00    +0.120 A 
ATOM     39  N   UNL     1      30.338   7.534 -10.603  0.00  0.00    -0.263 NA
ATOM     40  C   UNL     1      31.554   6.914 -10.276  0.00  0.00    +0.111 A 
ENDBRANCH   4   3
ENDBRANCH  10   9
BRANCH  12  13
ATOM     13  N   UNL     1      24.232  14.764  -5.292  0.00  0.00    -0.281 N 
ATOM     14  C   UNL     1      23.049  14.208  -5.749  0.00  0.00    +0.248 C 
ATOM     30  O   UNL     1      22.903  13.028  -6.030  0.00  0.00    -0.270 OA
ATOM     31  H   UNL     1      24.274  15.784  -5.282  0.00  0.00    +0.155 HD
BRANCH  14  15
ATOM     15  C   UNL     1      21.859  15.093  -5.933  0.00  0.00    +0.037 A 
ATOM     16  C   UNL     1      20.937  15.368  -4.828  0.00  0.00    +0.013 A 
ATOM     17  C   UNL     1      19.788  16.212  -5.037  0.00  0.00    +0.005 A 
ATOM     18  C   UNL     1      19.553  16.788  -6.359  0.00  0.00    -0.033 A 
ATOM     28  C   UNL     1      20.486  16.503  -7.437  0.00  0.00    +0.005 A 
ATOM     29  C   UNL     1      21.614  15.675  -7.236  0.00  0.00    +0.013 A 
BRANCH  18  19
ATOM     19  C   UNL     1      18.341  17.682  -6.679  0.00  0.00    +0.119 C 
BRANCH  19  20
ATOM     20  N   UNL     1      17.043  17.331  -6.030  0.00  0.00    -0.302 NA
ATOM     21  C   UNL     1      16.144  16.503  -6.953  0.00  0.00    +0.066 C 
ATOM     22  C   UNL     1      14.800  16.125  -6.250  0.00  0.00    -0.064 C 
ATOM     23  N   UNL     1      14.086  17.402  -5.803  0.00  0.00    +0.379 N 
ATOM     24  C   UNL     1      12.794  17.054  -5.193  0.00  0.00    -0.096 C 
ATOM     25  H   UNL     1      13.877  18.010  -6.714  0.00  0.00    -0.082 HD
ATOM     26  C   UNL     1      14.973  18.234  -4.887  0.00  0.00    -0.064 C 
ATOM     27  C   UNL     1      16.318  18.578  -5.584  0.00  0.00    +0.066 C 
ENDBRANCH  19  20
ENDBRANCH  18  19
ENDBRANCH  14  15
ENDBRANCH  12  13
TORSDOF 6
ENDMDL
MODEL 4
REMARK VINA RESULT:      -7.4     27.155     31.064
REMARK  Name = C:\Users\Docking\Desktop\test protocol\1iep_ligandH.pdb
REMARK  8 active torsions:
REMARK  status: ('A' for Active; 'I' for Inactive)
REMARK    1  A    between atoms: _5  and  _11
REMARK    2  A    between atoms: _19  and  _21
REMARK    3  A    between atoms: _22  and  _66
REMARK    4  A    between atoms: _27  and  _30
REMARK    5  A    between atoms: _32  and  _33
REMARK    6  A    between atoms: _38  and  _43
REMARK    7  A    between atoms: _43  and  _46
REMARK    8  A    between atoms: _53  and  _55
REMARK                            x       y       z     vdW  Elec       q    Type
REMARK                         _______ _______ _______ _____ _____    ______ ____
ROOT
ATOM     10  C   UNL     1      35.604  12.249  14.138  0.00  0.00    +0.038 A 
ATOM     11  C   UNL     1      34.796  11.697  15.165  0.00  0.00    +0.047 A 
ATOM     12  C   UNL     1      35.310  10.670  16.057  0.00  0.00    +0.035 A 
ATOM     32  C   UNL     1      36.654  10.229  15.876  0.00  0.00    +0.024 A 
ATOM     33  C   UNL     1      37.488  10.778  14.836  0.00  0.00    +0.007 A 
ATOM     34  C   UNL     1      36.985  11.790  13.952  0.00  0.00    -0.029 A 
ATOM     35  C   UNL     1      37.923  12.339  12.851  0.00  0.00    +0.045 C 
ENDROOT
BRANCH  10   9
ATOM      4  C   UNL     1      34.713  16.835  13.035  0.00  0.00    +0.077 A 
ATOM      5  C   UNL     1      35.365  17.309  14.222  0.00  0.00    +0.048 A 
ATOM      6  C   UNL     1      35.910  16.339  15.093  0.00  0.00    +0.116 A 
ATOM      7  N   UNL     1      35.806  14.999  14.791  0.00  0.00    -0.223 NA
ATOM      8  C   UNL     1      35.168  14.576  13.639  0.00  0.00    +0.220 A 
ATOM      9  N   UNL     1      35.058  13.233  13.310  0.00  0.00    -0.283 N 
ATOM     36  H   UNL     1      34.574  12.962  12.455  0.00  0.00    +0.155 HD
ATOM     37  N   UNL     1      34.638  15.482  12.791  0.00  0.00    -0.214 NA
BRANCH   4   3
ATOM      1  C   UNL     1      33.796  18.574   9.654  0.00  0.00    +0.020 A 
ATOM      2  C   UNL     1      34.427  17.681  10.598  0.00  0.00    +0.013 A 
ATOM      3  C   UNL     1      34.090  17.736  12.015  0.00  0.00    +0.019 A 
ATOM     38  C   UNL     1      33.101  18.713  12.447  0.00  0.00    +0.120 A 
ATOM     39  N   UNL     1      32.511  19.561  11.515  0.00  0.00    -0.263 NA
ATOM     40  C   UNL     1      32.829  19.518  10.149  0.00  0.00    +0.111 A 
ENDBRANCH   4   3
ENDBRANCH  10   9
BRANCH  12  13
ATOM     13  N   UNL     1      34.535  10.067  17.112  0.00  0.00    -0.281 N 
ATOM     14  C   UNL     1      33.224   9.622  17.058  0.00  0.00    +0.248 C 
ATOM     30  O   UNL     1      32.446   9.872  16.149  0.00  0.00    -0.270 OA
ATOM     31  H   UNL     1      35.010   9.954  18.008  0.00  0.00    +0.155 HD
BRANCH  14  15
ATOM     15  C   UNL     1      32.696   8.792  18.183  0.00  0.00    +0.037 A 
ATOM     16  C   UNL     1      33.231   8.924  19.541  0.00  0.00    +0.013 A 
ATOM     17  C   UNL     1      32.715   8.099  20.604  0.00  0.00    +0.005 A 
ATOM     18  C   UNL     1      31.657   7.135  20.314  0.00  0.00    -0.033 A 
ATOM     28  C   UNL     1      31.141   7.029  18.959  0.00  0.00    +0.005 A 
ATOM     29  C   UNL     1      31.644   7.835  17.914  0.00  0.00    +0.013 A 
BRANCH  18  19
ATOM     19  C   UNL     1      31.062   6.199  21.383  0.00  0.00    +0.119 C 
BRANCH  19  20
ATOM     20  N   UNL     1      29.636   5.787  21.214  0.00  0.00    -0.302 NA
ATOM     21  C   UNL     1      28.669   6.943  21.484  0.00  0.00    +0.066 C 
ATOM     22  C   UNL     1      27.183   6.501  21.281  0.00  0.00    -0.064 C 
ATOM     23  N   UNL     1      26.877   5.314  22.197  0.00  0.00    +0.379 N 
ATOM     24  C   UNL     1      25.465   4.933  22.051  0.00  0.00    -0.096 C 
ATOM     25  H   UNL     1      27.030   5.650  23.248  0.00  0.00    -0.082 HD
ATOM     26  C   UNL     1      27.837   4.161  21.937  0.00  0.00    -0.064 C 
ATOM     27  C   UNL     1      29.311   4.619  22.112  0.00  0.00    +0.066 C 
ENDBRANCH  19  20
ENDBRANCH  18  19
ENDBRANCH  14  15
ENDBRANCH  12  13
TORSDOF 6
ENDMDL
MODEL 5
REMARK VINA RESULT:      -7.3     27.955     34.631
REMARK  Name = C:\Users\Docking\Desktop\test protocol\1iep_ligandH.pdb
REMARK  8 active torsions:
REMARK  status: ('A' for Active; 'I' for Inactive)
REMARK    1  A    between atoms: _5  and  _11
REMARK    2  A    between atoms: _19  and  _21
REMARK    3  A    between atoms: _22  and  _66
REMARK    4  A    between atoms: _27  and  _30
REMARK    5  A    between atoms: _32  and  _33
REMARK    6  A    between atoms: _38  and  _43
REMARK    7  A    between atoms: _43  and  _46
REMARK    8  A    between atoms: _53  and  _55
REMARK                            x       y       z     vdW  Elec       q    Type
REMARK                         _______ _______ _______ _____ _____    ______ ____
ROOT
ATOM     10  C   UNL     1      35.583  12.681  13.968  0.00  0.00    +0.038 A 
ATOM     11  C   UNL     1      36.556  11.661  13.813  0.00  0.00    +0.047 A 
ATOM     12  C   UNL     1      37.916  11.974  13.402  0.00  0.00    +0.035 A 
ATOM     32  C   UNL     1      38.250  13.338  13.160  0.00  0.00    +0.024 A 
ATOM     33  C   UNL     1      37.273  14.387  13.311  0.00  0.00    +0.007 A 
ATOM     34  C   UNL     1      35.930  14.084  13.713  0.00  0.00    -0.029 A 
ATOM     35  C   UNL     1      34.922  15.248  13.853  0.00  0.00    +0.045 C 
ENDROOT
BRANCH  10   9
ATOM      4  C   UNL     1      32.335  11.603  17.334  0.00  0.00    +0.077 A 
ATOM      5  C   UNL     1      33.298  11.738  18.390  0.00  0.00    +0.048 A 
ATOM      6  C   UNL     1      34.619  12.079  18.023  0.00  0.00    +0.116 A 
ATOM      7  N   UNL     1      34.943  12.268  16.697  0.00  0.00    -0.223 NA
ATOM      8  C   UNL     1      33.991  12.129  15.704  0.00  0.00    +0.220 A 
ATOM      9  N   UNL     1      34.292  12.323  14.365  0.00  0.00    -0.283 N 
ATOM     36  H   UNL     1      33.563  12.203  13.661  0.00  0.00    +0.155 HD
ATOM     37  N   UNL     1      32.722  11.803  16.028  0.00  0.00    -0.214 NA
BRANCH   4   3
ATOM      1  C   UNL     1      28.425  11.669  17.299  0.00  0.00    +0.020 A 
ATOM      2  C   UNL     1      29.795  12.054  17.052  0.00  0.00    +0.013 A 
ATOM      3  C   UNL     1      30.898  11.250  17.562  0.00  0.00    +0.019 A 
ATOM     38  C   UNL     1      30.578  10.053  18.324  0.00  0.00    +0.120 A 
ATOM     39  N   UNL     1      29.249   9.708  18.548  0.00  0.00    -0.263 NA
ATOM     40  C   UNL     1      28.179  10.475  18.064  0.00  0.00    +0.111 A 
ENDBRANCH   4   3
ENDBRANCH  10   9
BRANCH  12  13
ATOM     13  N   UNL     1      38.944  10.980  13.221  0.00  0.00    -0.281 N 
ATOM     14  C   UNL     1      39.717  10.367  14.194  0.00  0.00    +0.248 C 
ATOM     30  O   UNL     1      39.788  10.738  15.356  0.00  0.00    -0.270 OA
ATOM     31  H   UNL     1      39.125  10.694  12.259  0.00  0.00    +0.155 HD
BRANCH  14  15
ATOM     15  C   UNL     1      40.540   9.178  13.818  0.00  0.00    +0.037 A 
ATOM     16  C   UNL     1      40.839   8.122  14.790  0.00  0.00    +0.013 A 
ATOM     17  C   UNL     1      41.650   6.994  14.406  0.00  0.00    +0.005 A 
ATOM     18  C   UNL     1      42.168   6.915  13.043  0.00  0.00    -0.033 A 
ATOM     28  C   UNL     1      41.852   7.974  12.098  0.00  0.00    +0.005 A 
ATOM     29  C   UNL     1      41.058   9.081  12.470  0.00  0.00    +0.013 A 
BRANCH  18  19
ATOM     19  C   UNL     1      43.059   5.759  12.552  0.00  0.00    +0.119 C 
BRANCH  19  20
ATOM     20  N   UNL     1      43.056   5.467  11.087  0.00  0.00    -0.302 NA
ATOM     21  C   UNL     1      42.670   4.015  10.792  0.00  0.00    +0.066 C 
ATOM     22  C   UNL     1      42.649   3.733   9.254  0.00  0.00    -0.064 C 
ATOM     23  N   UNL     1      44.020   4.061   8.660  0.00  0.00    +0.379 N 
ATOM     24  C   UNL     1      44.022   3.742   7.225  0.00  0.00    -0.096 C 
ATOM     25  H   UNL     1      44.769   3.400   9.155  0.00  0.00    -0.082 HD
ATOM     26  C   UNL     1      44.413   5.502   8.952  0.00  0.00    -0.064 C 
ATOM     27  C   UNL     1      44.402   5.780  10.481  0.00  0.00    +0.066 C 
ENDBRANCH  19  20
ENDBRANCH  18  19
ENDBRANCH  14  15
ENDBRANCH  12  13
TORSDOF 6
ENDMDL
