MODEL 1
REMARK VINA RESULT:      -8.8      0.000      0.000
REMARK  Name = C:\Users\Docking\Desktop\test protocol\1iep_ligandH.pdb
REMARK  8 active torsions:
REMARK  status: ('A' for Active; 'I' for Inactive)
REMARK    1  A    between atoms: _5  and  _11
REMARK    2  A    between atoms: _19  and  _21
REMARK    3  A    between atoms: _22  and  _66
REMARK    4  A    between atoms: _27  and  _30
REMARK    5  A    between atoms: _32  and  _33
REMARK    6  A    between atoms: _38  and  _43
REMARK    7  A    between atoms: _43  and  _46
REMARK    8  A    between atoms: _53  and  _55
REMARK                            x       y       z     vdW  Elec       q    Type
REMARK                         _______ _______ _______ _____ _____    ______ ____
ROOT
ATOM     10  C   UNL     1    -109.788  -0.359 -86.256  0.00  0.00    +0.038 A 
ATOM     11  C   UNL     1    -109.483  -1.119 -87.414  0.00  0.00    +0.047 A 
ATOM     12  C   UNL     1    -109.442  -0.502 -88.730  0.00  0.00    +0.035 A 
ATOM     32  C   UNL     1    -109.714   0.894 -88.830  0.00  0.00    +0.024 A 
ATOM     33  C   UNL     1    -110.026   1.682 -87.664  0.00  0.00    +0.007 A 
ATOM     34  C   UNL     1    -110.070   1.077 -86.363  0.00  0.00    -0.029 A 
ATOM     35  C   UNL     1    -110.417   1.969 -85.148  0.00  0.00    +0.045 C 
ENDROOT
BRANCH  10   9
ATOM      4  C   UNL     1    -112.060  -2.783 -82.792  0.00  0.00    +0.077 A 
ATOM      5  C   UNL     1    -113.308  -2.739 -83.498  0.00  0.00    +0.048 A 
ATOM      6  C   UNL     1    -113.324  -2.077 -84.746  0.00  0.00    +0.116 A 
ATOM      7  N   UNL     1    -112.172  -1.505 -85.242  0.00  0.00    -0.223 NA
ATOM      8  C   UNL     1    -110.986  -1.564 -84.534  0.00  0.00    +0.220 A 
ATOM      9  N   UNL     1    -109.813  -1.003 -85.017  0.00  0.00    -0.283 N 
ATOM     36  H   UNL     1    -108.960  -1.062 -84.461  0.00  0.00    +0.155 HD
ATOM     37  N   UNL     1    -110.944  -2.190 -83.339  0.00  0.00    -0.214 NA
BRANCH   4   3
ATOM      1  C   UNL     1    -110.748  -3.704 -79.224  0.00  0.00    +0.020 A 
ATOM      2  C   UNL     1    -110.879  -3.027 -80.493  0.00  0.00    +0.013 A 
ATOM      3  C   UNL     1    -111.882  -3.450 -81.463  0.00  0.00    +0.019 A 
ATOM     38  C   UNL     1    -112.744  -4.569 -81.115  0.00  0.00    +0.120 A 
ATOM     39  N   UNL     1    -112.594  -5.203 -79.885  0.00  0.00    -0.263 NA
ATOM     40  C   UNL     1    -111.631  -4.806 -78.944  0.00  0.00    +0.111 A 
ENDBRANCH   4   3
ENDBRANCH  10   9
BRANCH  12  13
ATOM     13  N   UNL     1    -109.147  -1.224 -89.943  0.00  0.00    -0.281 N 
ATOM     14  C   UNL     1    -109.954  -2.131 -90.611  0.00  0.00    +0.248 C 
ATOM     30  O   UNL     1    -110.973  -2.621 -90.149  0.00  0.00    -0.270 OA
ATOM     31  H   UNL     1    -108.233  -1.046 -90.358  0.00  0.00    +0.155 HD
BRANCH  14  15
ATOM     15  C   UNL     1    -109.563  -2.566 -91.987  0.00  0.00    +0.037 A 
ATOM     16  C   UNL     1    -110.254  -2.052 -93.172  0.00  0.00    +0.013 A 
ATOM     17  C   UNL     1    -109.869  -2.502 -94.486  0.00  0.00    +0.005 A 
ATOM     18  C   UNL     1    -108.785  -3.472 -94.622  0.00  0.00    -0.033 A 
ATOM     28  C   UNL     1    -108.113  -3.962 -93.430  0.00  0.00    +0.005 A 
ATOM     29  C   UNL     1    -108.489  -3.524 -92.140  0.00  0.00    +0.013 A 
BRANCH  18  19
ATOM     19  C   UNL     1    -108.322  -4.023 -95.983  0.00  0.00    +0.119 C 
BRANCH  19  20
ATOM     20  N   UNL     1    -109.314  -4.010 -97.100  0.00  0.00    -0.302 NA
ATOM     21  C   UNL     1    -109.359  -5.347 -97.844  0.00  0.00    +0.066 C 
ATOM     22  C   UNL     1    -110.418  -5.323 -98.994  0.00  0.00    -0.064 C 
ATOM     23  N   UNL     1    -110.095  -4.179 -99.956  0.00  0.00    +0.379 N 
ATOM     24  C   UNL     1    -111.054  -4.189-101.070  0.00  0.00    -0.096 C 
ATOM     25  H   UNL     1    -109.082  -4.370-100.380  0.00  0.00    -0.082 HD
ATOM     26  C   UNL     1    -110.045  -2.845 -99.224  0.00  0.00    -0.064 C 
ATOM     27  C   UNL     1    -109.011  -2.890 -98.065  0.00  0.00    +0.066 C 
ENDBRANCH  19  20
ENDBRANCH  18  19
ENDBRANCH  14  15
ENDBRANCH  12  13
TORSDOF 6
ENDMDL
MODEL 2
REMARK VINA RESULT:      -8.8      3.799     13.277
REMARK  Name = C:\Users\Docking\Desktop\test protocol\1iep_ligandH.pdb
REMARK  8 active torsions:
REMARK  status: ('A' for Active; 'I' for Inactive)
REMARK    1  A    between atoms: _5  and  _11
REMARK    2  A    between atoms: _19  and  _21
REMARK    3  A    between atoms: _22  and  _66
REMARK    4  A    between atoms: _27  and  _30
REMARK    5  A    between atoms: _32  and  _33
REMARK    6  A    between atoms: _38  and  _43
REMARK    7  A    between atoms: _43  and  _46
REMARK    8  A    between atoms: _53  and  _55
REMARK                            x       y       z     vdW  Elec       q    Type
REMARK                         _______ _______ _______ _____ _____    ______ ____
ROOT
ATOM     10  C   UNL     1    -111.129  -4.775 -96.446  0.00  0.00    +0.038 A 
ATOM     11  C   UNL     1    -111.217  -4.336 -95.100  0.00  0.00    +0.047 A 
ATOM     12  C   UNL     1    -110.097  -3.675 -94.449  0.00  0.00    +0.035 A 
ATOM     32  C   UNL     1    -108.901  -3.476 -95.200  0.00  0.00    +0.024 A 
ATOM     33  C   UNL     1    -108.794  -3.917 -96.568  0.00  0.00    +0.007 A 
ATOM     34  C   UNL     1    -109.895  -4.571 -97.215  0.00  0.00    -0.029 A 
ATOM     35  C   UNL     1    -109.722  -5.029 -98.682  0.00  0.00    +0.045 C 
ENDROOT
BRANCH  10   9
ATOM      4  C   UNL     1    -113.643  -8.697 -97.601  0.00  0.00    +0.077 A 
ATOM      5  C   UNL     1    -112.655  -9.570 -97.034  0.00  0.00    +0.048 A 
ATOM      6  C   UNL     1    -111.511  -8.969 -96.462  0.00  0.00    +0.116 A 
ATOM      7  N   UNL     1    -111.376  -7.598 -96.461  0.00  0.00    -0.223 NA
ATOM      8  C   UNL     1    -112.347  -6.786 -97.018  0.00  0.00    +0.220 A 
ATOM      9  N   UNL     1    -112.236  -5.404 -97.021  0.00  0.00    -0.283 N 
ATOM     36  H   UNL     1    -112.970  -4.840 -97.448  0.00  0.00    +0.155 HD
ATOM     37  N   UNL     1    -113.448  -7.335 -97.572  0.00  0.00    -0.214 NA
BRANCH   4   3
ATOM      1  C   UNL     1    -116.941 -10.672 -98.327  0.00  0.00    +0.020 A 
ATOM      2  C   UNL     1    -115.727 -10.242 -97.670  0.00  0.00    +0.013 A 
ATOM      3  C   UNL     1    -114.907  -9.181 -98.240  0.00  0.00    +0.019 A 
ATOM     38  C   UNL     1    -115.347  -8.569 -99.485  0.00  0.00    +0.120 A 
ATOM     39  N   UNL     1    -116.519  -9.004-100.096  0.00  0.00    -0.263 NA
ATOM     40  C   UNL     1    -117.315 -10.026 -99.557  0.00  0.00    +0.111 A 
ENDBRANCH   4   3
ENDBRANCH  10   9
BRANCH  12  13
ATOM     13  N   UNL     1    -110.125  -3.215 -93.083  0.00  0.00    -0.281 N 
ATOM     14  C   UNL     1    -109.090  -3.215 -92.163  0.00  0.00    +0.248 C 
ATOM     30  O   UNL     1    -108.034  -3.812 -92.311  0.00  0.00    -0.270 OA
ATOM     31  H   UNL     1    -111.017  -2.844 -92.755  0.00  0.00    +0.155 HD
BRANCH  14  15
ATOM     15  C   UNL     1    -109.257  -2.454 -90.887  0.00  0.00    +0.037 A 
ATOM     16  C   UNL     1    -110.578  -2.007 -90.437  0.00  0.00    +0.013 A 
ATOM     17  C   UNL     1    -110.709  -1.260 -89.211  0.00  0.00    +0.005 A 
ATOM     18  C   UNL     1    -109.516  -0.957 -88.426  0.00  0.00    -0.033 A 
ATOM     28  C   UNL     1    -108.218  -1.417 -88.893  0.00  0.00    +0.005 A 
ATOM     29  C   UNL     1    -108.086  -2.149 -90.094  0.00  0.00    +0.013 A 
BRANCH  18  19
ATOM     19  C   UNL     1    -109.559  -0.147 -87.116  0.00  0.00    +0.119 C 
BRANCH  19  20
ATOM     20  N   UNL     1    -110.327  -0.731 -85.977  0.00  0.00    -0.302 NA
ATOM     21  C   UNL     1    -110.281   0.163 -84.734  0.00  0.00    +0.066 C 
ATOM     22  C   UNL     1    -111.108  -0.452 -83.559  0.00  0.00    -0.064 C 
ATOM     23  N   UNL     1    -110.573  -1.850 -83.240  0.00  0.00    +0.379 N 
ATOM     24  C   UNL     1    -111.311  -2.408 -82.097  0.00  0.00    -0.096 C 
ATOM     25  H   UNL     1    -109.507  -1.742 -82.935  0.00  0.00    -0.082 HD
ATOM     26  C   UNL     1    -110.613  -2.745 -84.471  0.00  0.00    -0.064 C 
ATOM     27  C   UNL     1    -109.813  -2.110 -85.642  0.00  0.00    +0.066 C 
ENDBRANCH  19  20
ENDBRANCH  18  19
ENDBRANCH  14  15
ENDBRANCH  12  13
TORSDOF 6
ENDMDL
MODEL 3
REMARK VINA RESULT:      -8.6      1.204      1.767
REMARK  Name = C:\Users\Docking\Desktop\test protocol\1iep_ligandH.pdb
REMARK  8 active torsions:
REMARK  status: ('A' for Active; 'I' for Inactive)
REMARK    1  A    between atoms: _5  and  _11
REMARK    2  A    between atoms: _19  and  _21
REMARK    3  A    between atoms: _22  and  _66
REMARK    4  A    between atoms: _27  and  _30
REMARK    5  A    between atoms: _32  and  _33
REMARK    6  A    between atoms: _38  and  _43
REMARK    7  A    between atoms: _43  and  _46
REMARK    8  A    between atoms: _53  and  _55
REMARK                            x       y       z     vdW  Elec       q    Type
REMARK                         _______ _______ _______ _____ _____    ______ ____
ROOT
ATOM     10  C   UNL     1    -109.770  -0.087 -86.579  0.00  0.00    +0.038 A 
ATOM     11  C   UNL     1    -109.480  -0.842 -87.744  0.00  0.00    +0.047 A 
ATOM     12  C   UNL     1    -109.495  -0.227 -89.062  0.00  0.00    +0.035 A 
ATOM     32  C   UNL     1    -109.807   1.160 -89.157  0.00  0.00    +0.024 A 
ATOM     33  C   UNL     1    -110.105   1.943 -87.983  0.00  0.00    +0.007 A 
ATOM     34  C   UNL     1    -110.094   1.341 -86.681  0.00  0.00    -0.029 A 
ATOM     35  C   UNL     1    -110.428   2.227 -85.457  0.00  0.00    +0.045 C 
ENDROOT
BRANCH  10   9
ATOM      4  C   UNL     1    -111.874  -2.550 -83.037  0.00  0.00    +0.077 A 
ATOM      5  C   UNL     1    -113.145  -2.535 -83.702  0.00  0.00    +0.048 A 
ATOM      6  C   UNL     1    -113.217  -1.877 -84.950  0.00  0.00    +0.116 A 
ATOM      7  N   UNL     1    -112.094  -1.282 -85.485  0.00  0.00    -0.223 NA
ATOM      8  C   UNL     1    -110.884  -1.313 -84.816  0.00  0.00    +0.220 A 
ATOM      9  N   UNL     1    -109.741  -0.728 -85.339  0.00  0.00    -0.283 N 
ATOM     36  H   UNL     1    -108.869  -0.767 -84.811  0.00  0.00    +0.155 HD
ATOM     37  N   UNL     1    -110.790  -1.934 -83.622  0.00  0.00    -0.214 NA
BRANCH   4   3
ATOM      1  C   UNL     1    -111.628  -5.214 -80.184  0.00  0.00    +0.020 A 
ATOM      2  C   UNL     1    -111.873  -4.628 -81.482  0.00  0.00    +0.013 A 
ATOM      3  C   UNL     1    -111.638  -3.208 -81.714  0.00  0.00    +0.019 A 
ATOM     38  C   UNL     1    -111.150  -2.404 -80.603  0.00  0.00    +0.120 A 
ATOM     39  N   UNL     1    -110.925  -2.996 -79.364  0.00  0.00    -0.263 NA
ATOM     40  C   UNL     1    -111.150  -4.361 -79.129  0.00  0.00    +0.111 A 
ENDBRANCH   4   3
ENDBRANCH  10   9
BRANCH  12  13
ATOM     13  N   UNL     1    -109.217  -0.945 -90.281  0.00  0.00    -0.281 N 
ATOM     14  C   UNL     1    -109.757  -2.149 -90.703  0.00  0.00    +0.248 C 
ATOM     30  O   UNL     1    -110.407  -2.902 -89.992  0.00  0.00    -0.270 OA
ATOM     31  H   UNL     1    -108.539  -0.513 -90.910  0.00  0.00    +0.155 HD
BRANCH  14  15
ATOM     15  C   UNL     1    -109.532  -2.587 -92.114  0.00  0.00    +0.037 A 
ATOM     16  C   UNL     1    -108.510  -3.583 -92.446  0.00  0.00    +0.013 A 
ATOM     17  C   UNL     1    -108.301  -3.976 -93.818  0.00  0.00    +0.005 A 
ATOM     18  C   UNL     1    -109.118  -3.372 -94.868  0.00  0.00    -0.033 A 
ATOM     28  C   UNL     1    -110.128  -2.390 -94.509  0.00  0.00    +0.005 A 
ATOM     29  C   UNL     1    -110.335  -2.002 -93.166  0.00  0.00    +0.013 A 
BRANCH  18  19
ATOM     19  C   UNL     1    -108.950  -3.715 -96.360  0.00  0.00    +0.119 C 
BRANCH  19  20
ATOM     20  N   UNL     1    -110.110  -4.356 -97.049  0.00  0.00    -0.302 NA
ATOM     21  C   UNL     1    -110.955  -5.197 -96.088  0.00  0.00    +0.066 C 
ATOM     22  C   UNL     1    -112.177  -5.842 -96.820  0.00  0.00    -0.064 C 
ATOM     23  N   UNL     1    -111.676  -6.694 -97.988  0.00  0.00    +0.379 N 
ATOM     24  C   UNL     1    -112.817  -7.348 -98.643  0.00  0.00    -0.096 C 
ATOM     25  H   UNL     1    -111.023  -7.494 -97.567  0.00  0.00    -0.082 HD
ATOM     26  C   UNL     1    -110.831  -5.866 -98.947  0.00  0.00    -0.064 C 
ATOM     27  C   UNL     1    -109.637  -5.206 -98.203  0.00  0.00    +0.066 C 
ENDBRANCH  19  20
ENDBRANCH  18  19
ENDBRANCH  14  15
ENDBRANCH  12  13
TORSDOF 6
ENDMDL
MODEL 4
REMARK VINA RESULT:      -8.3      1.499      2.111
REMARK  Name = C:\Users\Docking\Desktop\test protocol\1iep_ligandH.pdb
REMARK  8 active torsions:
REMARK  status: ('A' for Active; 'I' for Inactive)
REMARK    1  A    between atoms: _5  and  _11
REMARK    2  A    between atoms: _19  and  _21
REMARK    3  A    between atoms: _22  and  _66
REMARK    4  A    between atoms: _27  and  _30
REMARK    5  A    between atoms: _32  and  _33
REMARK    6  A    between atoms: _38  and  _43
REMARK    7  A    between atoms: _43  and  _46
REMARK    8  A    between atoms: _53  and  _55
REMARK                            x       y       z     vdW  Elec       q    Type
REMARK                         _______ _______ _______ _____ _____    ______ ____
ROOT
ATOM     10  C   UNL     1    -110.461  -0.744 -85.030  0.00  0.00    +0.038 A 
ATOM     11  C   UNL     1    -110.445  -1.382 -86.296  0.00  0.00    +0.047 A 
ATOM     12  C   UNL     1    -110.384  -0.611 -87.528  0.00  0.00    +0.035 A 
ATOM     32  C   UNL     1    -110.338   0.811 -87.433  0.00  0.00    +0.024 A 
ATOM     33  C   UNL     1    -110.356   1.477 -86.154  0.00  0.00    +0.007 A 
ATOM     34  C   UNL     1    -110.418   0.721 -84.936  0.00  0.00    -0.029 A 
ATOM     35  C   UNL     1    -110.441   1.488 -83.593  0.00  0.00    +0.045 C 
ENDROOT
BRANCH  10   9
ATOM      4  C   UNL     1    -112.873  -3.380 -81.825  0.00  0.00    +0.077 A 
ATOM      5  C   UNL     1    -114.125  -3.141 -82.483  0.00  0.00    +0.048 A 
ATOM      6  C   UNL     1    -114.107  -2.328 -83.639  0.00  0.00    +0.116 A 
ATOM      7  N   UNL     1    -112.918  -1.800 -84.094  0.00  0.00    -0.223 NA
ATOM      8  C   UNL     1    -111.728  -2.048 -83.435  0.00  0.00    +0.220 A 
ATOM      9  N   UNL     1    -110.520  -1.534 -83.880  0.00  0.00    -0.283 N 
ATOM     36  H   UNL     1    -109.665  -1.734 -83.362  0.00  0.00    +0.155 HD
ATOM     37  N   UNL     1    -111.720  -2.820 -82.328  0.00  0.00    -0.214 NA
BRANCH   4   3
ATOM      1  C   UNL     1    -111.544  -5.955 -79.197  0.00  0.00    +0.020 A 
ATOM      2  C   UNL     1    -111.638  -5.168 -80.405  0.00  0.00    +0.013 A 
ATOM      3  C   UNL     1    -112.729  -4.220 -80.595  0.00  0.00    +0.019 A 
ATOM     38  C   UNL     1    -113.717  -4.092 -79.534  0.00  0.00    +0.120 A 
ATOM     39  N   UNL     1    -113.602  -4.864 -78.382  0.00  0.00    -0.263 NA
ATOM     40  C   UNL     1    -112.557  -5.781 -78.190  0.00  0.00    +0.111 A 
ENDBRANCH   4   3
ENDBRANCH  10   9
BRANCH  12  13
ATOM     13  N   UNL     1    -110.372  -1.204 -88.842  0.00  0.00    -0.281 N 
ATOM     14  C   UNL     1    -109.533  -2.196 -89.322  0.00  0.00    +0.248 C 
ATOM     30  O   UNL     1    -108.519  -2.576 -88.756  0.00  0.00    -0.270 OA
ATOM     31  H   UNL     1    -111.068  -0.849 -89.499  0.00  0.00    +0.155 HD
BRANCH  14  15
ATOM     15  C   UNL     1    -109.859  -2.850 -90.625  0.00  0.00    +0.037 A 
ATOM     16  C   UNL     1    -108.812  -3.165 -91.601  0.00  0.00    +0.013 A 
ATOM     17  C   UNL     1    -109.156  -3.781 -92.858  0.00  0.00    +0.005 A 
ATOM     18  C   UNL     1    -110.555  -4.088 -93.145  0.00  0.00    -0.033 A 
ATOM     28  C   UNL     1    -111.573  -3.770 -92.158  0.00  0.00    +0.005 A 
ATOM     29  C   UNL     1    -111.240  -3.165 -90.925  0.00  0.00    +0.013 A 
BRANCH  18  19
ATOM     19  C   UNL     1    -111.017  -4.725 -94.469  0.00  0.00    +0.119 C 
BRANCH  19  20
ATOM     20  N   UNL     1    -110.348  -4.261 -95.721  0.00  0.00    -0.302 NA
ATOM     21  C   UNL     1    -110.713  -2.814 -96.065  0.00  0.00    +0.066 C 
ATOM     22  C   UNL     1    -109.987  -2.337 -97.365  0.00  0.00    -0.064 C 
ATOM     23  N   UNL     1    -110.346  -3.274 -98.519  0.00  0.00    +0.379 N 
ATOM     24  C   UNL     1    -109.711  -2.795 -99.755  0.00  0.00    -0.096 C 
ATOM     25  H   UNL     1    -111.450  -3.225 -98.664  0.00  0.00    -0.082 HD
ATOM     26  C   UNL     1    -109.989  -4.716 -98.185  0.00  0.00    -0.064 C 
ATOM     27  C   UNL     1    -110.692  -5.170 -96.875  0.00  0.00    +0.066 C 
ENDBRANCH  19  20
ENDBRANCH  18  19
ENDBRANCH  14  15
ENDBRANCH  12  13
TORSDOF 6
ENDMDL
MODEL 5
REMARK VINA RESULT:      -8.2      1.089      1.657
REMARK  Name = C:\Users\Docking\Desktop\test protocol\1iep_ligandH.pdb
REMARK  8 active torsions:
REMARK  status: ('A' for Active; 'I' for Inactive)
REMARK    1  A    between atoms: _5  and  _11
REMARK    2  A    between atoms: _19  and  _21
REMARK    3  A    between atoms: _22  and  _66
REMARK    4  A    between atoms: _27  and  _30
REMARK    5  A    between atoms: _32  and  _33
REMARK    6  A    between atoms: _38  and  _43
REMARK    7  A    between atoms: _43  and  _46
REMARK    8  A    between atoms: _53  and  _55
REMARK                            x       y       z     vdW  Elec       q    Type
REMARK                         _______ _______ _______ _____ _____    ______ ____
ROOT
ATOM     10  C   UNL     1    -109.832  -0.135 -86.540  0.00  0.00    +0.038 A 
ATOM     11  C   UNL     1    -109.578  -0.894 -87.710  0.00  0.00    +0.047 A 
ATOM     12  C   UNL     1    -109.593  -0.276 -89.027  0.00  0.00    +0.035 A 
ATOM     32  C   UNL     1    -109.867   1.120 -89.114  0.00  0.00    +0.024 A 
ATOM     33  C   UNL     1    -110.128   1.907 -87.935  0.00  0.00    +0.007 A 
ATOM     34  C   UNL     1    -110.117   1.302 -86.634  0.00  0.00    -0.029 A 
ATOM     35  C   UNL     1    -110.410   2.194 -85.405  0.00  0.00    +0.045 C 
ENDROOT
BRANCH  10   9
ATOM      4  C   UNL     1    -111.938  -2.622 -83.017  0.00  0.00    +0.077 A 
ATOM      5  C   UNL     1    -113.206  -2.613 -83.688  0.00  0.00    +0.048 A 
ATOM      6  C   UNL     1    -113.275  -1.951 -84.935  0.00  0.00    +0.116 A 
ATOM      7  N   UNL     1    -112.154  -1.348 -85.461  0.00  0.00    -0.223 NA
ATOM      8  C   UNL     1    -110.947  -1.373 -84.787  0.00  0.00    +0.220 A 
ATOM      9  N   UNL     1    -109.805  -0.780 -85.301  0.00  0.00    -0.283 N 
ATOM     36  H   UNL     1    -108.936  -0.814 -84.770  0.00  0.00    +0.155 HD
ATOM     37  N   UNL     1    -110.855  -1.998 -83.594  0.00  0.00    -0.214 NA
BRANCH   4   3
ATOM      1  C   UNL     1    -111.913  -5.225 -80.097  0.00  0.00    +0.020 A 
ATOM      2  C   UNL     1    -112.165  -4.633 -81.391  0.00  0.00    +0.013 A 
ATOM      3  C   UNL     1    -111.705  -3.283 -81.694  0.00  0.00    +0.019 A 
ATOM     38  C   UNL     1    -110.986  -2.555 -80.659  0.00  0.00    +0.120 A 
ATOM     39  N   UNL     1    -110.760  -3.151 -79.422  0.00  0.00    -0.263 NA
ATOM     40  C   UNL     1    -111.199  -4.448 -79.118  0.00  0.00    +0.111 A 
ENDBRANCH   4   3
ENDBRANCH  10   9
BRANCH  12  13
ATOM     13  N   UNL     1    -109.350  -0.998 -90.251  0.00  0.00    -0.281 N 
ATOM     14  C   UNL     1    -109.408  -2.367 -90.458  0.00  0.00    +0.248 C 
ATOM     30  O   UNL     1    -109.468  -3.199 -89.565  0.00  0.00    -0.270 OA
ATOM     31  H   UNL     1    -109.107  -0.432 -91.064  0.00  0.00    +0.155 HD
BRANCH  14  15
ATOM     15  C   UNL     1    -109.380  -2.887 -91.859  0.00  0.00    +0.037 A 
ATOM     16  C   UNL     1    -108.199  -3.570 -92.392  0.00  0.00    +0.013 A 
ATOM     17  C   UNL     1    -108.192  -4.047 -93.753  0.00  0.00    +0.005 A 
ATOM     18  C   UNL     1    -109.372  -3.844 -94.589  0.00  0.00    -0.033 A 
ATOM     28  C   UNL     1    -110.533  -3.168 -94.032  0.00  0.00    +0.005 A 
ATOM     29  C   UNL     1    -110.543  -2.698 -92.700  0.00  0.00    +0.013 A 
BRANCH  18  19
ATOM     19  C   UNL     1    -109.446  -4.301 -96.058  0.00  0.00    +0.119 C 
BRANCH  19  20
ATOM     20  N   UNL     1    -109.212  -3.266 -97.108  0.00  0.00    -0.302 NA
ATOM     21  C   UNL     1    -110.249  -3.344 -98.233  0.00  0.00    +0.066 C 
ATOM     22  C   UNL     1    -110.003  -2.240 -99.312  0.00  0.00    -0.064 C 
ATOM     23  N   UNL     1    -108.586  -2.383 -99.870  0.00  0.00    +0.379 N 
ATOM     24  C   UNL     1    -108.372  -1.382-100.926  0.00  0.00    -0.096 C 
ATOM     25  H   UNL     1    -108.508  -3.391-100.339  0.00  0.00    -0.082 HD
ATOM     26  C   UNL     1    -107.549  -2.308 -98.759  0.00  0.00    -0.064 C 
ATOM     27  C   UNL     1    -107.820  -3.391 -97.677  0.00  0.00    +0.066 C 
ENDBRANCH  19  20
ENDBRANCH  18  19
ENDBRANCH  14  15
ENDBRANCH  12  13
TORSDOF 6
ENDMDL
