MODEL 1
REMARK VINA RESULT:      -7.6      0.000      0.000
REMARK  Name = C:\Users\Docking\Desktop\test protocol\1iep_ligandH.pdb
REMARK  8 active torsions:
REMARK  status: ('A' for Active; 'I' for Inactive)
REMARK    1  A    between atoms: _5  and  _11
REMARK    2  A    between atoms: _19  and  _21
REMARK    3  A    between atoms: _22  and  _66
REMARK    4  A    between atoms: _27  and  _30
REMARK    5  A    between atoms: _32  and  _33
REMARK    6  A    between atoms: _38  and  _43
REMARK    7  A    between atoms: _43  and  _46
REMARK    8  A    between atoms: _53  and  _55
REMARK                            x       y       z     vdW  Elec       q    Type
REMARK                         _______ _______ _______ _____ _____    ______ ____
ROOT
ATOM     10  C   UNL     1      21.160 -10.908  22.112  0.00  0.00    +0.038 A 
ATOM     11  C   UNL     1      21.627 -12.126  22.667  0.00  0.00    +0.047 A 
ATOM     12  C   UNL     1      22.774 -12.155  23.562  0.00  0.00    +0.035 A 
ATOM     32  C   UNL     1      23.420 -10.923  23.872  0.00  0.00    +0.024 A 
ATOM     33  C   UNL     1      22.958  -9.675  23.316  0.00  0.00    +0.007 A 
ATOM     34  C   UNL     1      21.829  -9.641  22.431  0.00  0.00    -0.029 A 
ATOM     35  C   UNL     1      21.382  -8.275  21.859  0.00  0.00    +0.045 C 
ENDROOT
BRANCH  10   9
ATOM      4  C   UNL     1      19.179 -11.390  17.767  0.00  0.00    +0.077 A 
ATOM      5  C   UNL     1      20.457 -11.569  17.139  0.00  0.00    +0.048 A 
ATOM      6  C   UNL     1      21.600 -11.523  17.969  0.00  0.00    +0.116 A 
ATOM      7  N   UNL     1      21.463 -11.313  19.324  0.00  0.00    -0.223 NA
ATOM      8  C   UNL     1      20.216 -11.143  19.897  0.00  0.00    +0.220 A 
ATOM      9  N   UNL     1      20.055 -10.939  21.259  0.00  0.00    -0.283 N 
ATOM     36  H   UNL     1      19.118 -10.810  21.642  0.00  0.00    +0.155 HD
ATOM     37  N   UNL     1      19.109 -11.181  19.126  0.00  0.00    -0.214 NA
BRANCH   4   3
ATOM      1  C   UNL     1      15.887 -12.614  16.045  0.00  0.00    +0.020 A 
ATOM      2  C   UNL     1      17.139 -12.644  16.767  0.00  0.00    +0.013 A 
ATOM      3  C   UNL     1      17.879 -11.416  17.024  0.00  0.00    +0.019 A 
ATOM     38  C   UNL     1      17.322 -10.164  16.536  0.00  0.00    +0.120 A 
ATOM     39  N   UNL     1      16.115 -10.166  15.842  0.00  0.00    -0.263 NA
ATOM     40  C   UNL     1      15.394 -11.342  15.587  0.00  0.00    +0.111 A 
ENDBRANCH   4   3
ENDBRANCH  10   9
BRANCH  12  13
ATOM     13  N   UNL     1      23.299 -13.363  24.149  0.00  0.00    -0.281 N 
ATOM     14  C   UNL     1      22.595 -14.390  24.755  0.00  0.00    +0.248 C 
ATOM     30  O   UNL     1      21.417 -14.326  25.076  0.00  0.00    -0.270 OA
ATOM     31  H   UNL     1      24.312 -13.474  24.114  0.00  0.00    +0.155 HD
BRANCH  14  15
ATOM     15  C   UNL     1      23.305 -15.669  25.062  0.00  0.00    +0.037 A 
ATOM     16  C   UNL     1      23.668 -16.026  26.436  0.00  0.00    +0.013 A 
ATOM     17  C   UNL     1      24.368 -17.257  26.703  0.00  0.00    +0.005 A 
ATOM     18  C   UNL     1      24.709 -18.142  25.592  0.00  0.00    -0.033 A 
ATOM     28  C   UNL     1      24.332 -17.767  24.239  0.00  0.00    +0.005 A 
ATOM     29  C   UNL     1      23.647 -16.560  23.974  0.00  0.00    +0.013 A 
BRANCH  18  19
ATOM     19  C   UNL     1      25.474 -19.466  25.781  0.00  0.00    +0.119 C 
BRANCH  19  20
ATOM     20  N   UNL     1      26.625 -19.461  26.733  0.00  0.00    -0.302 NA
ATOM     21  C   UNL     1      27.840 -18.725  26.160  0.00  0.00    +0.066 C 
ATOM     22  C   UNL     1      29.027 -18.710  27.177  0.00  0.00    -0.064 C 
ATOM     23  N   UNL     1      29.391 -20.147  27.554  0.00  0.00    +0.379 N 
ATOM     24  C   UNL     1      30.545 -20.138  28.465  0.00  0.00    -0.096 C 
ATOM     25  H   UNL     1      29.701 -20.672  26.621  0.00  0.00    -0.082 HD
ATOM     26  C   UNL     1      28.188 -20.886  28.121  0.00  0.00    -0.064 C 
ATOM     27  C   UNL     1      27.004 -20.870  27.115  0.00  0.00    +0.066 C 
ENDBRANCH  19  20
ENDBRANCH  18  19
ENDBRANCH  14  15
ENDBRANCH  12  13
TORSDOF 6
ENDMDL
MODEL 2
REMARK VINA RESULT:      -7.5      2.425      3.391
REMARK  Name = C:\Users\Docking\Desktop\test protocol\1iep_ligandH.pdb
REMARK  8 active torsions:
REMARK  status: ('A' for Active; 'I' for Inactive)
REMARK    1  A    between atoms: _5  and  _11
REMARK    2  A    between atoms: _19  and  _21
REMARK    3  A    between atoms: _22  and  _66
REMARK    4  A    between atoms: _27  and  _30
REMARK    5  A    between atoms: _32  and  _33
REMARK    6  A    between atoms: _38  and  _43
REMARK    7  A    between atoms: _43  and  _46
REMARK    8  A    between atoms: _53  and  _55
REMARK                            x       y       z     vdW  Elec       q    Type
REMARK                         _______ _______ _______ _____ _____    ______ ____
ROOT
ATOM     10  C   UNL     1      21.088 -11.200  21.986  0.00  0.00    +0.038 A 
ATOM     11  C   UNL     1      21.486 -12.495  22.405  0.00  0.00    +0.047 A 
ATOM     12  C   UNL     1      22.611 -12.681  23.309  0.00  0.00    +0.035 A 
ATOM     32  C   UNL     1      23.307 -11.525  23.769  0.00  0.00    +0.024 A 
ATOM     33  C   UNL     1      22.916 -10.201  23.352  0.00  0.00    +0.007 A 
ATOM     34  C   UNL     1      21.809 -10.011  22.459  0.00  0.00    -0.029 A 
ATOM     35  C   UNL     1      21.439  -8.569  22.040  0.00  0.00    +0.045 C 
ENDROOT
BRANCH  10   9
ATOM      4  C   UNL     1      19.169 -11.163  17.587  0.00  0.00    +0.077 A 
ATOM      5  C   UNL     1      20.444 -11.376  16.965  0.00  0.00    +0.048 A 
ATOM      6  C   UNL     1      21.570 -11.482  17.812  0.00  0.00    +0.116 A 
ATOM      7  N   UNL     1      21.420 -11.382  19.178  0.00  0.00    -0.223 NA
ATOM      8  C   UNL     1      20.176 -11.175  19.746  0.00  0.00    +0.220 A 
ATOM      9  N   UNL     1      20.001 -11.079  21.118  0.00  0.00    -0.283 N 
ATOM     36  H   UNL     1      19.068 -10.919  21.497  0.00  0.00    +0.155 HD
ATOM     37  N   UNL     1      19.086 -11.069  18.958  0.00  0.00    -0.214 NA
BRANCH   4   3
ATOM      1  C   UNL     1      16.465 -10.048  14.990  0.00  0.00    +0.020 A 
ATOM      2  C   UNL     1      17.726 -10.135  15.690  0.00  0.00    +0.013 A 
ATOM      3  C   UNL     1      17.886 -11.034  16.827  0.00  0.00    +0.019 A 
ATOM     38  C   UNL     1      16.742 -11.837  17.232  0.00  0.00    +0.120 A 
ATOM     39  N   UNL     1      15.540 -11.731  16.539  0.00  0.00    -0.263 NA
ATOM     40  C   UNL     1      15.374 -10.869  15.445  0.00  0.00    +0.111 A 
ENDBRANCH   4   3
ENDBRANCH  10   9
BRANCH  12  13
ATOM     13  N   UNL     1      23.066 -13.972  23.762  0.00  0.00    -0.281 N 
ATOM     14  C   UNL     1      22.591 -14.715  24.830  0.00  0.00    +0.248 C 
ATOM     30  O   UNL     1      21.841 -14.284  25.693  0.00  0.00    -0.270 OA
ATOM     31  H   UNL     1      23.831 -14.388  23.231  0.00  0.00    +0.155 HD
BRANCH  14  15
ATOM     15  C   UNL     1      23.023 -16.140  24.968  0.00  0.00    +0.037 A 
ATOM     16  C   UNL     1      24.107 -16.520  25.877  0.00  0.00    +0.013 A 
ATOM     17  C   UNL     1      24.516 -17.899  25.978  0.00  0.00    +0.005 A 
ATOM     18  C   UNL     1      23.839 -18.908  25.167  0.00  0.00    -0.033 A 
ATOM     28  C   UNL     1      22.763 -18.503  24.277  0.00  0.00    +0.005 A 
ATOM     29  C   UNL     1      22.360 -17.153  24.175  0.00  0.00    +0.013 A 
BRANCH  18  19
ATOM     19  C   UNL     1      24.223 -20.399  25.195  0.00  0.00    +0.119 C 
BRANCH  19  20
ATOM     20  N   UNL     1      23.181 -21.365  25.653  0.00  0.00    -0.302 NA
ATOM     21  C   UNL     1      23.727 -22.349  26.693  0.00  0.00    +0.066 C 
ATOM     22  C   UNL     1      22.617 -23.338  27.178  0.00  0.00    -0.064 C 
ATOM     23  N   UNL     1      22.043 -24.086  25.974  0.00  0.00    +0.379 N 
ATOM     24  C   UNL     1      21.041 -25.058  26.434  0.00  0.00    -0.096 C 
ATOM     25  H   UNL     1      22.876 -24.656  25.502  0.00  0.00    -0.082 HD
ATOM     26  C   UNL     1      21.500 -23.116  24.935  0.00  0.00    -0.064 C 
ATOM     27  C   UNL     1      22.603 -22.118  24.481  0.00  0.00    +0.066 C 
ENDBRANCH  19  20
ENDBRANCH  18  19
ENDBRANCH  14  15
ENDBRANCH  12  13
TORSDOF 6
ENDMDL
MODEL 3
REMARK VINA RESULT:      -6.9      6.146     11.440
REMARK  Name = C:\Users\Docking\Desktop\test protocol\1iep_ligandH.pdb
REMARK  8 active torsions:
REMARK  status: ('A' for Active; 'I' for Inactive)
REMARK    1  A    between atoms: _5  and  _11
REMARK    2  A    between atoms: _19  and  _21
REMARK    3  A    between atoms: _22  and  _66
REMARK    4  A    between atoms: _27  and  _30
REMARK    5  A    between atoms: _32  and  _33
REMARK    6  A    between atoms: _38  and  _43
REMARK    7  A    between atoms: _43  and  _46
REMARK    8  A    between atoms: _53  and  _55
REMARK                            x       y       z     vdW  Elec       q    Type
REMARK                         _______ _______ _______ _____ _____    ______ ____
ROOT
ATOM     10  C   UNL     1      21.285 -10.267  21.983  0.00  0.00    +0.038 A 
ATOM     11  C   UNL     1      21.751  -8.928  21.951  0.00  0.00    +0.047 A 
ATOM     12  C   UNL     1      22.870  -8.501  22.777  0.00  0.00    +0.035 A 
ATOM     32  C   UNL     1      23.493  -9.465  23.622  0.00  0.00    +0.024 A 
ATOM     33  C   UNL     1      23.032 -10.830  23.668  0.00  0.00    +0.007 A 
ATOM     34  C   UNL     1      21.927 -11.257  22.857  0.00  0.00    -0.029 A 
ATOM     35  C   UNL     1      21.471 -12.731  22.952  0.00  0.00    +0.045 C 
ENDROOT
BRANCH  10   9
ATOM      4  C   UNL     1      19.424 -11.578  17.758  0.00  0.00    +0.077 A 
ATOM      5  C   UNL     1      20.703 -11.523  17.110  0.00  0.00    +0.048 A 
ATOM      6  C   UNL     1      21.813 -11.147  17.898  0.00  0.00    +0.116 A 
ATOM      7  N   UNL     1      21.646 -10.849  19.233  0.00  0.00    -0.223 NA
ATOM      8  C   UNL     1      20.398 -10.910  19.826  0.00  0.00    +0.220 A 
ATOM      9  N   UNL     1      20.208 -10.623  21.169  0.00  0.00    -0.283 N 
ATOM     36  H   UNL     1      19.270 -10.673  21.567  0.00  0.00    +0.155 HD
ATOM     37  N   UNL     1      19.321 -11.266  19.095  0.00  0.00    -0.214 NA
BRANCH   4   3
ATOM      1  C   UNL     1      16.835 -13.377  15.442  0.00  0.00    +0.020 A 
ATOM      2  C   UNL     1      18.084 -13.046  16.087  0.00  0.00    +0.013 A 
ATOM      3  C   UNL     1      18.156 -11.962  17.060  0.00  0.00    +0.019 A 
ATOM     38  C   UNL     1      16.936 -11.228  17.359  0.00  0.00    +0.120 A 
ATOM     39  N   UNL     1      15.748 -11.569  16.721  0.00  0.00    -0.263 NA
ATOM     40  C   UNL     1      15.667 -12.608  15.782  0.00  0.00    +0.111 A 
ENDBRANCH   4   3
ENDBRANCH  10   9
BRANCH  12  13
ATOM     13  N   UNL     1      23.382  -7.153  22.793  0.00  0.00    -0.281 N 
ATOM     14  C   UNL     1      24.008  -6.467  21.764  0.00  0.00    +0.248 C 
ATOM     30  O   UNL     1      24.416  -6.986  20.736  0.00  0.00    -0.270 OA
ATOM     31  H   UNL     1      23.268  -6.642  23.668  0.00  0.00    +0.155 HD
BRANCH  14  15
ATOM     15  C   UNL     1      24.224  -4.995  21.905  0.00  0.00    +0.037 A 
ATOM     16  C   UNL     1      25.197  -4.287  21.068  0.00  0.00    +0.013 A 
ATOM     17  C   UNL     1      25.398  -2.870  21.236  0.00  0.00    +0.005 A 
ATOM     18  C   UNL     1      24.624  -2.150  22.244  0.00  0.00    -0.033 A 
ATOM     28  C   UNL     1      23.662  -2.877  23.057  0.00  0.00    +0.005 A 
ATOM     29  C   UNL     1      23.462  -4.266  22.896  0.00  0.00    +0.013 A 
BRANCH  18  19
ATOM     19  C   UNL     1      24.789  -0.642  22.507  0.00  0.00    +0.119 C 
BRANCH  19  20
ATOM     20  N   UNL     1      25.476  -0.238  23.769  0.00  0.00    -0.302 NA
ATOM     21  C   UNL     1      25.237   1.236  24.108  0.00  0.00    +0.066 C 
ATOM     22  C   UNL     1      25.945   1.635  25.444  0.00  0.00    -0.064 C 
ATOM     23  N   UNL     1      27.442   1.341  25.332  0.00  0.00    +0.379 N 
ATOM     24  C   UNL     1      28.119   1.769  26.565  0.00  0.00    -0.096 C 
ATOM     25  H   UNL     1      27.845   1.955  24.494  0.00  0.00    -0.082 HD
ATOM     26  C   UNL     1      27.689  -0.122  24.993  0.00  0.00    -0.064 C 
ATOM     27  C   UNL     1      26.957  -0.516  23.679  0.00  0.00    +0.066 C 
ENDBRANCH  19  20
ENDBRANCH  18  19
ENDBRANCH  14  15
ENDBRANCH  12  13
TORSDOF 6
ENDMDL
MODEL 4
REMARK VINA RESULT:      -6.9      2.119      2.864
REMARK  Name = C:\Users\Docking\Desktop\test protocol\1iep_ligandH.pdb
REMARK  8 active torsions:
REMARK  status: ('A' for Active; 'I' for Inactive)
REMARK    1  A    between atoms: _5  and  _11
REMARK    2  A    between atoms: _19  and  _21
REMARK    3  A    between atoms: _22  and  _66
REMARK    4  A    between atoms: _27  and  _30
REMARK    5  A    between atoms: _32  and  _33
REMARK    6  A    between atoms: _38  and  _43
REMARK    7  A    between atoms: _43  and  _46
REMARK    8  A    between atoms: _53  and  _55
REMARK                            x       y       z     vdW  Elec       q    Type
REMARK                         _______ _______ _______ _____ _____    ______ ____
ROOT
ATOM     10  C   UNL     1      21.107 -11.135  22.019  0.00  0.00    +0.038 A 
ATOM     11  C   UNL     1      21.506 -12.425  22.453  0.00  0.00    +0.047 A 
ATOM     12  C   UNL     1      22.616 -12.598  23.377  0.00  0.00    +0.035 A 
ATOM     32  C   UNL     1      23.296 -11.435  23.841  0.00  0.00    +0.024 A 
ATOM     33  C   UNL     1      22.905 -10.116  23.409  0.00  0.00    +0.007 A 
ATOM     34  C   UNL     1      21.813  -9.940  22.496  0.00  0.00    -0.029 A 
ATOM     35  C   UNL     1      21.441  -8.503  22.061  0.00  0.00    +0.045 C 
ENDROOT
BRANCH  10   9
ATOM      4  C   UNL     1      19.253 -11.209  17.593  0.00  0.00    +0.077 A 
ATOM      5  C   UNL     1      20.534 -11.457  16.996  0.00  0.00    +0.048 A 
ATOM      6  C   UNL     1      21.646 -11.551  17.863  0.00  0.00    +0.116 A 
ATOM      7  N   UNL     1      21.477 -11.408  19.223  0.00  0.00    -0.223 NA
ATOM      8  C   UNL     1      20.228 -11.168  19.765  0.00  0.00    +0.220 A 
ATOM      9  N   UNL     1      20.034 -11.027  21.131  0.00  0.00    -0.283 N 
ATOM     36  H   UNL     1      19.098 -10.844  21.491  0.00  0.00    +0.155 HD
ATOM     37  N   UNL     1      19.151 -11.071  18.959  0.00  0.00    -0.214 NA
BRANCH   4   3
ATOM      1  C   UNL     1      15.623 -11.783  16.253  0.00  0.00    +0.020 A 
ATOM      2  C   UNL     1      16.826 -11.943  17.037  0.00  0.00    +0.013 A 
ATOM      3  C   UNL     1      17.983 -11.086  16.809  0.00  0.00    +0.019 A 
ATOM     38  C   UNL     1      17.888 -10.068  15.774  0.00  0.00    +0.120 A 
ATOM     39  N   UNL     1      16.717  -9.938  15.034  0.00  0.00    -0.263 NA
ATOM     40  C   UNL     1      15.598 -10.759  15.242  0.00  0.00    +0.111 A 
ENDBRANCH   4   3
ENDBRANCH  10   9
BRANCH  12  13
ATOM     13  N   UNL     1      23.071 -13.883  23.847  0.00  0.00    -0.281 N 
ATOM     14  C   UNL     1      22.562 -14.637  24.893  0.00  0.00    +0.248 C 
ATOM     30  O   UNL     1      21.769 -14.219  25.723  0.00  0.00    -0.270 OA
ATOM     31  H   UNL     1      23.864 -14.287  23.349  0.00  0.00    +0.155 HD
BRANCH  14  15
ATOM     15  C   UNL     1      23.010 -16.054  25.046  0.00  0.00    +0.037 A 
ATOM     16  C   UNL     1      24.118 -16.409  25.937  0.00  0.00    +0.013 A 
ATOM     17  C   UNL     1      24.541 -17.782  26.053  0.00  0.00    +0.005 A 
ATOM     18  C   UNL     1      23.855 -18.812  25.276  0.00  0.00    -0.033 A 
ATOM     28  C   UNL     1      22.756 -18.432  24.403  0.00  0.00    +0.005 A 
ATOM     29  C   UNL     1      22.339 -17.087  24.286  0.00  0.00    +0.013 A 
BRANCH  18  19
ATOM     19  C   UNL     1      24.253 -20.299  25.321  0.00  0.00    +0.119 C 
BRANCH  19  20
ATOM     20  N   UNL     1      24.741 -20.915  24.052  0.00  0.00    -0.302 NA
ATOM     21  C   UNL     1      23.762 -21.958  23.506  0.00  0.00    +0.066 C 
ATOM     22  C   UNL     1      24.277 -22.577  22.166  0.00  0.00    -0.064 C 
ATOM     23  N   UNL     1      25.658 -23.195  22.391  0.00  0.00    +0.379 N 
ATOM     24  C   UNL     1      26.120 -23.829  21.147  0.00  0.00    -0.096 C 
ATOM     25  H   UNL     1      25.548 -23.997  23.158  0.00  0.00    -0.082 HD
ATOM     26  C   UNL     1      26.637 -22.165  22.935  0.00  0.00    -0.064 C 
ATOM     27  C   UNL     1      26.102 -21.536  24.252  0.00  0.00    +0.066 C 
ENDBRANCH  19  20
ENDBRANCH  18  19
ENDBRANCH  14  15
ENDBRANCH  12  13
TORSDOF 6
ENDMDL
MODEL 5
REMARK VINA RESULT:      -6.9      6.063     11.833
REMARK  Name = C:\Users\Docking\Desktop\test protocol\1iep_ligandH.pdb
REMARK  8 active torsions:
REMARK  status: ('A' for Active; 'I' for Inactive)
REMARK    1  A    between atoms: _5  and  _11
REMARK    2  A    between atoms: _19  and  _21
REMARK    3  A    between atoms: _22  and  _66
REMARK    4  A    between atoms: _27  and  _30
REMARK    5  A    between atoms: _32  and  _33
REMARK    6  A    between atoms: _38  and  _43
REMARK    7  A    between atoms: _43  and  _46
REMARK    8  A    between atoms: _53  and  _55
REMARK                            x       y       z     vdW  Elec       q    Type
REMARK                         _______ _______ _______ _____ _____    ______ ____
ROOT
ATOM     10  C   UNL     1      21.133 -10.497  21.867  0.00  0.00    +0.038 A 
ATOM     11  C   UNL     1      21.602  -9.159  21.850  0.00  0.00    +0.047 A 
ATOM     12  C   UNL     1      22.710  -8.739  22.694  0.00  0.00    +0.035 A 
ATOM     32  C   UNL     1      23.319  -9.710  23.542  0.00  0.00    +0.024 A 
ATOM     33  C   UNL     1      22.854 -11.075  23.572  0.00  0.00    +0.007 A 
ATOM     34  C   UNL     1      21.760 -11.494  22.743  0.00  0.00    -0.029 A 
ATOM     35  C   UNL     1      21.299 -12.968  22.821  0.00  0.00    +0.045 C 
ENDROOT
BRANCH  10   9
ATOM      4  C   UNL     1      19.296 -11.579  17.566  0.00  0.00    +0.077 A 
ATOM      5  C   UNL     1      20.564 -11.411  16.917  0.00  0.00    +0.048 A 
ATOM      6  C   UNL     1      21.662 -11.038  17.724  0.00  0.00    +0.116 A 
ATOM      7  N   UNL     1      21.494 -10.851  19.079  0.00  0.00    -0.223 NA
ATOM      8  C   UNL     1      20.257 -11.020  19.673  0.00  0.00    +0.220 A 
ATOM      9  N   UNL     1      20.066 -10.845  21.035  0.00  0.00    -0.283 N 
ATOM     36  H   UNL     1      19.137 -10.972  21.435  0.00  0.00    +0.155 HD
ATOM     37  N   UNL     1      19.192 -11.374  18.924  0.00  0.00    -0.214 NA
BRANCH   4   3
ATOM      1  C   UNL     1      16.782 -13.309  15.120  0.00  0.00    +0.020 A 
ATOM      2  C   UNL     1      18.020 -12.963  15.779  0.00  0.00    +0.013 A 
ATOM      3  C   UNL     1      18.042 -11.974  16.850  0.00  0.00    +0.019 A 
ATOM     38  C   UNL     1      16.785 -11.349  17.232  0.00  0.00    +0.120 A 
ATOM     39  N   UNL     1      15.609 -11.701  16.577  0.00  0.00    -0.263 NA
ATOM     40  C   UNL     1      15.575 -12.650  15.545  0.00  0.00    +0.111 A 
ENDBRANCH   4   3
ENDBRANCH  10   9
BRANCH  12  13
ATOM     13  N   UNL     1      23.224  -7.393  22.726  0.00  0.00    -0.281 N 
ATOM     14  C   UNL     1      23.951  -6.735  21.747  0.00  0.00    +0.248 C 
ATOM     30  O   UNL     1      24.455  -7.281  20.777  0.00  0.00    -0.270 OA
ATOM     31  H   UNL     1      23.029  -6.859  23.574  0.00  0.00    +0.155 HD
BRANCH  14  15
ATOM     15  C   UNL     1      24.160  -5.260  21.871  0.00  0.00    +0.037 A 
ATOM     16  C   UNL     1      25.128  -4.557  21.026  0.00  0.00    +0.013 A 
ATOM     17  C   UNL     1      25.323  -3.136  21.178  0.00  0.00    +0.005 A 
ATOM     18  C   UNL     1      24.545  -2.410  22.179  0.00  0.00    -0.033 A 
ATOM     28  C   UNL     1      23.588  -3.132  23.001  0.00  0.00    +0.005 A 
ATOM     29  C   UNL     1      23.395  -4.524  22.855  0.00  0.00    +0.013 A 
BRANCH  18  19
ATOM     19  C   UNL     1      24.703  -0.898  22.425  0.00  0.00    +0.119 C 
BRANCH  19  20
ATOM     20  N   UNL     1      23.702  -0.242  23.318  0.00  0.00    -0.302 NA
ATOM     21  C   UNL     1      22.709   0.620  22.533  0.00  0.00    +0.066 C 
ATOM     22  C   UNL     1      21.655   1.280  23.481  0.00  0.00    -0.064 C 
ATOM     23  N   UNL     1      22.378   2.114  24.540  0.00  0.00    +0.379 N 
ATOM     24  C   UNL     1      21.388   2.783  25.397  0.00  0.00    -0.096 C 
ATOM     25  H   UNL     1      22.956   2.906  24.010  0.00  0.00    -0.082 HD
ATOM     26  C   UNL     1      23.369   1.265  25.323  0.00  0.00    -0.064 C 
ATOM     27  C   UNL     1      24.394   0.591  24.369  0.00  0.00    +0.066 C 
ENDBRANCH  19  20
ENDBRANCH  18  19
ENDBRANCH  14  15
ENDBRANCH  12  13
TORSDOF 6
ENDMDL
