MODEL 1
REMARK VINA RESULT:      -7.8      0.000      0.000
REMARK  Name = C:\Users\Docking\Desktop\test protocol\1iep_ligandH.pdb
REMARK  8 active torsions:
REMARK  status: ('A' for Active; 'I' for Inactive)
REMARK    1  A    between atoms: _5  and  _11
REMARK    2  A    between atoms: _19  and  _21
REMARK    3  A    between atoms: _22  and  _66
REMARK    4  A    between atoms: _27  and  _30
REMARK    5  A    between atoms: _32  and  _33
REMARK    6  A    between atoms: _38  and  _43
REMARK    7  A    between atoms: _43  and  _46
REMARK    8  A    between atoms: _53  and  _55
REMARK                            x       y       z     vdW  Elec       q    Type
REMARK                         _______ _______ _______ _____ _____    ______ ____
ROOT
ATOM     10  C   UNL     1      12.383  22.837   8.208  0.00  0.00    +0.038 A 
ATOM     11  C   UNL     1      13.569  23.229   7.538  0.00  0.00    +0.047 A 
ATOM     12  C   UNL     1      14.873  22.756   7.975  0.00  0.00    +0.035 A 
ATOM     32  C   UNL     1      14.932  21.881   9.099  0.00  0.00    +0.024 A 
ATOM     33  C   UNL     1      13.736  21.472   9.793  0.00  0.00    +0.007 A 
ATOM     34  C   UNL     1      12.447  21.938   9.367  0.00  0.00    -0.029 A 
ATOM     35  C   UNL     1      11.199  21.473  10.153  0.00  0.00    +0.045 C 
ENDROOT
BRANCH  10   9
ATOM      4  C   UNL     1       8.947  26.184   8.038  0.00  0.00    +0.077 A 
ATOM      5  C   UNL     1       9.639  27.026   8.971  0.00  0.00    +0.048 A 
ATOM      6  C   UNL     1      10.872  26.558   9.477  0.00  0.00    +0.116 A 
ATOM      7  N   UNL     1      11.368  25.337   9.072  0.00  0.00    -0.223 NA
ATOM      8  C   UNL     1      10.674  24.549   8.172  0.00  0.00    +0.220 A 
ATOM      9  N   UNL     1      11.158  23.322   7.745  0.00  0.00    -0.283 N 
ATOM     36  H   UNL     1      10.613  22.767   7.086  0.00  0.00    +0.155 HD
ATOM     37  N   UNL     1       9.494  24.973   7.676  0.00  0.00    -0.214 NA
BRANCH   4   3
ATOM      1  C   UNL     1       5.200  27.190   7.540  0.00  0.00    +0.020 A 
ATOM      2  C   UNL     1       6.443  26.850   8.193  0.00  0.00    +0.013 A 
ATOM      3  C   UNL     1       7.635  26.541   7.413  0.00  0.00    +0.019 A 
ATOM     38  C   UNL     1       7.534  26.587   5.962  0.00  0.00    +0.120 A 
ATOM     39  N   UNL     1       6.323  26.916   5.360  0.00  0.00    -0.263 NA
ATOM     40  C   UNL     1       5.170  27.213   6.101  0.00  0.00    +0.111 A 
ENDBRANCH   4   3
ENDBRANCH  10   9
BRANCH  12  13
ATOM     13  N   UNL     1      16.113  23.127   7.339  0.00  0.00    -0.281 N 
ATOM     14  C   UNL     1      16.834  22.411   6.397  0.00  0.00    +0.248 C 
ATOM     30  O   UNL     1      16.631  21.239   6.115  0.00  0.00    -0.270 OA
ATOM     31  H   UNL     1      16.506  24.026   7.616  0.00  0.00    +0.155 HD
BRANCH  14  15
ATOM     15  C   UNL     1      17.951  23.091   5.674  0.00  0.00    +0.037 A 
ATOM     16  C   UNL     1      19.307  22.537   5.678  0.00  0.00    +0.013 A 
ATOM     17  C   UNL     1      20.371  23.222   4.986  0.00  0.00    +0.005 A 
ATOM     18  C   UNL     1      20.081  24.469   4.283  0.00  0.00    -0.033 A 
ATOM     28  C   UNL     1      18.725  24.994   4.291  0.00  0.00    +0.005 A 
ATOM     29  C   UNL     1      17.681  24.326   4.969  0.00  0.00    +0.013 A 
BRANCH  18  19
ATOM     19  C   UNL     1      21.158  25.279   3.537  0.00  0.00    +0.119 C 
BRANCH  19  20
ATOM     20  N   UNL     1      21.675  24.710   2.256  0.00  0.00    -0.302 NA
ATOM     21  C   UNL     1      22.904  23.823   2.477  0.00  0.00    +0.066 C 
ATOM     22  C   UNL     1      23.419  23.219   1.130  0.00  0.00    -0.064 C 
ATOM     23  N   UNL     1      23.737  24.353   0.154  0.00  0.00    +0.379 N 
ATOM     24  C   UNL     1      24.276  23.790  -1.093  0.00  0.00    -0.096 C 
ATOM     25  H   UNL     1      24.535  24.981   0.614  0.00  0.00    -0.082 HD
ATOM     26  C   UNL     1      22.521  25.241  -0.069  0.00  0.00    -0.064 C 
ATOM     27  C   UNL     1      22.000  25.813   1.279  0.00  0.00    +0.066 C 
ENDBRANCH  19  20
ENDBRANCH  18  19
ENDBRANCH  14  15
ENDBRANCH  12  13
TORSDOF 6
ENDMDL
MODEL 2
REMARK VINA RESULT:      -7.8      8.016     15.969
REMARK  Name = C:\Users\Docking\Desktop\test protocol\1iep_ligandH.pdb
REMARK  8 active torsions:
REMARK  status: ('A' for Active; 'I' for Inactive)
REMARK    1  A    between atoms: _5  and  _11
REMARK    2  A    between atoms: _19  and  _21
REMARK    3  A    between atoms: _22  and  _66
REMARK    4  A    between atoms: _27  and  _30
REMARK    5  A    between atoms: _32  and  _33
REMARK    6  A    between atoms: _38  and  _43
REMARK    7  A    between atoms: _43  and  _46
REMARK    8  A    between atoms: _53  and  _55
REMARK                            x       y       z     vdW  Elec       q    Type
REMARK                         _______ _______ _______ _____ _____    ______ ____
ROOT
ATOM     10  C   UNL     1       9.059  25.166   8.521  0.00  0.00    +0.038 A 
ATOM     11  C   UNL     1       7.676  25.481   8.512  0.00  0.00    +0.047 A 
ATOM     12  C   UNL     1       7.219  26.862   8.514  0.00  0.00    +0.035 A 
ATOM     32  C   UNL     1       8.197  27.898   8.523  0.00  0.00    +0.024 A 
ATOM     33  C   UNL     1       9.607  27.596   8.534  0.00  0.00    +0.007 A 
ATOM     34  C   UNL     1      10.065  26.236   8.534  0.00  0.00    -0.029 A 
ATOM     35  C   UNL     1      11.588  25.971   8.552  0.00  0.00    +0.045 C 
ENDROOT
BRANCH  10   9
ATOM      4  C   UNL     1      10.540  21.183  10.752  0.00  0.00    +0.077 A 
ATOM      5  C   UNL     1      10.579  21.840  12.027  0.00  0.00    +0.048 A 
ATOM      6  C   UNL     1      10.217  23.206  12.064  0.00  0.00    +0.116 A 
ATOM      7  N   UNL     1       9.846  23.855  10.907  0.00  0.00    -0.223 NA
ATOM      8  C   UNL     1       9.821  23.192   9.693  0.00  0.00    +0.220 A 
ATOM      9  N   UNL     1       9.443  23.823   8.518  0.00  0.00    -0.283 N 
ATOM     36  H   UNL     1       9.444  23.301   7.643  0.00  0.00    +0.155 HD
ATOM     37  N   UNL     1      10.163  21.888   9.631  0.00  0.00    -0.214 NA
BRANCH   4   3
ATOM      1  C   UNL     1      12.275  17.899   9.523  0.00  0.00    +0.020 A 
ATOM      2  C   UNL     1      11.977  19.304   9.682  0.00  0.00    +0.013 A 
ATOM      3  C   UNL     1      10.891  19.741  10.551  0.00  0.00    +0.019 A 
ATOM     38  C   UNL     1      10.121  18.724  11.250  0.00  0.00    +0.120 A 
ATOM     39  N   UNL     1      10.430  17.379  11.076  0.00  0.00    -0.263 NA
ATOM     40  C   UNL     1      11.471  16.946  10.242  0.00  0.00    +0.111 A 
ENDBRANCH   4   3
ENDBRANCH  10   9
BRANCH  12  13
ATOM     13  N   UNL     1       5.828  27.242   8.513  0.00  0.00    -0.281 N 
ATOM     14  C   UNL     1       4.847  26.881   7.605  0.00  0.00    +0.248 C 
ATOM     30  O   UNL     1       5.065  26.345   6.528  0.00  0.00    -0.270 OA
ATOM     31  H   UNL     1       5.530  27.851   9.275  0.00  0.00    +0.155 HD
BRANCH  14  15
ATOM     15  C   UNL     1       3.417  27.169   7.932  0.00  0.00    +0.037 A 
ATOM     16  C   UNL     1       2.341  26.281   7.485  0.00  0.00    +0.013 A 
ATOM     17  C   UNL     1       0.969  26.592   7.801  0.00  0.00    +0.005 A 
ATOM     18  C   UNL     1       0.666  27.796   8.570  0.00  0.00    -0.033 A 
ATOM     28  C   UNL     1       1.754  28.657   9.005  0.00  0.00    +0.005 A 
ATOM     29  C   UNL     1       3.099  28.356   8.697  0.00  0.00    +0.013 A 
BRANCH  18  19
ATOM     19  C   UNL     1      -0.770  28.217   8.934  0.00  0.00    +0.119 C 
BRANCH  19  20
ATOM     20  N   UNL     1      -1.018  28.658  10.339  0.00  0.00    -0.302 NA
ATOM     21  C   UNL     1      -1.804  27.615  11.138  0.00  0.00    +0.066 C 
ATOM     22  C   UNL     1      -2.035  28.082  12.612  0.00  0.00    -0.064 C 
ATOM     23  N   UNL     1      -2.766  29.426  12.609  0.00  0.00    +0.379 N 
ATOM     24  C   UNL     1      -3.036  29.841  13.993  0.00  0.00    -0.096 C 
ATOM     25  H   UNL     1      -3.748  29.275  12.103  0.00  0.00    -0.082 HD
ATOM     26  C   UNL     1      -1.993  30.469  11.814  0.00  0.00    -0.064 C 
ATOM     27  C   UNL     1      -1.743  29.981  10.359  0.00  0.00    +0.066 C 
ENDBRANCH  19  20
ENDBRANCH  18  19
ENDBRANCH  14  15
ENDBRANCH  12  13
TORSDOF 6
ENDMDL
MODEL 3
REMARK VINA RESULT:      -7.7      3.343     12.207
REMARK  Name = C:\Users\Docking\Desktop\test protocol\1iep_ligandH.pdb
REMARK  8 active torsions:
REMARK  status: ('A' for Active; 'I' for Inactive)
REMARK    1  A    between atoms: _5  and  _11
REMARK    2  A    between atoms: _19  and  _21
REMARK    3  A    between atoms: _22  and  _66
REMARK    4  A    between atoms: _27  and  _30
REMARK    5  A    between atoms: _32  and  _33
REMARK    6  A    between atoms: _38  and  _43
REMARK    7  A    between atoms: _43  and  _46
REMARK    8  A    between atoms: _53  and  _55
REMARK                            x       y       z     vdW  Elec       q    Type
REMARK                         _______ _______ _______ _____ _____    ______ ____
ROOT
ATOM     10  C   UNL     1      19.833  25.427   4.344  0.00  0.00    +0.038 A 
ATOM     11  C   UNL     1      18.493  25.283   4.786  0.00  0.00    +0.047 A 
ATOM     12  C   UNL     1      17.853  23.977   4.837  0.00  0.00    +0.035 A 
ATOM     32  C   UNL     1      18.609  22.838   4.433  0.00  0.00    +0.024 A 
ATOM     33  C   UNL     1      19.972  22.966   3.980  0.00  0.00    +0.007 A 
ATOM     34  C   UNL     1      20.607  24.252   3.925  0.00  0.00    -0.029 A 
ATOM     35  C   UNL     1      22.068  24.331   3.425  0.00  0.00    +0.045 C 
ENDROOT
BRANCH  10   9
ATOM      4  C   UNL     1      20.984  29.495   2.072  0.00  0.00    +0.077 A 
ATOM      5  C   UNL     1      20.438  29.025   0.830  0.00  0.00    +0.048 A 
ATOM      6  C   UNL     1      19.877  27.728   0.817  0.00  0.00    +0.116 A 
ATOM      7  N   UNL     1      19.867  26.967   1.966  0.00  0.00    -0.223 NA
ATOM      8  C   UNL     1      20.403  27.449   3.146  0.00  0.00    +0.220 A 
ATOM      9  N   UNL     1      20.397  26.704   4.315  0.00  0.00    -0.283 N 
ATOM     36  H   UNL     1      20.809  27.092   5.163  0.00  0.00    +0.155 HD
ATOM     37  N   UNL     1      20.946  28.684   3.184  0.00  0.00    -0.214 NA
BRANCH   4   3
ATOM      1  C   UNL     1      22.125  32.911   3.596  0.00  0.00    +0.020 A 
ATOM      2  C   UNL     1      21.502  31.613   3.480  0.00  0.00    +0.013 A 
ATOM      3  C   UNL     1      21.608  30.844   2.246  0.00  0.00    +0.019 A 
ATOM     38  C   UNL     1      22.357  31.422   1.140  0.00  0.00    +0.120 A 
ATOM     39  N   UNL     1      22.945  32.676   1.281  0.00  0.00    -0.263 NA
ATOM     40  C   UNL     1      22.848  33.425   2.463  0.00  0.00    +0.111 A 
ENDBRANCH   4   3
ENDBRANCH  10   9
BRANCH  12  13
ATOM     13  N   UNL     1      16.493  23.771   5.269  0.00  0.00    -0.281 N 
ATOM     14  C   UNL     1      15.667  22.693   4.995  0.00  0.00    +0.248 C 
ATOM     30  O   UNL     1      15.902  21.838   4.155  0.00  0.00    -0.270 OA
ATOM     31  H   UNL     1      16.091  24.509   5.847  0.00  0.00    +0.155 HD
BRANCH  14  15
ATOM     15  C   UNL     1      14.387  22.553   5.755  0.00  0.00    +0.037 A 
ATOM     16  C   UNL     1      13.178  22.028   5.116  0.00  0.00    +0.013 A 
ATOM     17  C   UNL     1      11.952  21.919   5.867  0.00  0.00    +0.005 A 
ATOM     18  C   UNL     1      11.930  22.336   7.267  0.00  0.00    -0.033 A 
ATOM     28  C   UNL     1      13.146  22.849   7.877  0.00  0.00    +0.005 A 
ATOM     29  C   UNL     1      14.349  22.958   7.144  0.00  0.00    +0.013 A 
BRANCH  18  19
ATOM     19  C   UNL     1      10.662  22.275   8.138  0.00  0.00    +0.119 C 
BRANCH  19  20
ATOM     20  N   UNL     1       9.891  23.542   8.312  0.00  0.00    -0.302 NA
ATOM     21  C   UNL     1       9.992  24.450   7.084  0.00  0.00    +0.066 C 
ATOM     22  C   UNL     1       9.161  25.761   7.274  0.00  0.00    -0.064 C 
ATOM     23  N   UNL     1       9.645  26.491   8.528  0.00  0.00    +0.379 N 
ATOM     24  C   UNL     1       8.906  27.752   8.678  0.00  0.00    -0.096 C 
ATOM     25  H   UNL     1      10.720  26.744   8.377  0.00  0.00    -0.082 HD
ATOM     26  C   UNL     1       9.551  25.594   9.755  0.00  0.00    -0.064 C 
ATOM     27  C   UNL     1      10.356  24.281   9.543  0.00  0.00    +0.066 C 
ENDBRANCH  19  20
ENDBRANCH  18  19
ENDBRANCH  14  15
ENDBRANCH  12  13
TORSDOF 6
ENDMDL
MODEL 4
REMARK VINA RESULT:      -7.7      1.447      1.870
REMARK  Name = C:\Users\Docking\Desktop\test protocol\1iep_ligandH.pdb
REMARK  8 active torsions:
REMARK  status: ('A' for Active; 'I' for Inactive)
REMARK    1  A    between atoms: _5  and  _11
REMARK    2  A    between atoms: _19  and  _21
REMARK    3  A    between atoms: _22  and  _66
REMARK    4  A    between atoms: _27  and  _30
REMARK    5  A    between atoms: _32  and  _33
REMARK    6  A    between atoms: _38  and  _43
REMARK    7  A    between atoms: _43  and  _46
REMARK    8  A    between atoms: _53  and  _55
REMARK                            x       y       z     vdW  Elec       q    Type
REMARK                         _______ _______ _______ _____ _____    ______ ____
ROOT
ATOM     10  C   UNL     1      11.915  22.650   8.616  0.00  0.00    +0.038 A 
ATOM     11  C   UNL     1      13.106  22.972   7.917  0.00  0.00    +0.047 A 
ATOM     12  C   UNL     1      14.396  22.455   8.349  0.00  0.00    +0.035 A 
ATOM     32  C   UNL     1      14.435  21.611   9.497  0.00  0.00    +0.024 A 
ATOM     33  C   UNL     1      13.234  21.275  10.221  0.00  0.00    +0.007 A 
ATOM     34  C   UNL     1      11.959  21.783   9.800  0.00  0.00    -0.029 A 
ATOM     35  C   UNL     1      10.705  21.395  10.618  0.00  0.00    +0.045 C 
ENDROOT
BRANCH  10   9
ATOM      4  C   UNL     1       8.769  26.242   8.131  0.00  0.00    +0.077 A 
ATOM      5  C   UNL     1       9.595  27.145   8.879  0.00  0.00    +0.048 A 
ATOM      6  C   UNL     1      10.819  26.644   9.378  0.00  0.00    +0.116 A 
ATOM      7  N   UNL     1      11.179  25.336   9.139  0.00  0.00    -0.223 NA
ATOM      8  C   UNL     1      10.358  24.491   8.416  0.00  0.00    +0.220 A 
ATOM      9  N   UNL     1      10.704  23.173   8.157  0.00  0.00    -0.283 N 
ATOM     36  H   UNL     1      10.068  22.580   7.626  0.00  0.00    +0.155 HD
ATOM     37  N   UNL     1       9.184  24.945   7.930  0.00  0.00    -0.214 NA
BRANCH   4   3
ATOM      1  C   UNL     1       5.047  27.372   7.721  0.00  0.00    +0.020 A 
ATOM      2  C   UNL     1       6.299  27.011   8.345  0.00  0.00    +0.013 A 
ATOM      3  C   UNL     1       7.449  26.624   7.537  0.00  0.00    +0.019 A 
ATOM     38  C   UNL     1       7.297  26.613   6.090  0.00  0.00    +0.120 A 
ATOM     39  N   UNL     1       6.079  26.963   5.518  0.00  0.00    -0.263 NA
ATOM     40  C   UNL     1       4.965  27.336   6.285  0.00  0.00    +0.111 A 
ENDBRANCH   4   3
ENDBRANCH  10   9
BRANCH  12  13
ATOM     13  N   UNL     1      15.639  22.755   7.684  0.00  0.00    -0.281 N 
ATOM     14  C   UNL     1      16.241  22.057   6.649  0.00  0.00    +0.248 C 
ATOM     30  O   UNL     1      15.903  20.942   6.279  0.00  0.00    -0.270 OA
ATOM     31  H   UNL     1      16.137  23.581   8.017  0.00  0.00    +0.155 HD
BRANCH  14  15
ATOM     15  C   UNL     1      17.392  22.683   5.930  0.00  0.00    +0.037 A 
ATOM     16  C   UNL     1      18.747  22.138   6.046  0.00  0.00    +0.013 A 
ATOM     17  C   UNL     1      19.843  22.771   5.356  0.00  0.00    +0.005 A 
ATOM     18  C   UNL     1      19.587  23.956   4.541  0.00  0.00    -0.033 A 
ATOM     28  C   UNL     1      18.232  24.472   4.439  0.00  0.00    +0.005 A 
ATOM     29  C   UNL     1      17.156  23.855   5.115  0.00  0.00    +0.013 A 
BRANCH  18  19
ATOM     19  C   UNL     1      20.699  24.708   3.787  0.00  0.00    +0.119 C 
BRANCH  19  20
ATOM     20  N   UNL     1      20.275  25.682   2.737  0.00  0.00    -0.302 NA
ATOM     21  C   UNL     1      20.968  25.419   1.397  0.00  0.00    +0.066 C 
ATOM     22  C   UNL     1      20.496  26.433   0.304  0.00  0.00    -0.064 C 
ATOM     23  N   UNL     1      20.768  27.860   0.784  0.00  0.00    +0.379 N 
ATOM     24  C   UNL     1      20.379  28.813  -0.265  0.00  0.00    -0.096 C 
ATOM     25  H   UNL     1      21.868  27.959   0.941  0.00  0.00    -0.082 HD
ATOM     26  C   UNL     1      20.086  28.128   2.118  0.00  0.00    -0.064 C 
ATOM     27  C   UNL     1      20.539  27.097   3.189  0.00  0.00    +0.066 C 
ENDBRANCH  19  20
ENDBRANCH  18  19
ENDBRANCH  14  15
ENDBRANCH  12  13
TORSDOF 6
ENDMDL
MODEL 5
REMARK VINA RESULT:      -7.5      2.408     13.121
REMARK  Name = C:\Users\Docking\Desktop\test protocol\1iep_ligandH.pdb
REMARK  8 active torsions:
REMARK  status: ('A' for Active; 'I' for Inactive)
REMARK    1  A    between atoms: _5  and  _11
REMARK    2  A    between atoms: _19  and  _21
REMARK    3  A    between atoms: _22  and  _66
REMARK    4  A    between atoms: _27  and  _30
REMARK    5  A    between atoms: _32  and  _33
REMARK    6  A    between atoms: _38  and  _43
REMARK    7  A    between atoms: _43  and  _46
REMARK    8  A    between atoms: _53  and  _55
REMARK                            x       y       z     vdW  Elec       q    Type
REMARK                         _______ _______ _______ _____ _____    ______ ____
ROOT
ATOM     10  C   UNL     1      14.321  22.930   7.969  0.00  0.00    +0.038 A 
ATOM     11  C   UNL     1      13.150  23.710   7.794  0.00  0.00    +0.047 A 
ATOM     12  C   UNL     1      11.871  23.280   8.339  0.00  0.00    +0.035 A 
ATOM     32  C   UNL     1      11.823  22.052   9.061  0.00  0.00    +0.024 A 
ATOM     33  C   UNL     1      13.004  21.247   9.249  0.00  0.00    +0.007 A 
ATOM     34  C   UNL     1      14.268  21.664   8.711  0.00  0.00    -0.029 A 
ATOM     35  C   UNL     1      15.500  20.758   8.936  0.00  0.00    +0.045 C 
ENDROOT
BRANCH  10   9
ATOM      4  C   UNL     1      17.495  23.246   4.383  0.00  0.00    +0.077 A 
ATOM      5  C   UNL     1      16.707  22.401   3.532  0.00  0.00    +0.048 A 
ATOM      6  C   UNL     1      15.495  21.900   4.058  0.00  0.00    +0.116 A 
ATOM      7  N   UNL     1      15.110  22.226   5.340  0.00  0.00    -0.223 NA
ATOM      8  C   UNL     1      15.894  23.042   6.135  0.00  0.00    +0.220 A 
ATOM      9  N   UNL     1      15.522  23.390   7.424  0.00  0.00    -0.283 N 
ATOM     36  H   UNL     1      16.132  23.988   7.981  0.00  0.00    +0.155 HD
ATOM     37  N   UNL     1      17.057  23.532   5.656  0.00  0.00    -0.214 NA
BRANCH   4   3
ATOM      1  C   UNL     1      21.173  24.578   4.422  0.00  0.00    +0.020 A 
ATOM      2  C   UNL     1      19.936  23.982   4.872  0.00  0.00    +0.013 A 
ATOM      3  C   UNL     1      18.799  23.855   3.969  0.00  0.00    +0.019 A 
ATOM     38  C   UNL     1      18.947  24.344   2.607  0.00  0.00    +0.120 A 
ATOM     39  N   UNL     1      20.150  24.915   2.202  0.00  0.00    -0.263 NA
ATOM     40  C   UNL     1      21.251  25.044   3.063  0.00  0.00    +0.111 A 
ENDBRANCH   4   3
ENDBRANCH  10   9
BRANCH  12  13
ATOM     13  N   UNL     1      10.647  24.026   8.186  0.00  0.00    -0.281 N 
ATOM     14  C   UNL     1      10.358  25.296   8.658  0.00  0.00    +0.248 C 
ATOM     30  O   UNL     1      11.039  25.901   9.473  0.00  0.00    -0.270 OA
ATOM     31  H   UNL     1       9.903  23.561   7.666  0.00  0.00    +0.155 HD
BRANCH  14  15
ATOM     15  C   UNL     1       9.128  25.987   8.166  0.00  0.00    +0.037 A 
ATOM     16  C   UNL     1       8.986  26.377   6.761  0.00  0.00    +0.013 A 
ATOM     17  C   UNL     1       7.796  27.058   6.315  0.00  0.00    +0.005 A 
ATOM     18  C   UNL     1       6.737  27.351   7.277  0.00  0.00    -0.033 A 
ATOM     28  C   UNL     1       6.901  26.948   8.664  0.00  0.00    +0.005 A 
ATOM     29  C   UNL     1       8.066  26.281   9.104  0.00  0.00    +0.013 A 
BRANCH  18  19
ATOM     19  C   UNL     1       5.442  28.093   6.895  0.00  0.00    +0.119 C 
BRANCH  19  20
ATOM     20  N   UNL     1       4.171  27.615   7.517  0.00  0.00    -0.302 NA
ATOM     21  C   UNL     1       3.675  26.312   6.883  0.00  0.00    +0.066 C 
ATOM     22  C   UNL     1       2.357  25.814   7.561  0.00  0.00    -0.064 C 
ATOM     23  N   UNL     1       1.291  26.907   7.460  0.00  0.00    +0.379 N 
ATOM     24  C   UNL     1       0.033  26.420   8.045  0.00  0.00    -0.096 C 
ATOM     25  H   UNL     1       1.108  27.101   6.377  0.00  0.00    -0.082 HD
ATOM     26  C   UNL     1       1.777  28.206   8.086  0.00  0.00    -0.064 C 
ATOM     27  C   UNL     1       3.103  28.676   7.425  0.00  0.00    +0.066 C 
ENDBRANCH  19  20
ENDBRANCH  18  19
ENDBRANCH  14  15
ENDBRANCH  12  13
TORSDOF 6
ENDMDL
