MODEL 1
REMARK VINA RESULT:      -9.3      0.000      0.000
REMARK  Name = C:\Users\Docking\Desktop\test protocol\1iep_ligandH.pdb
REMARK  8 active torsions:
REMARK  status: ('A' for Active; 'I' for Inactive)
REMARK    1  A    between atoms: _5  and  _11
REMARK    2  A    between atoms: _19  and  _21
REMARK    3  A    between atoms: _22  and  _66
REMARK    4  A    between atoms: _27  and  _30
REMARK    5  A    between atoms: _32  and  _33
REMARK    6  A    between atoms: _38  and  _43
REMARK    7  A    between atoms: _43  and  _46
REMARK    8  A    between atoms: _53  and  _55
REMARK                            x       y       z     vdW  Elec       q    Type
REMARK                         _______ _______ _______ _____ _____    ______ ____
ROOT
ATOM     10  C   UNL     1    -110.241  -1.146 -85.147  0.00  0.00    +0.038 A 
ATOM     11  C   UNL     1    -109.966  -1.860 -86.341  0.00  0.00    +0.047 A 
ATOM     12  C   UNL     1    -109.740  -1.166 -87.599  0.00  0.00    +0.035 A 
ATOM     32  C   UNL     1    -109.801   0.259 -87.604  0.00  0.00    +0.024 A 
ATOM     33  C   UNL     1    -110.081   1.001 -86.400  0.00  0.00    +0.007 A 
ATOM     34  C   UNL     1    -110.306   0.321 -85.157  0.00  0.00    -0.029 A 
ATOM     35  C   UNL     1    -110.609   1.167 -83.899  0.00  0.00    +0.045 C 
ENDROOT
BRANCH  10   9
ATOM      4  C   UNL     1    -113.110  -3.146 -81.860  0.00  0.00    +0.077 A 
ATOM      5  C   UNL     1    -114.294  -2.699 -82.535  0.00  0.00    +0.048 A 
ATOM      6  C   UNL     1    -114.121  -1.952 -83.722  0.00  0.00    +0.116 A 
ATOM      7  N   UNL     1    -112.854  -1.677 -84.189  0.00  0.00    -0.223 NA
ATOM      8  C   UNL     1    -111.733  -2.121 -83.512  0.00  0.00    +0.220 A 
ATOM      9  N   UNL     1    -110.449  -1.864 -83.967  0.00  0.00    -0.283 N 
ATOM     36  H   UNL     1    -109.648  -2.202 -83.435  0.00  0.00    +0.155 HD
ATOM     37  N   UNL     1    -111.871  -2.836 -82.376  0.00  0.00    -0.214 NA
BRANCH   4   3
ATOM      1  C   UNL     1    -112.280  -5.805 -79.114  0.00  0.00    +0.020 A 
ATOM      2  C   UNL     1    -112.221  -5.063 -80.352  0.00  0.00    +0.013 A 
ATOM      3  C   UNL     1    -113.128  -3.948 -80.596  0.00  0.00    +0.019 A 
ATOM     38  C   UNL     1    -114.090  -3.608 -79.558  0.00  0.00    +0.120 A 
ATOM     39  N   UNL     1    -114.125  -4.342 -78.377  0.00  0.00    -0.263 NA
ATOM     40  C   UNL     1    -113.258  -5.417 -78.132  0.00  0.00    +0.111 A 
ENDBRANCH   4   3
ENDBRANCH  10   9
BRANCH  12  13
ATOM     13  N   UNL     1    -109.464  -1.838 -88.844  0.00  0.00    -0.281 N 
ATOM     14  C   UNL     1    -110.271  -1.914 -89.968  0.00  0.00    +0.248 C 
ATOM     30  O   UNL     1    -111.450  -1.593 -89.995  0.00  0.00    -0.270 OA
ATOM     31  H   UNL     1    -108.565  -2.316 -88.905  0.00  0.00    +0.155 HD
BRANCH  14  15
ATOM     15  C   UNL     1    -109.688  -2.436 -91.241  0.00  0.00    +0.037 A 
ATOM     16  C   UNL     1    -110.463  -2.445 -92.485  0.00  0.00    +0.013 A 
ATOM     17  C   UNL     1    -109.882  -2.970 -93.695  0.00  0.00    +0.005 A 
ATOM     18  C   UNL     1    -108.517  -3.488 -93.668  0.00  0.00    -0.033 A 
ATOM     28  C   UNL     1    -107.768  -3.462 -92.422  0.00  0.00    +0.005 A 
ATOM     29  C   UNL     1    -108.335  -2.950 -91.234  0.00  0.00    +0.013 A 
BRANCH  18  19
ATOM     19  C   UNL     1    -107.825  -4.086 -94.907  0.00  0.00    +0.119 C 
BRANCH  19  20
ATOM     20  N   UNL     1    -108.438  -3.799 -96.238  0.00  0.00    -0.302 NA
ATOM     21  C   UNL     1    -108.131  -4.896 -97.261  0.00  0.00    +0.066 C 
ATOM     22  C   UNL     1    -108.798  -4.590 -98.642  0.00  0.00    -0.064 C 
ATOM     23  N   UNL     1    -108.318  -3.229 -99.147  0.00  0.00    +0.379 N 
ATOM     24  C   UNL     1    -108.899  -2.964-100.471  0.00  0.00    -0.096 C 
ATOM     25  H   UNL     1    -107.211  -3.284 -99.268  0.00  0.00    -0.082 HD
ATOM     26  C   UNL     1    -108.617  -2.132 -98.135  0.00  0.00    -0.064 C 
ATOM     27  C   UNL     1    -107.973  -2.460 -96.758  0.00  0.00    +0.066 C 
ENDBRANCH  19  20
ENDBRANCH  18  19
ENDBRANCH  14  15
ENDBRANCH  12  13
TORSDOF 6
ENDMDL
MODEL 2
REMARK VINA RESULT:      -8.8      3.477     14.417
REMARK  Name = C:\Users\Docking\Desktop\test protocol\1iep_ligandH.pdb
REMARK  8 active torsions:
REMARK  status: ('A' for Active; 'I' for Inactive)
REMARK    1  A    between atoms: _5  and  _11
REMARK    2  A    between atoms: _19  and  _21
REMARK    3  A    between atoms: _22  and  _66
REMARK    4  A    between atoms: _27  and  _30
REMARK    5  A    between atoms: _32  and  _33
REMARK    6  A    between atoms: _38  and  _43
REMARK    7  A    between atoms: _43  and  _46
REMARK    8  A    between atoms: _53  and  _55
REMARK                            x       y       z     vdW  Elec       q    Type
REMARK                         _______ _______ _______ _____ _____    ______ ____
ROOT
ATOM     10  C   UNL     1    -110.587  -0.334 -84.173  0.00  0.00    +0.038 A 
ATOM     11  C   UNL     1    -111.074  -1.283 -83.239  0.00  0.00    +0.047 A 
ATOM     12  C   UNL     1    -111.740  -0.861 -82.016  0.00  0.00    +0.035 A 
ATOM     32  C   UNL     1    -111.894   0.536 -81.778  0.00  0.00    +0.024 A 
ATOM     33  C   UNL     1    -111.403   1.514 -82.717  0.00  0.00    +0.007 A 
ATOM     34  C   UNL     1    -110.744   1.104 -83.923  0.00  0.00    -0.029 A 
ATOM     35  C   UNL     1    -110.232   2.196 -84.891  0.00  0.00    +0.045 C 
ENDROOT
BRANCH  10   9
ATOM      4  C   UNL     1    -110.609  -1.491 -88.832  0.00  0.00    +0.077 A 
ATOM      5  C   UNL     1    -112.003  -1.176 -88.964  0.00  0.00    +0.048 A 
ATOM      6  C   UNL     1    -112.679  -0.727 -87.807  0.00  0.00    +0.116 A 
ATOM      7  N   UNL     1    -112.002  -0.604 -86.613  0.00  0.00    -0.223 NA
ATOM      8  C   UNL     1    -110.658  -0.918 -86.520  0.00  0.00    +0.220 A 
ATOM      9  N   UNL     1    -109.956  -0.795 -85.331  0.00  0.00    -0.283 N 
ATOM     36  H   UNL     1    -108.967  -1.043 -85.302  0.00  0.00    +0.155 HD
ATOM     37  N   UNL     1    -109.990  -1.351 -87.609  0.00  0.00    -0.214 NA
BRANCH   4   3
ATOM      1  C   UNL     1    -109.318  -3.458 -91.956  0.00  0.00    +0.020 A 
ATOM      2  C   UNL     1    -110.179  -3.027 -90.879  0.00  0.00    +0.013 A 
ATOM      3  C   UNL     1    -109.757  -1.975 -89.963  0.00  0.00    +0.019 A 
ATOM     38  C   UNL     1    -108.448  -1.373 -90.168  0.00  0.00    +0.120 A 
ATOM     39  N   UNL     1    -107.640  -1.809 -91.213  0.00  0.00    -0.263 NA
ATOM     40  C   UNL     1    -108.035  -2.822 -92.099  0.00  0.00    +0.111 A 
ENDBRANCH   4   3
ENDBRANCH  10   9
BRANCH  12  13
ATOM     13  N   UNL     1    -112.248  -1.778 -81.026  0.00  0.00    -0.281 N 
ATOM     14  C   UNL     1    -113.157  -2.808 -81.207  0.00  0.00    +0.248 C 
ATOM     30  O   UNL     1    -113.837  -2.962 -82.211  0.00  0.00    -0.270 OA
ATOM     31  H   UNL     1    -111.895  -1.653 -80.077  0.00  0.00    +0.155 HD
BRANCH  14  15
ATOM     15  C   UNL     1    -113.349  -3.803 -80.108  0.00  0.00    +0.037 A 
ATOM     16  C   UNL     1    -112.510  -5.000 -80.010  0.00  0.00    +0.013 A 
ATOM     17  C   UNL     1    -112.728  -5.951 -78.950  0.00  0.00    +0.005 A 
ATOM     18  C   UNL     1    -113.790  -5.709 -77.977  0.00  0.00    -0.033 A 
ATOM     28  C   UNL     1    -114.604  -4.510 -78.094  0.00  0.00    +0.005 A 
ATOM     29  C   UNL     1    -114.394  -3.576 -79.132  0.00  0.00    +0.013 A 
BRANCH  18  19
ATOM     19  C   UNL     1    -114.107  -6.681 -76.825  0.00  0.00    +0.119 C 
BRANCH  19  20
ATOM     20  N   UNL     1    -114.474  -6.083 -75.507  0.00  0.00    -0.302 NA
ATOM     21  C   UNL     1    -113.260  -5.485 -74.790  0.00  0.00    +0.066 C 
ATOM     22  C   UNL     1    -113.665  -4.843 -73.423  0.00  0.00    -0.064 C 
ATOM     23  N   UNL     1    -114.344  -5.899 -72.549  0.00  0.00    +0.379 N 
ATOM     24  C   UNL     1    -114.674  -5.315 -71.241  0.00  0.00    -0.096 C 
ATOM     25  H   UNL     1    -113.609  -6.719 -72.377  0.00  0.00    -0.082 HD
ATOM     26  C   UNL     1    -115.551  -6.501 -73.255  0.00  0.00    -0.064 C 
ATOM     27  C   UNL     1    -115.142  -7.109 -74.626  0.00  0.00    +0.066 C 
ENDBRANCH  19  20
ENDBRANCH  18  19
ENDBRANCH  14  15
ENDBRANCH  12  13
TORSDOF 6
ENDMDL
MODEL 3
REMARK VINA RESULT:      -8.8      1.652      2.765
REMARK  Name = C:\Users\Docking\Desktop\test protocol\1iep_ligandH.pdb
REMARK  8 active torsions:
REMARK  status: ('A' for Active; 'I' for Inactive)
REMARK    1  A    between atoms: _5  and  _11
REMARK    2  A    between atoms: _19  and  _21
REMARK    3  A    between atoms: _22  and  _66
REMARK    4  A    between atoms: _27  and  _30
REMARK    5  A    between atoms: _32  and  _33
REMARK    6  A    between atoms: _38  and  _43
REMARK    7  A    between atoms: _43  and  _46
REMARK    8  A    between atoms: _53  and  _55
REMARK                            x       y       z     vdW  Elec       q    Type
REMARK                         _______ _______ _______ _____ _____    ______ ____
ROOT
ATOM     10  C   UNL     1    -112.041  -1.291 -83.502  0.00  0.00    +0.038 A 
ATOM     11  C   UNL     1    -111.654  -1.833 -84.754  0.00  0.00    +0.047 A 
ATOM     12  C   UNL     1    -110.757  -1.110 -85.642  0.00  0.00    +0.035 A 
ATOM     32  C   UNL     1    -110.270   0.162 -85.222  0.00  0.00    +0.024 A 
ATOM     33  C   UNL     1    -110.654   0.728 -83.953  0.00  0.00    +0.007 A 
ATOM     34  C   UNL     1    -111.541   0.021 -83.074  0.00  0.00    -0.029 A 
ATOM     35  C   UNL     1    -111.924   0.680 -81.728  0.00  0.00    +0.045 C 
ENDROOT
BRANCH  10   9
ATOM      4  C   UNL     1    -112.899  -4.697 -80.232  0.00  0.00    +0.077 A 
ATOM      5  C   UNL     1    -111.513  -5.058 -80.157  0.00  0.00    +0.048 A 
ATOM      6  C   UNL     1    -110.612  -4.347 -80.981  0.00  0.00    +0.116 A 
ATOM      7  N   UNL     1    -111.075  -3.352 -81.815  0.00  0.00    -0.223 NA
ATOM      8  C   UNL     1    -112.419  -3.030 -81.864  0.00  0.00    +0.220 A 
ATOM      9  N   UNL     1    -112.905  -2.028 -82.688  0.00  0.00    -0.283 N 
ATOM     36  H   UNL     1    -113.904  -1.826 -82.701  0.00  0.00    +0.155 HD
ATOM     37  N   UNL     1    -113.299  -3.695 -81.087  0.00  0.00    -0.214 NA
BRANCH   4   3
ATOM      1  C   UNL     1    -114.796  -6.572 -77.370  0.00  0.00    +0.020 A 
ATOM      2  C   UNL     1    -113.725  -5.950 -78.113  0.00  0.00    +0.013 A 
ATOM      3  C   UNL     1    -113.972  -5.354 -79.420  0.00  0.00    +0.019 A 
ATOM     38  C   UNL     1    -115.327  -5.404 -79.950  0.00  0.00    +0.120 A 
ATOM     39  N   UNL     1    -116.338  -6.011 -79.212  0.00  0.00    -0.263 NA
ATOM     40  C   UNL     1    -116.111  -6.589 -77.955  0.00  0.00    +0.111 A 
ENDBRANCH   4   3
ENDBRANCH  10   9
BRANCH  12  13
ATOM     13  N   UNL     1    -110.336  -1.607 -86.928  0.00  0.00    -0.281 N 
ATOM     14  C   UNL     1    -110.306  -0.928 -88.135  0.00  0.00    +0.248 C 
ATOM     30  O   UNL     1    -110.841   0.153 -88.334  0.00  0.00    -0.270 OA
ATOM     31  H   UNL     1    -110.022  -2.578 -86.952  0.00  0.00    +0.155 HD
BRANCH  14  15
ATOM     15  C   UNL     1    -109.589  -1.545 -89.293  0.00  0.00    +0.037 A 
ATOM     16  C   UNL     1    -108.610  -0.785 -90.073  0.00  0.00    +0.013 A 
ATOM     17  C   UNL     1    -107.946  -1.398 -91.196  0.00  0.00    +0.005 A 
ATOM     18  C   UNL     1    -108.259  -2.782 -91.544  0.00  0.00    -0.033 A 
ATOM     28  C   UNL     1    -109.231  -3.515 -90.750  0.00  0.00    +0.005 A 
ATOM     29  C   UNL     1    -109.885  -2.916 -89.650  0.00  0.00    +0.013 A 
BRANCH  18  19
ATOM     19  C   UNL     1    -107.615  -3.510 -92.739  0.00  0.00    +0.119 C 
BRANCH  19  20
ATOM     20  N   UNL     1    -108.505  -3.867 -93.883  0.00  0.00    -0.302 NA
ATOM     21  C   UNL     1    -107.708  -4.243 -95.135  0.00  0.00    +0.066 C 
ATOM     22  C   UNL     1    -108.655  -4.636 -96.316  0.00  0.00    -0.064 C 
ATOM     23  N   UNL     1    -109.608  -3.475 -96.609  0.00  0.00    +0.379 N 
ATOM     24  C   UNL     1    -110.460  -3.819 -97.756  0.00  0.00    -0.096 C 
ATOM     25  H   UNL     1    -108.989  -2.595 -96.899  0.00  0.00    -0.082 HD
ATOM     26  C   UNL     1    -110.402  -3.093 -95.368  0.00  0.00    -0.064 C 
ATOM     27  C   UNL     1    -109.452  -2.734 -94.192  0.00  0.00    +0.066 C 
ENDBRANCH  19  20
ENDBRANCH  18  19
ENDBRANCH  14  15
ENDBRANCH  12  13
TORSDOF 6
ENDMDL
MODEL 4
REMARK VINA RESULT:      -8.8      3.518     13.639
REMARK  Name = C:\Users\Docking\Desktop\test protocol\1iep_ligandH.pdb
REMARK  8 active torsions:
REMARK  status: ('A' for Active; 'I' for Inactive)
REMARK    1  A    between atoms: _5  and  _11
REMARK    2  A    between atoms: _19  and  _21
REMARK    3  A    between atoms: _22  and  _66
REMARK    4  A    between atoms: _27  and  _30
REMARK    5  A    between atoms: _32  and  _33
REMARK    6  A    between atoms: _38  and  _43
REMARK    7  A    between atoms: _43  and  _46
REMARK    8  A    between atoms: _53  and  _55
REMARK                            x       y       z     vdW  Elec       q    Type
REMARK                         _______ _______ _______ _____ _____    ______ ____
ROOT
ATOM     10  C   UNL     1    -110.620  -0.236 -84.111  0.00  0.00    +0.038 A 
ATOM     11  C   UNL     1    -111.126  -1.190 -83.191  0.00  0.00    +0.047 A 
ATOM     12  C   UNL     1    -111.800  -0.774 -81.971  0.00  0.00    +0.035 A 
ATOM     32  C   UNL     1    -111.943   0.622 -81.720  0.00  0.00    +0.024 A 
ATOM     33  C   UNL     1    -111.433   1.605 -82.643  0.00  0.00    +0.007 A 
ATOM     34  C   UNL     1    -110.766   1.201 -83.847  0.00  0.00    -0.029 A 
ATOM     35  C   UNL     1    -110.233   2.298 -84.798  0.00  0.00    +0.045 C 
ENDROOT
BRANCH  10   9
ATOM      4  C   UNL     1    -110.637  -1.465 -88.750  0.00  0.00    +0.077 A 
ATOM      5  C   UNL     1    -112.042  -1.204 -88.875  0.00  0.00    +0.048 A 
ATOM      6  C   UNL     1    -112.725  -0.762 -87.720  0.00  0.00    +0.116 A 
ATOM      7  N   UNL     1    -112.043  -0.596 -86.534  0.00  0.00    -0.223 NA
ATOM      8  C   UNL     1    -110.688  -0.858 -86.447  0.00  0.00    +0.220 A 
ATOM      9  N   UNL     1    -109.981  -0.691 -85.267  0.00  0.00    -0.283 N 
ATOM     36  H   UNL     1    -108.984  -0.902 -85.242  0.00  0.00    +0.155 HD
ATOM     37  N   UNL     1    -110.014  -1.283 -87.536  0.00  0.00    -0.214 NA
BRANCH   4   3
ATOM      1  C   UNL     1    -109.299  -3.429 -91.857  0.00  0.00    +0.020 A 
ATOM      2  C   UNL     1    -110.167  -3.014 -90.779  0.00  0.00    +0.013 A 
ATOM      3  C   UNL     1    -109.776  -1.934 -89.882  0.00  0.00    +0.019 A 
ATOM     38  C   UNL     1    -108.491  -1.289 -90.106  0.00  0.00    +0.120 A 
ATOM     39  N   UNL     1    -107.676  -1.711 -91.151  0.00  0.00    -0.263 NA
ATOM     40  C   UNL     1    -108.040  -2.750 -92.020  0.00  0.00    +0.111 A 
ENDBRANCH   4   3
ENDBRANCH  10   9
BRANCH  12  13
ATOM     13  N   UNL     1    -112.328  -1.696 -80.996  0.00  0.00    -0.281 N 
ATOM     14  C   UNL     1    -113.091  -2.831 -81.222  0.00  0.00    +0.248 C 
ATOM     30  O   UNL     1    -113.617  -3.107 -82.290  0.00  0.00    -0.270 OA
ATOM     31  H   UNL     1    -112.113  -1.488 -80.021  0.00  0.00    +0.155 HD
BRANCH  14  15
ATOM     15  C   UNL     1    -113.312  -3.788 -80.097  0.00  0.00    +0.037 A 
ATOM     16  C   UNL     1    -112.496  -4.997 -79.955  0.00  0.00    +0.013 A 
ATOM     17  C   UNL     1    -112.742  -5.913 -78.870  0.00  0.00    +0.005 A 
ATOM     18  C   UNL     1    -113.809  -5.622 -77.915  0.00  0.00    -0.033 A 
ATOM     28  C   UNL     1    -114.599  -4.413 -78.076  0.00  0.00    +0.005 A 
ATOM     29  C   UNL     1    -114.362  -3.514 -79.139  0.00  0.00    +0.013 A 
BRANCH  18  19
ATOM     19  C   UNL     1    -114.155  -6.554 -76.739  0.00  0.00    +0.119 C 
BRANCH  19  20
ATOM     20  N   UNL     1    -115.366  -7.416 -76.883  0.00  0.00    -0.302 NA
ATOM     21  C   UNL     1    -115.426  -8.506 -75.810  0.00  0.00    +0.066 C 
ATOM     22  C   UNL     1    -116.710  -9.384 -75.961  0.00  0.00    -0.064 C 
ATOM     23  N   UNL     1    -116.742 -10.000 -77.361  0.00  0.00    +0.379 N 
ATOM     24  C   UNL     1    -117.918 -10.872 -77.488  0.00  0.00    -0.096 C 
ATOM     25  H   UNL     1    -115.834 -10.638 -77.470  0.00  0.00    -0.082 HD
ATOM     26  C   UNL     1    -116.680  -8.922 -78.435  0.00  0.00    -0.064 C 
ATOM     27  C   UNL     1    -115.415  -8.037 -78.257  0.00  0.00    +0.066 C 
ENDBRANCH  19  20
ENDBRANCH  18  19
ENDBRANCH  14  15
ENDBRANCH  12  13
TORSDOF 6
ENDMDL
MODEL 5
REMARK VINA RESULT:      -8.8      4.958     14.041
REMARK  Name = C:\Users\Docking\Desktop\test protocol\1iep_ligandH.pdb
REMARK  8 active torsions:
REMARK  status: ('A' for Active; 'I' for Inactive)
REMARK    1  A    between atoms: _5  and  _11
REMARK    2  A    between atoms: _19  and  _21
REMARK    3  A    between atoms: _22  and  _66
REMARK    4  A    between atoms: _27  and  _30
REMARK    5  A    between atoms: _32  and  _33
REMARK    6  A    between atoms: _38  and  _43
REMARK    7  A    between atoms: _43  and  _46
REMARK    8  A    between atoms: _53  and  _55
REMARK                            x       y       z     vdW  Elec       q    Type
REMARK                         _______ _______ _______ _____ _____    ______ ____
ROOT
ATOM     10  C   UNL     1    -111.670  -4.957 -99.355  0.00  0.00    +0.038 A 
ATOM     11  C   UNL     1    -111.308  -4.657 -98.017  0.00  0.00    +0.047 A 
ATOM     12  C   UNL     1    -110.304  -3.648 -97.717  0.00  0.00    +0.035 A 
ATOM     32  C   UNL     1    -109.691  -2.962 -98.806  0.00  0.00    +0.024 A 
ATOM     33  C   UNL     1    -110.046  -3.255-100.172  0.00  0.00    +0.007 A 
ATOM     34  C   UNL     1    -111.034  -4.252-100.473  0.00  0.00    -0.029 A 
ATOM     35  C   UNL     1    -111.370  -4.530-101.957  0.00  0.00    +0.045 C 
ENDROOT
BRANCH  10   9
ATOM      4  C   UNL     1    -113.364  -9.426 -98.910  0.00  0.00    +0.077 A 
ATOM      5  C   UNL     1    -112.206  -9.856 -98.181  0.00  0.00    +0.048 A 
ATOM      6  C   UNL     1    -111.194  -8.898 -97.948  0.00  0.00    +0.116 A 
ATOM      7  N   UNL     1    -111.340  -7.609 -98.413  0.00  0.00    -0.223 NA
ATOM      8  C   UNL     1    -112.469  -7.228 -99.114  0.00  0.00    +0.220 A 
ATOM      9  N   UNL     1    -112.641  -5.935 -99.585  0.00  0.00    -0.283 N 
ATOM     36  H   UNL     1    -113.485  -5.696-100.104  0.00  0.00    +0.155 HD
ATOM     37  N   UNL     1    -113.449  -8.125 -99.351  0.00  0.00    -0.214 NA
BRANCH   4   3
ATOM      1  C   UNL     1    -115.938 -11.650-100.841  0.00  0.00    +0.020 A 
ATOM      2  C   UNL     1    -114.809 -10.786-100.583  0.00  0.00    +0.013 A 
ATOM      3  C   UNL     1    -114.520 -10.321 -99.233  0.00  0.00    +0.019 A 
ATOM     38  C   UNL     1    -115.400 -10.752 -98.157  0.00  0.00    +0.120 A 
ATOM     39  N   UNL     1    -116.481 -11.582 -98.436  0.00  0.00    -0.263 NA
ATOM     40  C   UNL     1    -116.770 -12.035 -99.732  0.00  0.00    +0.111 A 
ENDBRANCH   4   3
ENDBRANCH  10   9
BRANCH  12  13
ATOM     13  N   UNL     1    -109.890  -3.306 -96.379  0.00  0.00    -0.281 N 
ATOM     14  C   UNL     1    -110.672  -2.821 -95.344  0.00  0.00    +0.248 C 
ATOM     30  O   UNL     1    -111.814  -2.405 -95.476  0.00  0.00    -0.270 OA
ATOM     31  H   UNL     1    -108.900  -3.436 -96.170  0.00  0.00    +0.155 HD
BRANCH  14  15
ATOM     15  C   UNL     1    -110.099  -2.781 -93.964  0.00  0.00    +0.037 A 
ATOM     16  C   UNL     1    -108.828  -3.439 -93.649  0.00  0.00    +0.013 A 
ATOM     17  C   UNL     1    -108.306  -3.399 -92.306  0.00  0.00    +0.005 A 
ATOM     18  C   UNL     1    -109.054  -2.695 -91.268  0.00  0.00    -0.033 A 
ATOM     28  C   UNL     1    -110.310  -2.046 -91.608  0.00  0.00    +0.005 A 
ATOM     29  C   UNL     1    -110.825  -2.085 -92.923  0.00  0.00    +0.013 A 
BRANCH  18  19
ATOM     19  C   UNL     1    -108.583  -2.619 -89.803  0.00  0.00    +0.119 C 
BRANCH  19  20
ATOM     20  N   UNL     1    -109.411  -1.810 -88.860  0.00  0.00    -0.302 NA
ATOM     21  C   UNL     1    -108.748  -0.473 -88.516  0.00  0.00    +0.066 C 
ATOM     22  C   UNL     1    -109.638   0.370 -87.546  0.00  0.00    -0.064 C 
ATOM     23  N   UNL     1    -109.913  -0.439 -86.278  0.00  0.00    +0.379 N 
ATOM     24  C   UNL     1    -110.701   0.373 -85.339  0.00  0.00    -0.096 C 
ATOM     25  H   UNL     1    -108.932  -0.657 -85.796  0.00  0.00    -0.082 HD
ATOM     26  C   UNL     1    -110.570  -1.771 -86.610  0.00  0.00    -0.064 C 
ATOM     27  C   UNL     1    -109.692  -2.589 -87.598  0.00  0.00    +0.066 C 
ENDBRANCH  19  20
ENDBRANCH  18  19
ENDBRANCH  14  15
ENDBRANCH  12  13
TORSDOF 6
ENDMDL
