MODEL 1
REMARK VINA RESULT:      -9.4      0.000      0.000
REMARK  Name = C:\Users\Docking\Desktop\test protocol\1iep_ligandH.pdb
REMARK  8 active torsions:
REMARK  status: ('A' for Active; 'I' for Inactive)
REMARK    1  A    between atoms: _5  and  _11
REMARK    2  A    between atoms: _19  and  _21
REMARK    3  A    between atoms: _22  and  _66
REMARK    4  A    between atoms: _27  and  _30
REMARK    5  A    between atoms: _32  and  _33
REMARK    6  A    between atoms: _38  and  _43
REMARK    7  A    between atoms: _43  and  _46
REMARK    8  A    between atoms: _53  and  _55
REMARK                            x       y       z     vdW  Elec       q    Type
REMARK                         _______ _______ _______ _____ _____    ______ ____
ROOT
ATOM     10  C   UNL     1      56.976   3.315  22.378  0.00  0.00    +0.038 A 
ATOM     11  C   UNL     1      57.904   3.039  21.341  0.00  0.00    +0.047 A 
ATOM     12  C   UNL     1      57.473   2.451  20.082  0.00  0.00    +0.035 A 
ATOM     32  C   UNL     1      56.089   2.159  19.912  0.00  0.00    +0.024 A 
ATOM     33  C   UNL     1      55.132   2.432  20.955  0.00  0.00    +0.007 A 
ATOM     34  C   UNL     1      55.551   3.009  22.200  0.00  0.00    -0.029 A 
ATOM     35  C   UNL     1      54.482   3.274  23.286  0.00  0.00    +0.045 C 
ENDROOT
BRANCH  10   9
ATOM      4  C   UNL     1      58.305   7.083  25.036  0.00  0.00    +0.077 A 
ATOM      5  C   UNL     1      58.072   8.001  23.959  0.00  0.00    +0.048 A 
ATOM      6  C   UNL     1      57.617   7.462  22.734  0.00  0.00    +0.116 A 
ATOM      7  N   UNL     1      57.414   6.105  22.609  0.00  0.00    -0.223 NA
ATOM      8  C   UNL     1      57.650   5.247  23.667  0.00  0.00    +0.220 A 
ATOM      9  N   UNL     1      57.444   3.880  23.566  0.00  0.00    -0.283 N 
ATOM     36  H   UNL     1      57.637   3.280  24.368  0.00  0.00    +0.155 HD
ATOM     37  N   UNL     1      58.085   5.737  24.847  0.00  0.00    -0.214 NA
BRANCH   4   3
ATOM      1  C   UNL     1      60.483   8.533  27.944  0.00  0.00    +0.020 A 
ATOM      2  C   UNL     1      60.069   8.150  26.614  0.00  0.00    +0.013 A 
ATOM      3  C   UNL     1      58.783   7.500  26.392  0.00  0.00    +0.019 A 
ATOM     38  C   UNL     1      57.933   7.252  27.547  0.00  0.00    +0.120 A 
ATOM     39  N   UNL     1      58.359   7.631  28.816  0.00  0.00    -0.263 NA
ATOM     40  C   UNL     1      59.595   8.255  29.042  0.00  0.00    +0.111 A 
ENDBRANCH   4   3
ENDBRANCH  10   9
BRANCH  12  13
ATOM     13  N   UNL     1      58.371   2.142  18.997  0.00  0.00    -0.281 N 
ATOM     14  C   UNL     1      58.081   2.077  17.644  0.00  0.00    +0.248 C 
ATOM     30  O   UNL     1      56.951   2.067  17.179  0.00  0.00    -0.270 OA
ATOM     31  H   UNL     1      59.338   1.947  19.258  0.00  0.00    +0.155 HD
BRANCH  14  15
ATOM     15  C   UNL     1      59.209   1.998  16.667  0.00  0.00    +0.037 A 
ATOM     16  C   UNL     1      59.137   2.670  15.367  0.00  0.00    +0.013 A 
ATOM     17  C   UNL     1      60.233   2.564  14.436  0.00  0.00    +0.005 A 
ATOM     18  C   UNL     1      61.411   1.783  14.803  0.00  0.00    -0.033 A 
ATOM     28  C   UNL     1      61.459   1.130  16.101  0.00  0.00    +0.005 A 
ATOM     29  C   UNL     1      60.386   1.232  17.016  0.00  0.00    +0.013 A 
BRANCH  18  19
ATOM     19  C   UNL     1      62.618   1.597  13.864  0.00  0.00    +0.119 C 
BRANCH  19  20
ATOM     20  N   UNL     1      63.921   1.226  14.491  0.00  0.00    -0.302 NA
ATOM     21  C   UNL     1      64.749   2.457  14.869  0.00  0.00    +0.066 C 
ATOM     22  C   UNL     1      66.099   2.050  15.544  0.00  0.00    -0.064 C 
ATOM     23  N   UNL     1      66.885   1.140  14.598  0.00  0.00    +0.379 N 
ATOM     24  C   UNL     1      68.180   0.802  15.205  0.00  0.00    -0.096 C 
ATOM     25  H   UNL     1      67.088   1.716  13.665  0.00  0.00    -0.082 HD
ATOM     26  C   UNL     1      66.068  -0.086  14.215  0.00  0.00    -0.064 C 
ATOM     27  C   UNL     1      64.715   0.330  13.572  0.00  0.00    +0.066 C 
ENDBRANCH  19  20
ENDBRANCH  18  19
ENDBRANCH  14  15
ENDBRANCH  12  13
TORSDOF 6
ENDMDL
MODEL 2
REMARK VINA RESULT:      -8.6      2.701      3.477
REMARK  Name = C:\Users\Docking\Desktop\test protocol\1iep_ligandH.pdb
REMARK  8 active torsions:
REMARK  status: ('A' for Active; 'I' for Inactive)
REMARK    1  A    between atoms: _5  and  _11
REMARK    2  A    between atoms: _19  and  _21
REMARK    3  A    between atoms: _22  and  _66
REMARK    4  A    between atoms: _27  and  _30
REMARK    5  A    between atoms: _32  and  _33
REMARK    6  A    between atoms: _38  and  _43
REMARK    7  A    between atoms: _43  and  _46
REMARK    8  A    between atoms: _53  and  _55
REMARK                            x       y       z     vdW  Elec       q    Type
REMARK                         _______ _______ _______ _____ _____    ______ ____
ROOT
ATOM     10  C   UNL     1      57.606   3.379  22.661  0.00  0.00    +0.038 A 
ATOM     11  C   UNL     1      58.246   3.431  21.396  0.00  0.00    +0.047 A 
ATOM     12  C   UNL     1      57.614   2.875  20.210  0.00  0.00    +0.035 A 
ATOM     32  C   UNL     1      56.329   2.274  20.347  0.00  0.00    +0.024 A 
ATOM     33  C   UNL     1      55.665   2.211  21.626  0.00  0.00    +0.007 A 
ATOM     34  C   UNL     1      56.284   2.756  22.800  0.00  0.00    -0.029 A 
ATOM     35  C   UNL     1      55.528   2.655  24.145  0.00  0.00    +0.045 C 
ENDROOT
BRANCH  10   9
ATOM      4  C   UNL     1      58.924   7.114  25.371  0.00  0.00    +0.077 A 
ATOM      5  C   UNL     1      58.282   8.052  24.496  0.00  0.00    +0.048 A 
ATOM      6  C   UNL     1      57.630   7.533  23.355  0.00  0.00    +0.116 A 
ATOM      7  N   UNL     1      57.626   6.175  23.118  0.00  0.00    -0.223 NA
ATOM      8  C   UNL     1      58.256   5.298  23.982  0.00  0.00    +0.220 A 
ATOM      9  N   UNL     1      58.258   3.929  23.767  0.00  0.00    -0.283 N 
ATOM     36  H   UNL     1      58.741   3.316  24.423  0.00  0.00    +0.155 HD
ATOM     37  N   UNL     1      58.888   5.769  25.077  0.00  0.00    -0.214 NA
BRANCH   4   3
ATOM      1  C   UNL     1      61.760   7.904  27.947  0.00  0.00    +0.020 A 
ATOM      2  C   UNL     1      61.106   7.515  26.719  0.00  0.00    +0.013 A 
ATOM      3  C   UNL     1      59.652   7.508  26.619  0.00  0.00    +0.019 A 
ATOM     38  C   UNL     1      58.883   7.905  27.789  0.00  0.00    +0.120 A 
ATOM     39  N   UNL     1      59.540   8.273  28.958  0.00  0.00    -0.263 NA
ATOM     40  C   UNL     1      60.939   8.282  29.067  0.00  0.00    +0.111 A 
ENDBRANCH   4   3
ENDBRANCH  10   9
BRANCH  12  13
ATOM     13  N   UNL     1      58.219   2.891  18.901  0.00  0.00    -0.281 N 
ATOM     14  C   UNL     1      58.835   1.845  18.234  0.00  0.00    +0.248 C 
ATOM     30  O   UNL     1      59.151   0.785  18.753  0.00  0.00    -0.270 OA
ATOM     31  H   UNL     1      58.188   3.783  18.406  0.00  0.00    +0.155 HD
BRANCH  14  15
ATOM     15  C   UNL     1      59.161   2.005  16.784  0.00  0.00    +0.037 A 
ATOM     16  C   UNL     1      60.435   1.532  16.235  0.00  0.00    +0.013 A 
ATOM     17  C   UNL     1      60.731   1.715  14.836  0.00  0.00    +0.005 A 
ATOM     18  C   UNL     1      59.751   2.373  13.976  0.00  0.00    -0.033 A 
ATOM     28  C   UNL     1      58.493   2.827  14.546  0.00  0.00    +0.005 A 
ATOM     29  C   UNL     1      58.200   2.651  15.917  0.00  0.00    +0.013 A 
BRANCH  18  19
ATOM     19  C   UNL     1      59.992   2.628  12.476  0.00  0.00    +0.119 C 
BRANCH  19  20
ATOM     20  N   UNL     1      59.902   1.453  11.560  0.00  0.00    -0.302 NA
ATOM     21  C   UNL     1      58.874   0.425  12.041  0.00  0.00    +0.066 C 
ATOM     22  C   UNL     1      58.777  -0.787  11.058  0.00  0.00    -0.064 C 
ATOM     23  N   UNL     1      60.157  -1.430  10.909  0.00  0.00    +0.379 N 
ATOM     24  C   UNL     1      60.058  -2.605  10.031  0.00  0.00    -0.096 C 
ATOM     25  H   UNL     1      60.474  -1.786  11.917  0.00  0.00    -0.082 HD
ATOM     26  C   UNL     1      61.186  -0.415  10.433  0.00  0.00    -0.064 C 
ATOM     27  C   UNL     1      61.253   0.800  11.401  0.00  0.00    +0.066 C 
ENDBRANCH  19  20
ENDBRANCH  18  19
ENDBRANCH  14  15
ENDBRANCH  12  13
TORSDOF 6
ENDMDL
MODEL 3
REMARK VINA RESULT:      -8.4      5.677     12.671
REMARK  Name = C:\Users\Docking\Desktop\test protocol\1iep_ligandH.pdb
REMARK  8 active torsions:
REMARK  status: ('A' for Active; 'I' for Inactive)
REMARK    1  A    between atoms: _5  and  _11
REMARK    2  A    between atoms: _19  and  _21
REMARK    3  A    between atoms: _22  and  _66
REMARK    4  A    between atoms: _27  and  _30
REMARK    5  A    between atoms: _32  and  _33
REMARK    6  A    between atoms: _38  and  _43
REMARK    7  A    between atoms: _43  and  _46
REMARK    8  A    between atoms: _53  and  _55
REMARK                            x       y       z     vdW  Elec       q    Type
REMARK                         _______ _______ _______ _____ _____    ______ ____
ROOT
ATOM     10  C   UNL     1      59.557   6.416  23.493  0.00  0.00    +0.038 A 
ATOM     11  C   UNL     1      60.551   5.907  24.367  0.00  0.00    +0.047 A 
ATOM     12  C   UNL     1      60.732   6.454  25.702  0.00  0.00    +0.035 A 
ATOM     32  C   UNL     1      59.881   7.519  26.117  0.00  0.00    +0.024 A 
ATOM     33  C   UNL     1      58.865   8.050  25.242  0.00  0.00    +0.007 A 
ATOM     34  C   UNL     1      58.684   7.516  23.922  0.00  0.00    -0.029 A 
ATOM     35  C   UNL     1      57.584   8.129  23.024  0.00  0.00    +0.045 C 
ENDROOT
BRANCH  10   9
ATOM      4  C   UNL     1      58.167   2.891  20.548  0.00  0.00    +0.077 A 
ATOM      5  C   UNL     1      57.684   2.091  21.637  0.00  0.00    +0.048 A 
ATOM      6  C   UNL     1      57.818   2.621  22.940  0.00  0.00    +0.116 A 
ATOM      7  N   UNL     1      58.394   3.858  23.128  0.00  0.00    -0.223 NA
ATOM      8  C   UNL     1      58.851   4.603  22.056  0.00  0.00    +0.220 A 
ATOM      9  N   UNL     1      59.427   5.853  22.222  0.00  0.00    -0.283 N 
ATOM     36  H   UNL     1      59.758   6.367  21.406  0.00  0.00    +0.155 HD
ATOM     37  N   UNL     1      58.736   4.119  20.802  0.00  0.00    -0.214 NA
BRANCH   4   3
ATOM      1  C   UNL     1      59.075   2.221  16.803  0.00  0.00    +0.020 A 
ATOM      2  C   UNL     1      59.198   2.645  18.178  0.00  0.00    +0.013 A 
ATOM      3  C   UNL     1      58.093   2.470  19.113  0.00  0.00    +0.019 A 
ATOM     38  C   UNL     1      56.869   1.856  18.620  0.00  0.00    +0.120 A 
ATOM     39  N   UNL     1      56.780   1.459  17.290  0.00  0.00    -0.263 NA
ATOM     40  C   UNL     1      57.835   1.624  16.381  0.00  0.00    +0.111 A 
ENDBRANCH   4   3
ENDBRANCH  10   9
BRANCH  12  13
ATOM     13  N   UNL     1      61.730   5.982  26.630  0.00  0.00    -0.281 N 
ATOM     14  C   UNL     1      63.060   6.360  26.715  0.00  0.00    +0.248 C 
ATOM     30  O   UNL     1      63.650   7.008  25.863  0.00  0.00    -0.270 OA
ATOM     31  H   UNL     1      61.418   5.286  27.306  0.00  0.00    +0.155 HD
BRANCH  14  15
ATOM     15  C   UNL     1      63.853   5.946  27.912  0.00  0.00    +0.037 A 
ATOM     16  C   UNL     1      63.243   5.175  28.998  0.00  0.00    +0.013 A 
ATOM     17  C   UNL     1      64.027   4.803  30.150  0.00  0.00    +0.005 A 
ATOM     18  C   UNL     1      65.430   5.202  30.220  0.00  0.00    -0.033 A 
ATOM     28  C   UNL     1      66.012   5.962  29.126  0.00  0.00    +0.005 A 
ATOM     29  C   UNL     1      65.247   6.329  27.996  0.00  0.00    +0.013 A 
BRANCH  18  19
ATOM     19  C   UNL     1      66.336   4.868  31.420  0.00  0.00    +0.119 C 
BRANCH  19  20
ATOM     20  N   UNL     1      67.198   5.964  31.953  0.00  0.00    -0.302 NA
ATOM     21  C   UNL     1      68.686   5.690  31.719  0.00  0.00    +0.066 C 
ATOM     22  C   UNL     1      69.573   6.858  32.263  0.00  0.00    -0.064 C 
ATOM     23  N   UNL     1      69.287   7.061  33.752  0.00  0.00    +0.379 N 
ATOM     24  C   UNL     1      70.160   8.120  34.279  0.00  0.00    -0.096 C 
ATOM     25  H   UNL     1      69.547   6.114  34.278  0.00  0.00    -0.082 HD
ATOM     26  C   UNL     1      67.808   7.332  33.993  0.00  0.00    -0.064 C 
ATOM     27  C   UNL     1      66.935   6.180  33.423  0.00  0.00    +0.066 C 
ENDBRANCH  19  20
ENDBRANCH  18  19
ENDBRANCH  14  15
ENDBRANCH  12  13
TORSDOF 6
ENDMDL
MODEL 4
REMARK VINA RESULT:      -8.4      3.608      6.955
REMARK  Name = C:\Users\Docking\Desktop\test protocol\1iep_ligandH.pdb
REMARK  8 active torsions:
REMARK  status: ('A' for Active; 'I' for Inactive)
REMARK    1  A    between atoms: _5  and  _11
REMARK    2  A    between atoms: _19  and  _21
REMARK    3  A    between atoms: _22  and  _66
REMARK    4  A    between atoms: _27  and  _30
REMARK    5  A    between atoms: _32  and  _33
REMARK    6  A    between atoms: _38  and  _43
REMARK    7  A    between atoms: _43  and  _46
REMARK    8  A    between atoms: _53  and  _55
REMARK                            x       y       z     vdW  Elec       q    Type
REMARK                         _______ _______ _______ _____ _____    ______ ____
ROOT
ATOM     10  C   UNL     1      58.294   6.941  26.929  0.00  0.00    +0.038 A 
ATOM     11  C   UNL     1      57.860   6.043  25.921  0.00  0.00    +0.047 A 
ATOM     12  C   UNL     1      58.775   5.560  24.898  0.00  0.00    +0.035 A 
ATOM     32  C   UNL     1      60.127   6.010  24.935  0.00  0.00    +0.024 A 
ATOM     33  C   UNL     1      60.585   6.924  25.952  0.00  0.00    +0.007 A 
ATOM     34  C   UNL     1      59.686   7.405  26.962  0.00  0.00    -0.029 A 
ATOM     35  C   UNL     1      60.230   8.389  28.024  0.00  0.00    +0.045 C 
ENDROOT
BRANCH  10   9
ATOM      4  C   UNL     1      55.964   6.432  31.095  0.00  0.00    +0.077 A 
ATOM      5  C   UNL     1      56.619   5.186  31.376  0.00  0.00    +0.048 A 
ATOM      6  C   UNL     1      57.542   4.708  30.420  0.00  0.00    +0.116 A 
ATOM      7  N   UNL     1      57.786   5.430  29.272  0.00  0.00    -0.223 NA
ATOM      8  C   UNL     1      57.137   6.627  29.030  0.00  0.00    +0.220 A 
ATOM      9  N   UNL     1      57.372   7.373  27.886  0.00  0.00    -0.283 N 
ATOM     36  H   UNL     1      56.867   8.247  27.741  0.00  0.00    +0.155 HD
ATOM     37  N   UNL     1      56.249   7.104  29.927  0.00  0.00    -0.214 NA
BRANCH   4   3
ATOM      1  C   UNL     1      53.388   8.932  32.648  0.00  0.00    +0.020 A 
ATOM      2  C   UNL     1      54.348   8.360  31.732  0.00  0.00    +0.013 A 
ATOM      3  C   UNL     1      54.965   7.069  32.009  0.00  0.00    +0.019 A 
ATOM     38  C   UNL     1      54.585   6.376  33.231  0.00  0.00    +0.120 A 
ATOM     39  N   UNL     1      53.658   6.951  34.095  0.00  0.00    -0.263 NA
ATOM     40  C   UNL     1      53.060   8.194  33.840  0.00  0.00    +0.111 A 
ENDBRANCH   4   3
ENDBRANCH  10   9
BRANCH  12  13
ATOM     13  N   UNL     1      58.390   4.654  23.845  0.00  0.00    -0.281 N 
ATOM     14  C   UNL     1      57.755   4.957  22.652  0.00  0.00    +0.248 C 
ATOM     30  O   UNL     1      57.227   6.030  22.402  0.00  0.00    -0.270 OA
ATOM     31  H   UNL     1      58.612   3.670  23.998  0.00  0.00    +0.155 HD
BRANCH  14  15
ATOM     15  C   UNL     1      57.682   3.910  21.587  0.00  0.00    +0.037 A 
ATOM     16  C   UNL     1      56.452   3.152  21.349  0.00  0.00    +0.013 A 
ATOM     17  C   UNL     1      56.414   2.136  20.327  0.00  0.00    +0.005 A 
ATOM     18  C   UNL     1      57.612   1.874  19.533  0.00  0.00    -0.033 A 
ATOM     28  C   UNL     1      58.818   2.646  19.786  0.00  0.00    +0.005 A 
ATOM     29  C   UNL     1      58.859   3.641  20.788  0.00  0.00    +0.013 A 
BRANCH  18  19
ATOM     19  C   UNL     1      57.670   0.795  18.436  0.00  0.00    +0.119 C 
BRANCH  19  20
ATOM     20  N   UNL     1      58.320   1.167  17.144  0.00  0.00    -0.302 NA
ATOM     21  C   UNL     1      57.495   2.192  16.360  0.00  0.00    +0.066 C 
ATOM     22  C   UNL     1      58.201   2.587  15.022  0.00  0.00    -0.064 C 
ATOM     23  N   UNL     1      58.440   1.329  14.184  0.00  0.00    +0.379 N 
ATOM     24  C   UNL     1      59.051   1.704  12.901  0.00  0.00    -0.096 C 
ATOM     25  H   UNL     1      57.446   0.875  13.966  0.00  0.00    -0.082 HD
ATOM     26  C   UNL     1      59.257   0.304  14.957  0.00  0.00    -0.064 C 
ATOM     27  C   UNL     1      58.561  -0.060  16.299  0.00  0.00    +0.066 C 
ENDBRANCH  19  20
ENDBRANCH  18  19
ENDBRANCH  14  15
ENDBRANCH  12  13
TORSDOF 6
ENDMDL
MODEL 5
REMARK VINA RESULT:      -8.3      1.963      2.635
REMARK  Name = C:\Users\Docking\Desktop\test protocol\1iep_ligandH.pdb
REMARK  8 active torsions:
REMARK  status: ('A' for Active; 'I' for Inactive)
REMARK    1  A    between atoms: _5  and  _11
REMARK    2  A    between atoms: _19  and  _21
REMARK    3  A    between atoms: _22  and  _66
REMARK    4  A    between atoms: _27  and  _30
REMARK    5  A    between atoms: _32  and  _33
REMARK    6  A    between atoms: _38  and  _43
REMARK    7  A    between atoms: _43  and  _46
REMARK    8  A    between atoms: _53  and  _55
REMARK                            x       y       z     vdW  Elec       q    Type
REMARK                         _______ _______ _______ _____ _____    ______ ____
ROOT
ATOM     10  C   UNL     1      57.224   3.389  22.329  0.00  0.00    +0.038 A 
ATOM     11  C   UNL     1      58.107   3.274  21.225  0.00  0.00    +0.047 A 
ATOM     12  C   UNL     1      57.661   2.713  19.959  0.00  0.00    +0.035 A 
ATOM     32  C   UNL     1      56.307   2.282  19.851  0.00  0.00    +0.024 A 
ATOM     33  C   UNL     1      55.396   2.390  20.963  0.00  0.00    +0.007 A 
ATOM     34  C   UNL     1      55.831   2.940  22.215  0.00  0.00    -0.029 A 
ATOM     35  C   UNL     1      54.812   3.027  23.376  0.00  0.00    +0.045 C 
ENDROOT
BRANCH  10   9
ATOM      4  C   UNL     1      58.459   7.124  25.079  0.00  0.00    +0.077 A 
ATOM      5  C   UNL     1      58.144   8.066  24.043  0.00  0.00    +0.048 A 
ATOM      6  C   UNL     1      57.673   7.548  22.816  0.00  0.00    +0.116 A 
ATOM      7  N   UNL     1      57.532   6.188  22.647  0.00  0.00    -0.223 NA
ATOM      8  C   UNL     1      57.847   5.306  23.666  0.00  0.00    +0.220 A 
ATOM      9  N   UNL     1      57.705   3.935  23.521  0.00  0.00    -0.283 N 
ATOM     36  H   UNL     1      57.955   3.318  24.293  0.00  0.00    +0.155 HD
ATOM     37  N   UNL     1      58.299   5.776  24.847  0.00  0.00    -0.214 NA
BRANCH   4   3
ATOM      1  C   UNL     1      60.781   8.283  28.005  0.00  0.00    +0.020 A 
ATOM      2  C   UNL     1      60.344   7.913  26.679  0.00  0.00    +0.013 A 
ATOM      3  C   UNL     1      58.964   7.517  26.432  0.00  0.00    +0.019 A 
ATOM     38  C   UNL     1      58.042   7.508  27.558  0.00  0.00    +0.120 A 
ATOM     39  N   UNL     1      58.491   7.868  28.825  0.00  0.00    -0.263 NA
ATOM     40  C   UNL     1      59.818   8.249  29.074  0.00  0.00    +0.111 A 
ENDBRANCH   4   3
ENDBRANCH  10   9
BRANCH  12  13
ATOM     13  N   UNL     1      58.515   2.564  18.807  0.00  0.00    -0.281 N 
ATOM     14  C   UNL     1      59.079   1.401  18.310  0.00  0.00    +0.248 C 
ATOM     30  O   UNL     1      59.109   0.336  18.909  0.00  0.00    -0.270 OA
ATOM     31  H   UNL     1      58.730   3.420  18.296  0.00  0.00    +0.155 HD
BRANCH  14  15
ATOM     15  C   UNL     1      59.716   1.427  16.958  0.00  0.00    +0.037 A 
ATOM     16  C   UNL     1      61.049   0.861  16.734  0.00  0.00    +0.013 A 
ATOM     17  C   UNL     1      61.647   0.915  15.424  0.00  0.00    +0.005 A 
ATOM     18  C   UNL     1      60.911   1.537  14.326  0.00  0.00    -0.033 A 
ATOM     28  C   UNL     1      59.588   2.086  14.575  0.00  0.00    +0.005 A 
ATOM     29  C   UNL     1      58.999   2.036  15.858  0.00  0.00    +0.013 A 
BRANCH  18  19
ATOM     19  C   UNL     1      61.480   1.658  12.900  0.00  0.00    +0.119 C 
BRANCH  19  20
ATOM     20  N   UNL     1      61.833   0.389  12.195  0.00  0.00    -0.302 NA
ATOM     21  C   UNL     1      63.312   0.031  12.362  0.00  0.00    +0.066 C 
ATOM     22  C   UNL     1      63.658  -1.310  11.637  0.00  0.00    -0.064 C 
ATOM     23  N   UNL     1      63.293  -1.195  10.156  0.00  0.00    +0.379 N 
ATOM     24  C   UNL     1      63.671  -2.434   9.460  0.00  0.00    -0.096 C 
ATOM     25  H   UNL     1      63.898  -0.365   9.722  0.00  0.00    -0.082 HD
ATOM     26  C   UNL     1      61.824  -0.836   9.981  0.00  0.00    -0.064 C 
ATOM     27  C   UNL     1      61.484   0.483  10.730  0.00  0.00    +0.066 C 
ENDBRANCH  19  20
ENDBRANCH  18  19
ENDBRANCH  14  15
ENDBRANCH  12  13
TORSDOF 6
ENDMDL
