MODEL 1
REMARK VINA RESULT:     -10.8      0.000      0.000
REMARK  Name = C:\Users\Docking\Desktop\test protocol\1iep_ligandH.pdb
REMARK  8 active torsions:
REMARK  status: ('A' for Active; 'I' for Inactive)
REMARK    1  A    between atoms: _5  and  _11
REMARK    2  A    between atoms: _19  and  _21
REMARK    3  A    between atoms: _22  and  _66
REMARK    4  A    between atoms: _27  and  _30
REMARK    5  A    between atoms: _32  and  _33
REMARK    6  A    between atoms: _38  and  _43
REMARK    7  A    between atoms: _43  and  _46
REMARK    8  A    between atoms: _53  and  _55
REMARK                            x       y       z     vdW  Elec       q    Type
REMARK                         _______ _______ _______ _____ _____    ______ ____
ROOT
ATOM     10  C   UNL     1      28.127  59.003  52.531  0.00  0.00    +0.038 A 
ATOM     11  C   UNL     1      27.443  59.318  53.733  0.00  0.00    +0.047 A 
ATOM     12  C   UNL     1      27.717  60.551  54.453  0.00  0.00    +0.035 A 
ATOM     32  C   UNL     1      28.693  61.443  53.920  0.00  0.00    +0.024 A 
ATOM     33  C   UNL     1      29.399  61.138  52.701  0.00  0.00    +0.007 A 
ATOM     34  C   UNL     1      29.134  59.921  51.987  0.00  0.00    -0.029 A 
ATOM     35  C   UNL     1      29.926  59.643  50.687  0.00  0.00    +0.045 C 
ENDROOT
BRANCH  10   9
ATOM      4  C   UNL     1      25.927  56.503  49.075  0.00  0.00    +0.077 A 
ATOM      5  C   UNL     1      25.307  57.679  48.536  0.00  0.00    +0.048 A 
ATOM      6  C   UNL     1      25.575  58.907  49.183  0.00  0.00    +0.116 A 
ATOM      7  N   UNL     1      26.402  58.943  50.284  0.00  0.00    -0.223 NA
ATOM      8  C   UNL     1      26.983  57.790  50.778  0.00  0.00    +0.220 A 
ATOM      9  N   UNL     1      27.824  57.805  51.880  0.00  0.00    -0.283 N 
ATOM     36  H   UNL     1      28.227  56.931  52.219  0.00  0.00    +0.155 HD
ATOM     37  N   UNL     1      26.742  56.605  50.180  0.00  0.00    -0.214 NA
BRANCH   4   3
ATOM      1  C   UNL     1      24.669  53.502  46.904  0.00  0.00    +0.020 A 
ATOM      2  C   UNL     1      24.807  54.843  47.423  0.00  0.00    +0.013 A 
ATOM      3  C   UNL     1      25.745  55.132  48.501  0.00  0.00    +0.019 A 
ATOM     38  C   UNL     1      26.535  54.033  49.035  0.00  0.00    +0.120 A 
ATOM     39  N   UNL     1      26.379  52.751  48.516  0.00  0.00    -0.263 NA
ATOM     40  C   UNL     1      25.479  52.461  47.480  0.00  0.00    +0.111 A 
ENDBRANCH   4   3
ENDBRANCH  10   9
BRANCH  12  13
ATOM     13  N   UNL     1      27.059  60.921  55.682  0.00  0.00    -0.281 N 
ATOM     14  C   UNL     1      25.747  60.678  56.052  0.00  0.00    +0.248 C 
ATOM     30  O   UNL     1      24.874  60.291  55.290  0.00  0.00    -0.270 OA
ATOM     31  H   UNL     1      27.631  61.423  56.362  0.00  0.00    +0.155 HD
BRANCH  14  15
ATOM     15  C   UNL     1      25.341  60.913  57.472  0.00  0.00    +0.037 A 
ATOM     16  C   UNL     1      25.734  62.133  58.182  0.00  0.00    +0.013 A 
ATOM     17  C   UNL     1      25.344  62.327  59.556  0.00  0.00    +0.005 A 
ATOM     18  C   UNL     1      24.555  61.298  60.229  0.00  0.00    -0.033 A 
ATOM     28  C   UNL     1      24.175  60.100  59.499  0.00  0.00    +0.005 A 
ATOM     29  C   UNL     1      24.556  59.906  58.152  0.00  0.00    +0.013 A 
BRANCH  18  19
ATOM     19  C   UNL     1      24.112  61.411  61.700  0.00  0.00    +0.119 C 
BRANCH  19  20
ATOM     20  N   UNL     1      23.237  62.565  62.064  0.00  0.00    -0.302 NA
ATOM     21  C   UNL     1      24.021  63.685  62.754  0.00  0.00    +0.066 C 
ATOM     22  C   UNL     1      23.095  64.893  63.108  0.00  0.00    -0.064 C 
ATOM     23  N   UNL     1      21.946  64.410  63.995  0.00  0.00    +0.379 N 
ATOM     24  C   UNL     1      21.106  65.554  64.376  0.00  0.00    -0.096 C 
ATOM     25  H   UNL     1      22.392  63.991  64.927  0.00  0.00    -0.082 HD
ATOM     26  C   UNL     1      21.163  63.295  63.316  0.00  0.00    -0.064 C 
ATOM     27  C   UNL     1      22.098  62.111  62.943  0.00  0.00    +0.066 C 
ENDBRANCH  19  20
ENDBRANCH  18  19
ENDBRANCH  14  15
ENDBRANCH  12  13
TORSDOF 6
ENDMDL
MODEL 2
REMARK VINA RESULT:     -10.5      1.621      2.381
REMARK  Name = C:\Users\Docking\Desktop\test protocol\1iep_ligandH.pdb
REMARK  8 active torsions:
REMARK  status: ('A' for Active; 'I' for Inactive)
REMARK    1  A    between atoms: _5  and  _11
REMARK    2  A    between atoms: _19  and  _21
REMARK    3  A    between atoms: _22  and  _66
REMARK    4  A    between atoms: _27  and  _30
REMARK    5  A    between atoms: _32  and  _33
REMARK    6  A    between atoms: _38  and  _43
REMARK    7  A    between atoms: _43  and  _46
REMARK    8  A    between atoms: _53  and  _55
REMARK                            x       y       z     vdW  Elec       q    Type
REMARK                         _______ _______ _______ _____ _____    ______ ____
ROOT
ATOM     10  C   UNL     1      28.118  59.070  52.736  0.00  0.00    +0.038 A 
ATOM     11  C   UNL     1      27.405  59.383  53.922  0.00  0.00    +0.047 A 
ATOM     12  C   UNL     1      27.682  60.602  54.667  0.00  0.00    +0.035 A 
ATOM     32  C   UNL     1      28.689  61.482  54.173  0.00  0.00    +0.024 A 
ATOM     33  C   UNL     1      29.423  61.179  52.970  0.00  0.00    +0.007 A 
ATOM     34  C   UNL     1      29.157  59.977  52.233  0.00  0.00    -0.029 A 
ATOM     35  C   UNL     1      29.980  59.700  50.953  0.00  0.00    +0.045 C 
ENDROOT
BRANCH  10   9
ATOM      4  C   UNL     1      25.964  56.655  49.192  0.00  0.00    +0.077 A 
ATOM      5  C   UNL     1      25.377  57.849  48.655  0.00  0.00    +0.048 A 
ATOM      6  C   UNL     1      25.649  59.063  49.325  0.00  0.00    +0.116 A 
ATOM      7  N   UNL     1      26.449  59.071  50.446  0.00  0.00    -0.223 NA
ATOM      8  C   UNL     1      26.998  57.901  50.939  0.00  0.00    +0.220 A 
ATOM      9  N   UNL     1      27.812  57.887  52.061  0.00  0.00    -0.283 N 
ATOM     36  H   UNL     1      28.191  57.002  52.397  0.00  0.00    +0.155 HD
ATOM     37  N   UNL     1      26.752  56.729  50.318  0.00  0.00    -0.214 NA
BRANCH   4   3
ATOM      1  C   UNL     1      24.690  53.700  46.968  0.00  0.00    +0.020 A 
ATOM      2  C   UNL     1      24.836  55.032  47.509  0.00  0.00    +0.013 A 
ATOM      3  C   UNL     1      25.773  55.296  48.594  0.00  0.00    +0.019 A 
ATOM     38  C   UNL     1      26.554  54.182  49.111  0.00  0.00    +0.120 A 
ATOM     39  N   UNL     1      26.391  52.911  48.570  0.00  0.00    -0.263 NA
ATOM     40  C   UNL     1      25.491  52.644  47.528  0.00  0.00    +0.111 A 
ENDBRANCH   4   3
ENDBRANCH  10   9
BRANCH  12  13
ATOM     13  N   UNL     1      26.996  60.968  55.881  0.00  0.00    -0.281 N 
ATOM     14  C   UNL     1      25.682  60.705  56.230  0.00  0.00    +0.248 C 
ATOM     30  O   UNL     1      24.830  60.297  55.455  0.00  0.00    -0.270 OA
ATOM     31  H   UNL     1      27.547  61.485  56.567  0.00  0.00    +0.155 HD
BRANCH  14  15
ATOM     15  C   UNL     1      25.247  60.942  57.640  0.00  0.00    +0.037 A 
ATOM     16  C   UNL     1      24.533  59.913  58.399  0.00  0.00    +0.013 A 
ATOM     17  C   UNL     1      24.110  60.174  59.752  0.00  0.00    +0.005 A 
ATOM     18  C   UNL     1      24.403  61.472  60.356  0.00  0.00    -0.033 A 
ATOM     28  C   UNL     1      25.118  62.473  59.582  0.00  0.00    +0.005 A 
ATOM     29  C   UNL     1      25.533  62.221  58.255  0.00  0.00    +0.013 A 
BRANCH  18  19
ATOM     19  C   UNL     1      23.971  61.845  61.786  0.00  0.00    +0.119 C 
BRANCH  19  20
ATOM     20  N   UNL     1      24.691  61.180  62.913  0.00  0.00    -0.302 NA
ATOM     21  C   UNL     1      23.891  60.011  63.496  0.00  0.00    +0.066 C 
ATOM     22  C   UNL     1      24.669  59.313  64.659  0.00  0.00    -0.064 C 
ATOM     23  N   UNL     1      24.991  60.343  65.743  0.00  0.00    +0.379 N 
ATOM     24  C   UNL     1      25.671  59.678  66.864  0.00  0.00    -0.096 C 
ATOM     25  H   UNL     1      24.025  60.746  66.125  0.00  0.00    -0.082 HD
ATOM     26  C   UNL     1      25.784  61.510  65.172  0.00  0.00    -0.064 C 
ATOM     27  C   UNL     1      25.016  62.178  63.998  0.00  0.00    +0.066 C 
ENDBRANCH  19  20
ENDBRANCH  18  19
ENDBRANCH  14  15
ENDBRANCH  12  13
TORSDOF 6
ENDMDL
MODEL 3
REMARK VINA RESULT:     -10.4      1.109      1.699
REMARK  Name = C:\Users\Docking\Desktop\test protocol\1iep_ligandH.pdb
REMARK  8 active torsions:
REMARK  status: ('A' for Active; 'I' for Inactive)
REMARK    1  A    between atoms: _5  and  _11
REMARK    2  A    between atoms: _19  and  _21
REMARK    3  A    between atoms: _22  and  _66
REMARK    4  A    between atoms: _27  and  _30
REMARK    5  A    between atoms: _32  and  _33
REMARK    6  A    between atoms: _38  and  _43
REMARK    7  A    between atoms: _43  and  _46
REMARK    8  A    between atoms: _53  and  _55
REMARK                            x       y       z     vdW  Elec       q    Type
REMARK                         _______ _______ _______ _____ _____    ______ ____
ROOT
ATOM     10  C   UNL     1      28.185  59.131  52.698  0.00  0.00    +0.038 A 
ATOM     11  C   UNL     1      27.361  59.580  53.762  0.00  0.00    +0.047 A 
ATOM     12  C   UNL     1      27.655  60.816  54.471  0.00  0.00    +0.035 A 
ATOM     32  C   UNL     1      28.794  61.572  54.067  0.00  0.00    +0.024 A 
ATOM     33  C   UNL     1      29.642  61.130  52.988  0.00  0.00    +0.007 A 
ATOM     34  C   UNL     1      29.359  59.910  52.288  0.00  0.00    -0.029 A 
ATOM     35  C   UNL     1      30.307  59.482  51.143  0.00  0.00    +0.045 C 
ENDROOT
BRANCH  10   9
ATOM      4  C   UNL     1      26.008  56.671  49.198  0.00  0.00    +0.077 A 
ATOM      5  C   UNL     1      25.456  57.864  48.623  0.00  0.00    +0.048 A 
ATOM      6  C   UNL     1      25.750  59.089  49.262  0.00  0.00    +0.116 A 
ATOM      7  N   UNL     1      26.539  59.108  50.392  0.00  0.00    -0.223 NA
ATOM      8  C   UNL     1      27.054  57.940  50.922  0.00  0.00    +0.220 A 
ATOM      9  N   UNL     1      27.856  57.937  52.053  0.00  0.00    -0.283 N 
ATOM     36  H   UNL     1      28.211  57.053  52.417  0.00  0.00    +0.155 HD
ATOM     37  N   UNL     1      26.787  56.757  50.331  0.00  0.00    -0.214 NA
BRANCH   4   3
ATOM      1  C   UNL     1      24.657  53.681  47.069  0.00  0.00    +0.020 A 
ATOM      2  C   UNL     1      24.829  55.023  47.576  0.00  0.00    +0.013 A 
ATOM      3  C   UNL     1      25.790  55.301  48.636  0.00  0.00    +0.019 A 
ATOM     38  C   UNL     1      26.568  54.190  49.164  0.00  0.00    +0.120 A 
ATOM     39  N   UNL     1      26.380  52.909  48.657  0.00  0.00    -0.263 NA
ATOM     40  C   UNL     1      25.457  52.629  47.638  0.00  0.00    +0.111 A 
ENDBRANCH   4   3
ENDBRANCH  10   9
BRANCH  12  13
ATOM     13  N   UNL     1      26.859  61.318  55.564  0.00  0.00    -0.281 N 
ATOM     14  C   UNL     1      26.963  61.000  56.908  0.00  0.00    +0.248 C 
ATOM     30  O   UNL     1      27.620  60.069  57.350  0.00  0.00    -0.270 OA
ATOM     31  H   UNL     1      26.132  61.988  55.317  0.00  0.00    +0.155 HD
BRANCH  14  15
ATOM     15  C   UNL     1      26.218  61.828  57.905  0.00  0.00    +0.037 A 
ATOM     16  C   UNL     1      25.278  61.217  58.849  0.00  0.00    +0.013 A 
ATOM     17  C   UNL     1      24.560  62.040  59.789  0.00  0.00    +0.005 A 
ATOM     18  C   UNL     1      24.780  63.485  59.791  0.00  0.00    -0.033 A 
ATOM     28  C   UNL     1      25.722  64.064  58.847  0.00  0.00    +0.005 A 
ATOM     29  C   UNL     1      26.427  63.260  57.923  0.00  0.00    +0.013 A 
BRANCH  18  19
ATOM     19  C   UNL     1      24.041  64.442  60.744  0.00  0.00    +0.119 C 
BRANCH  19  20
ATOM     20  N   UNL     1      23.605  63.893  62.062  0.00  0.00    -0.302 NA
ATOM     21  C   UNL     1      22.120  63.519  62.066  0.00  0.00    +0.066 C 
ATOM     22  C   UNL     1      21.686  62.925  63.445  0.00  0.00    -0.064 C 
ATOM     23  N   UNL     1      21.992  63.935  64.552  0.00  0.00    +0.379 N 
ATOM     24  C   UNL     1      21.532  63.404  65.843  0.00  0.00    -0.096 C 
ATOM     25  H   UNL     1      21.406  64.859  64.338  0.00  0.00    -0.082 HD
ATOM     26  C   UNL     1      23.466  64.315  64.554  0.00  0.00    -0.064 C 
ATOM     27  C   UNL     1      23.894  64.877  63.169  0.00  0.00    +0.066 C 
ENDBRANCH  19  20
ENDBRANCH  18  19
ENDBRANCH  14  15
ENDBRANCH  12  13
TORSDOF 6
ENDMDL
MODEL 4
REMARK VINA RESULT:     -10.3      1.797      2.796
REMARK  Name = C:\Users\Docking\Desktop\test protocol\1iep_ligandH.pdb
REMARK  8 active torsions:
REMARK  status: ('A' for Active; 'I' for Inactive)
REMARK    1  A    between atoms: _5  and  _11
REMARK    2  A    between atoms: _19  and  _21
REMARK    3  A    between atoms: _22  and  _66
REMARK    4  A    between atoms: _27  and  _30
REMARK    5  A    between atoms: _32  and  _33
REMARK    6  A    between atoms: _38  and  _43
REMARK    7  A    between atoms: _43  and  _46
REMARK    8  A    between atoms: _53  and  _55
REMARK                            x       y       z     vdW  Elec       q    Type
REMARK                         _______ _______ _______ _____ _____    ______ ____
ROOT
ATOM     10  C   UNL     1      28.191  59.036  52.441  0.00  0.00    +0.038 A 
ATOM     11  C   UNL     1      27.526  59.342  53.655  0.00  0.00    +0.047 A 
ATOM     12  C   UNL     1      27.790  60.583  54.366  0.00  0.00    +0.035 A 
ATOM     32  C   UNL     1      28.737  61.492  53.810  0.00  0.00    +0.024 A 
ATOM     33  C   UNL     1      29.424  61.196  52.577  0.00  0.00    +0.007 A 
ATOM     34  C   UNL     1      29.169  59.972  51.873  0.00  0.00    -0.029 A 
ATOM     35  C   UNL     1      29.939  59.704  50.558  0.00  0.00    +0.045 C 
ENDROOT
BRANCH  10   9
ATOM      4  C   UNL     1      25.942  56.475  49.062  0.00  0.00    +0.077 A 
ATOM      5  C   UNL     1      25.272  57.634  48.546  0.00  0.00    +0.048 A 
ATOM      6  C   UNL     1      25.528  58.869  49.183  0.00  0.00    +0.116 A 
ATOM      7  N   UNL     1      26.392  58.928  50.255  0.00  0.00    -0.223 NA
ATOM      8  C   UNL     1      27.020  57.791  50.728  0.00  0.00    +0.220 A 
ATOM      9  N   UNL     1      27.899  57.830  51.800  0.00  0.00    -0.283 N 
ATOM     36  H   UNL     1      28.337  56.968  52.124  0.00  0.00    +0.155 HD
ATOM     37  N   UNL     1      26.792  56.600  50.138  0.00  0.00    -0.214 NA
BRANCH   4   3
ATOM      1  C   UNL     1      24.765  53.459  46.867  0.00  0.00    +0.020 A 
ATOM      2  C   UNL     1      24.887  54.805  47.378  0.00  0.00    +0.013 A 
ATOM      3  C   UNL     1      25.777  55.099  48.494  0.00  0.00    +0.019 A 
ATOM     38  C   UNL     1      26.536  54.001  49.074  0.00  0.00    +0.120 A 
ATOM     39  N   UNL     1      26.396  52.715  48.561  0.00  0.00    -0.263 NA
ATOM     40  C   UNL     1      25.542  52.419  47.489  0.00  0.00    +0.111 A 
ENDBRANCH   4   3
ENDBRANCH  10   9
BRANCH  12  13
ATOM     13  N   UNL     1      27.151  60.944  55.607  0.00  0.00    -0.281 N 
ATOM     14  C   UNL     1      25.839  60.716  55.988  0.00  0.00    +0.248 C 
ATOM     30  O   UNL     1      24.953  60.352  55.229  0.00  0.00    -0.270 OA
ATOM     31  H   UNL     1      27.737  61.427  56.288  0.00  0.00    +0.155 HD
BRANCH  14  15
ATOM     15  C   UNL     1      25.452  60.935  57.414  0.00  0.00    +0.037 A 
ATOM     16  C   UNL     1      25.846  62.152  58.130  0.00  0.00    +0.013 A 
ATOM     17  C   UNL     1      25.474  62.331  59.511  0.00  0.00    +0.005 A 
ATOM     18  C   UNL     1      24.701  61.291  60.185  0.00  0.00    -0.033 A 
ATOM     28  C   UNL     1      24.319  60.097  59.450  0.00  0.00    +0.005 A 
ATOM     29  C   UNL     1      24.682  59.917  58.097  0.00  0.00    +0.013 A 
BRANCH  18  19
ATOM     19  C   UNL     1      24.279  61.388  61.663  0.00  0.00    +0.119 C 
BRANCH  19  20
ATOM     20  N   UNL     1      25.120  60.667  62.664  0.00  0.00    -0.302 NA
ATOM     21  C   UNL     1      26.572  60.526  62.199  0.00  0.00    +0.066 C 
ATOM     22  C   UNL     1      27.444  59.790  63.267  0.00  0.00    -0.064 C 
ATOM     23  N   UNL     1      26.834  58.418  63.561  0.00  0.00    +0.379 N 
ATOM     24  C   UNL     1      27.683  57.699  64.523  0.00  0.00    -0.096 C 
ATOM     25  H   UNL     1      26.834  57.837  62.610  0.00  0.00    -0.082 HD
ATOM     26  C   UNL     1      25.389  58.549  64.022  0.00  0.00    -0.064 C 
ATOM     27  C   UNL     1      24.538  59.308  62.966  0.00  0.00    +0.066 C 
ENDBRANCH  19  20
ENDBRANCH  18  19
ENDBRANCH  14  15
ENDBRANCH  12  13
TORSDOF 6
ENDMDL
MODEL 5
REMARK VINA RESULT:     -10.2      2.282      3.333
REMARK  Name = C:\Users\Docking\Desktop\test protocol\1iep_ligandH.pdb
REMARK  8 active torsions:
REMARK  status: ('A' for Active; 'I' for Inactive)
REMARK    1  A    between atoms: _5  and  _11
REMARK    2  A    between atoms: _19  and  _21
REMARK    3  A    between atoms: _22  and  _66
REMARK    4  A    between atoms: _27  and  _30
REMARK    5  A    between atoms: _32  and  _33
REMARK    6  A    between atoms: _38  and  _43
REMARK    7  A    between atoms: _43  and  _46
REMARK    8  A    between atoms: _53  and  _55
REMARK                            x       y       z     vdW  Elec       q    Type
REMARK                         _______ _______ _______ _____ _____    ______ ____
ROOT
ATOM     10  C   UNL     1      29.850  58.892  50.667  0.00  0.00    +0.038 A 
ATOM     11  C   UNL     1      29.142  59.595  51.675  0.00  0.00    +0.047 A 
ATOM     12  C   UNL     1      29.669  60.824  52.247  0.00  0.00    +0.035 A 
ATOM     32  C   UNL     1      30.919  61.311  51.765  0.00  0.00    +0.024 A 
ATOM     33  C   UNL     1      31.652  60.609  50.741  0.00  0.00    +0.007 A 
ATOM     34  C   UNL     1      31.139  59.394  50.176  0.00  0.00    -0.029 A 
ATOM     35  C   UNL     1      31.971  58.680  49.086  0.00  0.00    +0.045 C 
ENDROOT
BRANCH  10   9
ATOM      4  C   UNL     1      26.178  56.369  48.880  0.00  0.00    +0.077 A 
ATOM      5  C   UNL     1      25.278  57.479  49.005  0.00  0.00    +0.048 A 
ATOM      6  C   UNL     1      25.798  58.679  49.540  0.00  0.00    +0.116 A 
ATOM      7  N   UNL     1      27.120  58.753  49.919  0.00  0.00    -0.223 NA
ATOM      8  C   UNL     1      27.961  57.663  49.787  0.00  0.00    +0.220 A 
ATOM      9  N   UNL     1      29.297  57.716  50.154  0.00  0.00    -0.283 N 
ATOM     36  H   UNL     1      29.883  56.888  50.048  0.00  0.00    +0.155 HD
ATOM     37  N   UNL     1      27.489  56.505  49.280  0.00  0.00    -0.214 NA
BRANCH   4   3
ATOM      1  C   UNL     1      24.449  53.568  46.767  0.00  0.00    +0.020 A 
ATOM      2  C   UNL     1      24.798  54.879  47.263  0.00  0.00    +0.013 A 
ATOM      3  C   UNL     1      25.779  55.035  48.330  0.00  0.00    +0.019 A 
ATOM     38  C   UNL     1      26.394  53.835  48.877  0.00  0.00    +0.120 A 
ATOM     39  N   UNL     1      26.036  52.585  48.380  0.00  0.00    -0.263 NA
ATOM     40  C   UNL     1      25.092  52.423  47.355  0.00  0.00    +0.111 A 
ENDBRANCH   4   3
ENDBRANCH  10   9
BRANCH  12  13
ATOM     13  N   UNL     1      28.999  61.577  53.278  0.00  0.00    -0.281 N 
ATOM     14  C   UNL     1      28.816  61.226  54.606  0.00  0.00    +0.248 C 
ATOM     30  O   UNL     1      29.016  60.108  55.059  0.00  0.00    -0.270 OA
ATOM     31  H   UNL     1      28.614  62.478  52.996  0.00  0.00    +0.155 HD
BRANCH  14  15
ATOM     15  C   UNL     1      28.327  62.261  55.566  0.00  0.00    +0.037 A 
ATOM     16  C   UNL     1      27.354  61.930  56.610  0.00  0.00    +0.013 A 
ATOM     17  C   UNL     1      26.886  62.952  57.512  0.00  0.00    +0.005 A 
ATOM     18  C   UNL     1      27.391  64.316  57.374  0.00  0.00    -0.033 A 
ATOM     28  C   UNL     1      28.360  64.616  56.333  0.00  0.00    +0.005 A 
ATOM     29  C   UNL     1      28.820  63.617  55.446  0.00  0.00    +0.013 A 
BRANCH  18  19
ATOM     19  C   UNL     1      26.931  65.474  58.279  0.00  0.00    +0.119 C 
BRANCH  19  20
ATOM     20  N   UNL     1      26.002  65.139  59.400  0.00  0.00    -0.302 NA
ATOM     21  C   UNL     1      24.552  65.506  59.072  0.00  0.00    +0.066 C 
ATOM     22  C   UNL     1      23.590  65.128  60.246  0.00  0.00    -0.064 C 
ATOM     23  N   UNL     1      24.051  65.829  61.525  0.00  0.00    +0.379 N 
ATOM     24  C   UNL     1      23.116  65.522  62.617  0.00  0.00    -0.096 C 
ATOM     25  H   UNL     1      24.009  66.928  61.342  0.00  0.00    -0.082 HD
ATOM     26  C   UNL     1      25.493  65.472  61.856  0.00  0.00    -0.064 C 
ATOM     27  C   UNL     1      26.436  65.824  60.672  0.00  0.00    +0.066 C 
ENDBRANCH  19  20
ENDBRANCH  18  19
ENDBRANCH  14  15
ENDBRANCH  12  13
TORSDOF 6
ENDMDL
