MODEL 1
REMARK VINA RESULT:     -11.5      0.000      0.000
REMARK  Name = C:\Users\Docking\Desktop\test protocol\1iep_ligandH.pdb
REMARK  8 active torsions:
REMARK  status: ('A' for Active; 'I' for Inactive)
REMARK    1  A    between atoms: _5  and  _11
REMARK    2  A    between atoms: _19  and  _21
REMARK    3  A    between atoms: _22  and  _66
REMARK    4  A    between atoms: _27  and  _30
REMARK    5  A    between atoms: _32  and  _33
REMARK    6  A    between atoms: _38  and  _43
REMARK    7  A    between atoms: _43  and  _46
REMARK    8  A    between atoms: _53  and  _55
REMARK                            x       y       z     vdW  Elec       q    Type
REMARK                         _______ _______ _______ _____ _____    ______ ____
ROOT
ATOM     10  C   UNL     1      27.760  58.363  51.640  0.00  0.00    +0.038 A 
ATOM     11  C   UNL     1      27.266  58.541  52.958  0.00  0.00    +0.047 A 
ATOM     12  C   UNL     1      27.430  59.805  53.659  0.00  0.00    +0.035 A 
ATOM     32  C   UNL     1      28.100  60.868  52.987  0.00  0.00    +0.024 A 
ATOM     33  C   UNL     1      28.609  60.705  51.648  0.00  0.00    +0.007 A 
ATOM     34  C   UNL     1      28.453  59.460  50.952  0.00  0.00    -0.029 A 
ATOM     35  C   UNL     1      29.025  59.339  49.521  0.00  0.00    +0.045 C 
ENDROOT
BRANCH  10   9
ATOM      4  C   UNL     1      25.452  55.471  48.583  0.00  0.00    +0.077 A 
ATOM      5  C   UNL     1      24.519  56.499  48.223  0.00  0.00    +0.048 A 
ATOM      6  C   UNL     1      24.663  57.756  48.852  0.00  0.00    +0.116 A 
ATOM      7  N   UNL     1      25.669  57.959  49.772  0.00  0.00    -0.223 NA
ATOM      8  C   UNL     1      26.551  56.945  50.098  0.00  0.00    +0.220 A 
ATOM      9  N   UNL     1      27.575  57.129  51.014  0.00  0.00    -0.283 N 
ATOM     36  H   UNL     1      28.201  56.354  51.233  0.00  0.00    +0.155 HD
ATOM     37  N   UNL     1      26.434  55.735  49.512  0.00  0.00    -0.214 NA
BRANCH   4   3
ATOM      1  C   UNL     1      24.644  52.385  46.320  0.00  0.00    +0.020 A 
ATOM      2  C   UNL     1      24.627  53.733  46.841  0.00  0.00    +0.013 A 
ATOM      3  C   UNL     1      25.432  54.092  48.003  0.00  0.00    +0.019 A 
ATOM     38  C   UNL     1      26.249  53.056  48.617  0.00  0.00    +0.120 A 
ATOM     39  N   UNL     1      26.243  51.767  48.093  0.00  0.00    -0.263 NA
ATOM     40  C   UNL     1      25.472  51.409  46.977  0.00  0.00    +0.111 A 
ENDBRANCH   4   3
ENDBRANCH  10   9
BRANCH  12  13
ATOM     13  N   UNL     1      26.956  60.041  55.000  0.00  0.00    -0.281 N 
ATOM     14  C   UNL     1      25.652  59.987  55.465  0.00  0.00    +0.248 C 
ATOM     30  O   UNL     1      24.664  59.935  54.747  0.00  0.00    -0.270 OA
ATOM     31  H   UNL     1      27.668  60.277  55.691  0.00  0.00    +0.155 HD
BRANCH  14  15
ATOM     15  C   UNL     1      25.410  60.007  56.939  0.00  0.00    +0.037 A 
ATOM     16  C   UNL     1      25.953  58.964  57.813  0.00  0.00    +0.013 A 
ATOM     17  C   UNL     1      25.690  58.998  59.230  0.00  0.00    +0.005 A 
ATOM     18  C   UNL     1      24.879  60.081  59.782  0.00  0.00    -0.033 A 
ATOM     28  C   UNL     1      24.357  61.105  58.893  0.00  0.00    +0.005 A 
ATOM     29  C   UNL     1      24.612  61.075  57.504  0.00  0.00    +0.013 A 
BRANCH  18  19
ATOM     19  C   UNL     1      24.530  60.185  61.279  0.00  0.00    +0.119 C 
BRANCH  19  20
ATOM     20  N   UNL     1      23.689  59.098  61.862  0.00  0.00    -0.302 NA
ATOM     21  C   UNL     1      24.524  58.089  62.656  0.00  0.00    +0.066 C 
ATOM     22  C   UNL     1      23.626  56.971  63.278  0.00  0.00    -0.064 C 
ATOM     23  N   UNL     1      22.845  56.270  62.165  0.00  0.00    +0.379 N 
ATOM     24  C   UNL     1      22.043  55.180  62.740  0.00  0.00    -0.096 C 
ATOM     25  H   UNL     1      23.586  55.814  61.468  0.00  0.00    -0.082 HD
ATOM     26  C   UNL     1      22.014  57.266  61.369  0.00  0.00    -0.064 C 
ATOM     27  C   UNL     1      22.912  58.390  60.780  0.00  0.00    +0.066 C 
ENDBRANCH  19  20
ENDBRANCH  18  19
ENDBRANCH  14  15
ENDBRANCH  12  13
TORSDOF 6
ENDMDL
MODEL 2
REMARK VINA RESULT:     -10.8      2.319      3.306
REMARK  Name = C:\Users\Docking\Desktop\test protocol\1iep_ligandH.pdb
REMARK  8 active torsions:
REMARK  status: ('A' for Active; 'I' for Inactive)
REMARK    1  A    between atoms: _5  and  _11
REMARK    2  A    between atoms: _19  and  _21
REMARK    3  A    between atoms: _22  and  _66
REMARK    4  A    between atoms: _27  and  _30
REMARK    5  A    between atoms: _32  and  _33
REMARK    6  A    between atoms: _38  and  _43
REMARK    7  A    between atoms: _43  and  _46
REMARK    8  A    between atoms: _53  and  _55
REMARK                            x       y       z     vdW  Elec       q    Type
REMARK                         _______ _______ _______ _____ _____    ______ ____
ROOT
ATOM     10  C   UNL     1      27.728  58.584  52.234  0.00  0.00    +0.038 A 
ATOM     11  C   UNL     1      27.097  58.896  53.465  0.00  0.00    +0.047 A 
ATOM     12  C   UNL     1      27.374  60.145  54.158  0.00  0.00    +0.035 A 
ATOM     32  C   UNL     1      28.297  61.055  53.566  0.00  0.00    +0.024 A 
ATOM     33  C   UNL     1      28.949  60.754  52.316  0.00  0.00    +0.007 A 
ATOM     34  C   UNL     1      28.682  59.522  51.629  0.00  0.00    -0.029 A 
ATOM     35  C   UNL     1      29.414  59.249  50.295  0.00  0.00    +0.045 C 
ENDROOT
BRANCH  10   9
ATOM      4  C   UNL     1      25.699  56.019  48.721  0.00  0.00    +0.077 A 
ATOM      5  C   UNL     1      25.175  57.194  48.085  0.00  0.00    +0.048 A 
ATOM      6  C   UNL     1      25.444  58.438  48.698  0.00  0.00    +0.116 A 
ATOM      7  N   UNL     1      26.184  58.492  49.860  0.00  0.00    -0.223 NA
ATOM      8  C   UNL     1      26.673  57.340  50.448  0.00  0.00    +0.220 A 
ATOM      9  N   UNL     1      27.425  57.371  51.612  0.00  0.00    -0.283 N 
ATOM     36  H   UNL     1      27.761  56.498  52.019  0.00  0.00    +0.155 HD
ATOM     37  N   UNL     1      26.428  56.139  49.883  0.00  0.00    -0.214 NA
BRANCH   4   3
ATOM      1  C   UNL     1      24.409  52.961  46.652  0.00  0.00    +0.020 A 
ATOM      2  C   UNL     1      24.560  54.317  47.126  0.00  0.00    +0.013 A 
ATOM      3  C   UNL     1      25.502  54.632  48.193  0.00  0.00    +0.019 A 
ATOM     38  C   UNL     1      26.282  53.544  48.762  0.00  0.00    +0.120 A 
ATOM     39  N   UNL     1      26.113  52.247  48.286  0.00  0.00    -0.263 NA
ATOM     40  C   UNL     1      25.209  51.932  47.262  0.00  0.00    +0.111 A 
ENDBRANCH   4   3
ENDBRANCH  10   9
BRANCH  12  13
ATOM     13  N   UNL     1      26.769  60.512  55.415  0.00  0.00    -0.281 N 
ATOM     14  C   UNL     1      25.449  60.353  55.803  0.00  0.00    +0.248 C 
ATOM     30  O   UNL     1      24.536  60.063  55.045  0.00  0.00    -0.270 OA
ATOM     31  H   UNL     1      27.390  60.941  56.101  0.00  0.00    +0.155 HD
BRANCH  14  15
ATOM     15  C   UNL     1      25.090  60.559  57.239  0.00  0.00    +0.037 A 
ATOM     16  C   UNL     1      24.337  59.549  57.987  0.00  0.00    +0.013 A 
ATOM     17  C   UNL     1      23.988  59.780  59.366  0.00  0.00    +0.005 A 
ATOM     18  C   UNL     1      24.394  61.029  60.008  0.00  0.00    -0.033 A 
ATOM     28  C   UNL     1      25.145  62.011  59.244  0.00  0.00    +0.005 A 
ATOM     29  C   UNL     1      25.487  61.788  57.892  0.00  0.00    +0.013 A 
BRANCH  18  19
ATOM     19  C   UNL     1      24.047  61.369  61.469  0.00  0.00    +0.119 C 
BRANCH  19  20
ATOM     20  N   UNL     1      23.379  62.680  61.726  0.00  0.00    -0.302 NA
ATOM     21  C   UNL     1      24.375  63.755  62.170  0.00  0.00    +0.066 C 
ATOM     22  C   UNL     1      23.663  65.126  62.412  0.00  0.00    -0.064 C 
ATOM     23  N   UNL     1      22.559  64.946  63.455  0.00  0.00    +0.379 N 
ATOM     24  C   UNL     1      21.926  66.245  63.728  0.00  0.00    -0.096 C 
ATOM     25  H   UNL     1      23.040  64.599  64.399  0.00  0.00    -0.082 HD
ATOM     26  C   UNL     1      21.566  63.877  63.023  0.00  0.00    -0.064 C 
ATOM     27  C   UNL     1      22.288  62.527  62.756  0.00  0.00    +0.066 C 
ENDBRANCH  19  20
ENDBRANCH  18  19
ENDBRANCH  14  15
ENDBRANCH  12  13
TORSDOF 6
ENDMDL
MODEL 3
REMARK VINA RESULT:     -10.6      3.994      5.388
REMARK  Name = C:\Users\Docking\Desktop\test protocol\1iep_ligandH.pdb
REMARK  8 active torsions:
REMARK  status: ('A' for Active; 'I' for Inactive)
REMARK    1  A    between atoms: _5  and  _11
REMARK    2  A    between atoms: _19  and  _21
REMARK    3  A    between atoms: _22  and  _66
REMARK    4  A    between atoms: _27  and  _30
REMARK    5  A    between atoms: _32  and  _33
REMARK    6  A    between atoms: _38  and  _43
REMARK    7  A    between atoms: _43  and  _46
REMARK    8  A    between atoms: _53  and  _55
REMARK                            x       y       z     vdW  Elec       q    Type
REMARK                         _______ _______ _______ _____ _____    ______ ____
ROOT
ATOM     10  C   UNL     1      28.527  59.481  52.976  0.00  0.00    +0.038 A 
ATOM     11  C   UNL     1      27.646  60.067  53.919  0.00  0.00    +0.047 A 
ATOM     12  C   UNL     1      28.022  61.262  54.660  0.00  0.00    +0.035 A 
ATOM     32  C   UNL     1      29.303  61.834  54.412  0.00  0.00    +0.024 A 
ATOM     33  C   UNL     1      30.213  61.251  53.457  0.00  0.00    +0.007 A 
ATOM     34  C   UNL     1      29.848  60.071  52.726  0.00  0.00    -0.029 A 
ATOM     35  C   UNL     1      30.865  59.485  51.719  0.00  0.00    +0.045 C 
ENDROOT
BRANCH  10   9
ATOM      4  C   UNL     1      26.063  57.288  49.490  0.00  0.00    +0.077 A 
ATOM      5  C   UNL     1      25.531  58.528  49.004  0.00  0.00    +0.048 A 
ATOM      6  C   UNL     1      25.911  59.708  49.684  0.00  0.00    +0.116 A 
ATOM      7  N   UNL     1      26.760  59.639  50.767  0.00  0.00    -0.223 NA
ATOM      8  C   UNL     1      27.253  58.426  51.211  0.00  0.00    +0.220 A 
ATOM      9  N   UNL     1      28.115  58.335  52.293  0.00  0.00    -0.283 N 
ATOM     36  H   UNL     1      28.451  57.420  52.594  0.00  0.00    +0.155 HD
ATOM     37  N   UNL     1      26.905  57.286  50.580  0.00  0.00    -0.214 NA
BRANCH   4   3
ATOM      1  C   UNL     1      24.506  54.472  47.265  0.00  0.00    +0.020 A 
ATOM      2  C   UNL     1      24.763  55.779  47.825  0.00  0.00    +0.013 A 
ATOM      3  C   UNL     1      25.757  55.957  48.876  0.00  0.00    +0.019 A 
ATOM     38  C   UNL     1      26.480  54.783  49.341  0.00  0.00    +0.120 A 
ATOM     39  N   UNL     1      26.211  53.537  48.784  0.00  0.00    -0.263 NA
ATOM     40  C   UNL     1      25.255  53.353  47.774  0.00  0.00    +0.111 A 
ENDBRANCH   4   3
ENDBRANCH  10   9
BRANCH  12  13
ATOM     13  N   UNL     1      27.172  61.897  55.636  0.00  0.00    -0.281 N 
ATOM     14  C   UNL     1      26.962  61.524  56.954  0.00  0.00    +0.248 C 
ATOM     30  O   UNL     1      27.312  60.456  57.434  0.00  0.00    -0.270 OA
ATOM     31  H   UNL     1      26.663  62.721  55.317  0.00  0.00    +0.155 HD
BRANCH  14  15
ATOM     15  C   UNL     1      26.248  62.468  57.866  0.00  0.00    +0.037 A 
ATOM     16  C   UNL     1      26.132  63.893  57.546  0.00  0.00    +0.013 A 
ATOM     17  C   UNL     1      25.452  64.785  58.452  0.00  0.00    +0.005 A 
ATOM     18  C   UNL     1      24.882  64.253  59.687  0.00  0.00    -0.033 A 
ATOM     28  C   UNL     1      25.007  62.834  59.978  0.00  0.00    +0.005 A 
ATOM     29  C   UNL     1      25.673  61.957  59.093  0.00  0.00    +0.013 A 
BRANCH  18  19
ATOM     19  C   UNL     1      24.158  65.135  60.722  0.00  0.00    +0.119 C 
BRANCH  19  20
ATOM     20  N   UNL     1      24.844  66.391  61.149  0.00  0.00    -0.302 NA
ATOM     21  C   UNL     1      26.224  66.115  61.752  0.00  0.00    +0.066 C 
ATOM     22  C   UNL     1      26.937  67.442  62.173  0.00  0.00    -0.064 C 
ATOM     23  N   UNL     1      26.054  68.200  63.165  0.00  0.00    +0.379 N 
ATOM     24  C   UNL     1      26.747  69.419  63.607  0.00  0.00    -0.096 C 
ATOM     25  H   UNL     1      25.913  67.548  64.058  0.00  0.00    -0.082 HD
ATOM     26  C   UNL     1      24.679  68.476  62.574  0.00  0.00    -0.064 C 
ATOM     27  C   UNL     1      23.991  67.154  62.132  0.00  0.00    +0.066 C 
ENDBRANCH  19  20
ENDBRANCH  18  19
ENDBRANCH  14  15
ENDBRANCH  12  13
TORSDOF 6
ENDMDL
MODEL 4
REMARK VINA RESULT:     -10.4      2.721      3.850
REMARK  Name = C:\Users\Docking\Desktop\test protocol\1iep_ligandH.pdb
REMARK  8 active torsions:
REMARK  status: ('A' for Active; 'I' for Inactive)
REMARK    1  A    between atoms: _5  and  _11
REMARK    2  A    between atoms: _19  and  _21
REMARK    3  A    between atoms: _22  and  _66
REMARK    4  A    between atoms: _27  and  _30
REMARK    5  A    between atoms: _32  and  _33
REMARK    6  A    between atoms: _38  and  _43
REMARK    7  A    between atoms: _43  and  _46
REMARK    8  A    between atoms: _53  and  _55
REMARK                            x       y       z     vdW  Elec       q    Type
REMARK                         _______ _______ _______ _____ _____    ______ ____
ROOT
ATOM     10  C   UNL     1      27.583  58.411  51.991  0.00  0.00    +0.038 A 
ATOM     11  C   UNL     1      26.853  58.770  53.152  0.00  0.00    +0.047 A 
ATOM     12  C   UNL     1      27.074  60.046  53.816  0.00  0.00    +0.035 A 
ATOM     32  C   UNL     1      28.045  60.933  53.267  0.00  0.00    +0.024 A 
ATOM     33  C   UNL     1      28.797  60.583  52.087  0.00  0.00    +0.007 A 
ATOM     34  C   UNL     1      28.585  59.325  51.430  0.00  0.00    -0.029 A 
ATOM     35  C   UNL     1      29.424  59.000  50.173  0.00  0.00    +0.045 C 
ENDROOT
BRANCH  10   9
ATOM      4  C   UNL     1      25.622  55.688  48.558  0.00  0.00    +0.077 A 
ATOM      5  C   UNL     1      25.030  56.824  47.913  0.00  0.00    +0.048 A 
ATOM      6  C   UNL     1      25.248  58.091  48.500  0.00  0.00    +0.116 A 
ATOM      7  N   UNL     1      26.004  58.201  49.647  0.00  0.00    -0.223 NA
ATOM      8  C   UNL     1      26.559  57.085  50.245  0.00  0.00    +0.220 A 
ATOM      9  N   UNL     1      27.330  57.173  51.395  0.00  0.00    -0.283 N 
ATOM     36  H   UNL     1      27.716  56.325  51.809  0.00  0.00    +0.155 HD
ATOM     37  N   UNL     1      26.365  55.864  49.704  0.00  0.00    -0.214 NA
BRANCH   4   3
ATOM      1  C   UNL     1      24.483  52.543  46.532  0.00  0.00    +0.020 A 
ATOM      2  C   UNL     1      24.577  53.913  46.979  0.00  0.00    +0.013 A 
ATOM      3  C   UNL     1      25.485  54.284  48.056  0.00  0.00    +0.019 A 
ATOM     38  C   UNL     1      26.292  53.237  48.664  0.00  0.00    +0.120 A 
ATOM     39  N   UNL     1      26.179  51.925  48.213  0.00  0.00    -0.263 NA
ATOM     40  C   UNL     1      25.307  51.556  47.178  0.00  0.00    +0.111 A 
ENDBRANCH   4   3
ENDBRANCH  10   9
BRANCH  12  13
ATOM     13  N   UNL     1      26.369  60.462  55.002  0.00  0.00    -0.281 N 
ATOM     14  C   UNL     1      26.852  60.534  56.299  0.00  0.00    +0.248 C 
ATOM     30  O   UNL     1      27.908  60.045  56.671  0.00  0.00    -0.270 OA
ATOM     31  H   UNL     1      25.395  60.736  54.871  0.00  0.00    +0.155 HD
BRANCH  14  15
ATOM     15  C   UNL     1      26.036  61.238  57.335  0.00  0.00    +0.037 A 
ATOM     16  C   UNL     1      25.153  60.498  58.240  0.00  0.00    +0.013 A 
ATOM     17  C   UNL     1      24.365  61.203  59.219  0.00  0.00    +0.005 A 
ATOM     18  C   UNL     1      24.458  62.659  59.299  0.00  0.00    -0.033 A 
ATOM     28  C   UNL     1      25.346  63.368  58.392  0.00  0.00    +0.005 A 
ATOM     29  C   UNL     1      26.119  62.680  57.431  0.00  0.00    +0.013 A 
BRANCH  18  19
ATOM     19  C   UNL     1      23.638  63.496  60.298  0.00  0.00    +0.119 C 
BRANCH  19  20
ATOM     20  N   UNL     1      24.348  64.003  61.510  0.00  0.00    -0.302 NA
ATOM     21  C   UNL     1      24.896  65.418  61.304  0.00  0.00    +0.066 C 
ATOM     22  C   UNL     1      25.616  65.942  62.589  0.00  0.00    -0.064 C 
ATOM     23  N   UNL     1      26.740  64.977  62.970  0.00  0.00    +0.379 N 
ATOM     24  C   UNL     1      27.456  65.496  64.144  0.00  0.00    -0.096 C 
ATOM     25  H   UNL     1      27.461  64.945  62.120  0.00  0.00    -0.082 HD
ATOM     26  C   UNL     1      26.204  63.566  63.174  0.00  0.00    -0.064 C 
ATOM     27  C   UNL     1      25.465  63.067  61.902  0.00  0.00    +0.066 C 
ENDBRANCH  19  20
ENDBRANCH  18  19
ENDBRANCH  14  15
ENDBRANCH  12  13
TORSDOF 6
ENDMDL
MODEL 5
REMARK VINA RESULT:     -10.2      1.819      2.834
REMARK  Name = C:\Users\Docking\Desktop\test protocol\1iep_ligandH.pdb
REMARK  8 active torsions:
REMARK  status: ('A' for Active; 'I' for Inactive)
REMARK    1  A    between atoms: _5  and  _11
REMARK    2  A    between atoms: _19  and  _21
REMARK    3  A    between atoms: _22  and  _66
REMARK    4  A    between atoms: _27  and  _30
REMARK    5  A    between atoms: _32  and  _33
REMARK    6  A    between atoms: _38  and  _43
REMARK    7  A    between atoms: _43  and  _46
REMARK    8  A    between atoms: _53  and  _55
REMARK                            x       y       z     vdW  Elec       q    Type
REMARK                         _______ _______ _______ _____ _____    ______ ____
ROOT
ATOM     10  C   UNL     1      27.819  58.349  51.578  0.00  0.00    +0.038 A 
ATOM     11  C   UNL     1      27.333  58.504  52.901  0.00  0.00    +0.047 A 
ATOM     12  C   UNL     1      27.508  59.753  53.626  0.00  0.00    +0.035 A 
ATOM     32  C   UNL     1      28.180  60.826  52.970  0.00  0.00    +0.024 A 
ATOM     33  C   UNL     1      28.681  60.685  51.626  0.00  0.00    +0.007 A 
ATOM     34  C   UNL     1      28.514  59.454  50.907  0.00  0.00    -0.029 A 
ATOM     35  C   UNL     1      29.077  59.358  49.470  0.00  0.00    +0.045 C 
ENDROOT
BRANCH  10   9
ATOM      4  C   UNL     1      25.429  55.505  48.538  0.00  0.00    +0.077 A 
ATOM      5  C   UNL     1      24.473  56.531  48.237  0.00  0.00    +0.048 A 
ATOM      6  C   UNL     1      24.627  57.774  48.891  0.00  0.00    +0.116 A 
ATOM      7  N   UNL     1      25.664  57.966  49.778  0.00  0.00    -0.223 NA
ATOM      8  C   UNL     1      26.568  56.954  50.047  0.00  0.00    +0.220 A 
ATOM      9  N   UNL     1      27.624  57.127  50.929  0.00  0.00    -0.283 N 
ATOM     36  H   UNL     1      28.264  56.354  51.107  0.00  0.00    +0.155 HD
ATOM     37  N   UNL     1      26.442  55.758  49.437  0.00  0.00    -0.214 NA
BRANCH   4   3
ATOM      1  C   UNL     1      24.582  52.469  46.221  0.00  0.00    +0.020 A 
ATOM      2  C   UNL     1      24.572  53.804  46.775  0.00  0.00    +0.013 A 
ATOM      3  C   UNL     1      25.401  54.139  47.926  0.00  0.00    +0.019 A 
ATOM     38  C   UNL     1      26.237  53.094  48.496  0.00  0.00    +0.120 A 
ATOM     39  N   UNL     1      26.226  51.817  47.942  0.00  0.00    -0.263 NA
ATOM     40  C   UNL     1      25.430  51.482  46.836  0.00  0.00    +0.111 A 
ENDBRANCH   4   3
ENDBRANCH  10   9
BRANCH  12  13
ATOM     13  N   UNL     1      27.043  59.966  54.974  0.00  0.00    -0.281 N 
ATOM     14  C   UNL     1      25.740  59.921  55.443  0.00  0.00    +0.248 C 
ATOM     30  O   UNL     1      24.749  59.900  54.729  0.00  0.00    -0.270 OA
ATOM     31  H   UNL     1      27.762  60.176  55.667  0.00  0.00    +0.155 HD
BRANCH  14  15
ATOM     15  C   UNL     1      25.504  59.912  56.919  0.00  0.00    +0.037 A 
ATOM     16  C   UNL     1      24.156  60.057  57.474  0.00  0.00    +0.013 A 
ATOM     17  C   UNL     1      23.958  60.062  58.901  0.00  0.00    +0.005 A 
ATOM     18  C   UNL     1      25.113  59.919  59.785  0.00  0.00    -0.033 A 
ATOM     28  C   UNL     1      26.439  59.771  59.208  0.00  0.00    +0.005 A 
ATOM     29  C   UNL     1      26.637  59.767  57.809  0.00  0.00    +0.013 A 
BRANCH  18  19
ATOM     19  C   UNL     1      24.998  59.934  61.321  0.00  0.00    +0.119 C 
BRANCH  19  20
ATOM     20  N   UNL     1      26.201  60.368  62.092  0.00  0.00    -0.302 NA
ATOM     21  C   UNL     1      26.344  59.603  63.411  0.00  0.00    +0.066 C 
ATOM     22  C   UNL     1      27.620  60.054  64.195  0.00  0.00    -0.064 C 
ATOM     23  N   UNL     1      27.554  61.561  64.447  0.00  0.00    +0.379 N 
ATOM     24  C   UNL     1      28.723  61.979  65.234  0.00  0.00    -0.096 C 
ATOM     25  H   UNL     1      26.644  61.762  65.060  0.00  0.00    -0.082 HD
ATOM     26  C   UNL     1      27.408  62.329  63.141  0.00  0.00    -0.064 C 
ATOM     27  C   UNL     1      26.154  61.853  62.356  0.00  0.00    +0.066 C 
ENDBRANCH  19  20
ENDBRANCH  18  19
ENDBRANCH  14  15
ENDBRANCH  12  13
TORSDOF 6
ENDMDL
