MODEL 1
REMARK VINA RESULT:     -10.3      0.000      0.000
REMARK  Name = C:\Users\Docking\Desktop\test protocol\1iep_ligandH.pdb
REMARK  8 active torsions:
REMARK  status: ('A' for Active; 'I' for Inactive)
REMARK    1  A    between atoms: _5  and  _11
REMARK    2  A    between atoms: _19  and  _21
REMARK    3  A    between atoms: _22  and  _66
REMARK    4  A    between atoms: _27  and  _30
REMARK    5  A    between atoms: _32  and  _33
REMARK    6  A    between atoms: _38  and  _43
REMARK    7  A    between atoms: _43  and  _46
REMARK    8  A    between atoms: _53  and  _55
REMARK                            x       y       z     vdW  Elec       q    Type
REMARK                         _______ _______ _______ _____ _____    ______ ____
ROOT
ATOM     10  C   UNL     1      28.064  58.675  52.478  0.00  0.00    +0.038 A 
ATOM     11  C   UNL     1      27.359  59.032  53.656  0.00  0.00    +0.047 A 
ATOM     12  C   UNL     1      27.668  60.258  54.376  0.00  0.00    +0.035 A 
ATOM     32  C   UNL     1      28.700  61.098  53.866  0.00  0.00    +0.024 A 
ATOM     33  C   UNL     1      29.427  60.750  52.670  0.00  0.00    +0.007 A 
ATOM     34  C   UNL     1      29.128  59.541  51.958  0.00  0.00    -0.029 A 
ATOM     35  C   UNL     1      29.945  59.215  50.685  0.00  0.00    +0.045 C 
ENDROOT
BRANCH  10   9
ATOM      4  C   UNL     1      25.770  56.239  49.036  0.00  0.00    +0.077 A 
ATOM      5  C   UNL     1      25.175  57.432  48.507  0.00  0.00    +0.048 A 
ATOM      6  C   UNL     1      25.478  58.651  49.154  0.00  0.00    +0.116 A 
ATOM      7  N   UNL     1      26.317  58.664  50.247  0.00  0.00    -0.223 NA
ATOM      8  C   UNL     1      26.873  57.496  50.733  0.00  0.00    +0.220 A 
ATOM      9  N   UNL     1      27.725  57.487  51.827  0.00  0.00    -0.283 N 
ATOM     36  H   UNL     1      28.110  56.603  52.159  0.00  0.00    +0.155 HD
ATOM     37  N   UNL     1      26.598  56.318  50.134  0.00  0.00    -0.214 NA
BRANCH   4   3
ATOM      1  C   UNL     1      24.427  53.278  46.862  0.00  0.00    +0.020 A 
ATOM      2  C   UNL     1      24.603  54.614  47.383  0.00  0.00    +0.013 A 
ATOM      3  C   UNL     1      25.549  54.875  48.460  0.00  0.00    +0.019 A 
ATOM     38  C   UNL     1      26.308  53.753  48.993  0.00  0.00    +0.120 A 
ATOM     39  N   UNL     1      26.116  52.477  48.472  0.00  0.00    -0.263 NA
ATOM     40  C   UNL     1      25.207  52.214  47.437  0.00  0.00    +0.111 A 
ENDBRANCH   4   3
ENDBRANCH  10   9
BRANCH  12  13
ATOM     13  N   UNL     1      26.992  60.668  55.581  0.00  0.00    -0.281 N 
ATOM     14  C   UNL     1      25.668  60.456  55.929  0.00  0.00    +0.248 C 
ATOM     30  O   UNL     1      24.805  60.064  55.158  0.00  0.00    -0.270 OA
ATOM     31  H   UNL     1      27.558  61.177  56.260  0.00  0.00    +0.155 HD
BRANCH  14  15
ATOM     15  C   UNL     1      25.238  60.732  57.334  0.00  0.00    +0.037 A 
ATOM     16  C   UNL     1      25.295  62.084  57.894  0.00  0.00    +0.013 A 
ATOM     17  C   UNL     1      24.890  62.320  59.257  0.00  0.00    +0.005 A 
ATOM     18  C   UNL     1      24.422  61.199  60.069  0.00  0.00    -0.033 A 
ATOM     28  C   UNL     1      24.370  59.869  59.487  0.00  0.00    +0.005 A 
ATOM     29  C   UNL     1      24.767  59.634  58.151  0.00  0.00    +0.013 A 
BRANCH  18  19
ATOM     19  C   UNL     1      23.990  61.355  61.540  0.00  0.00    +0.119 C 
BRANCH  19  20
ATOM     20  N   UNL     1      23.284  62.617  61.915  0.00  0.00    -0.302 NA
ATOM     21  C   UNL     1      24.208  63.596  62.645  0.00  0.00    +0.066 C 
ATOM     22  C   UNL     1      23.460  64.919  63.010  0.00  0.00    -0.064 C 
ATOM     23  N   UNL     1      22.235  64.590  63.866  0.00  0.00    +0.379 N 
ATOM     24  C   UNL     1      21.562  65.836  64.259  0.00  0.00    -0.096 C 
ATOM     25  H   UNL     1      22.596  64.092  64.795  0.00  0.00    -0.082 HD
ATOM     26  C   UNL     1      21.312  63.614  63.149  0.00  0.00    -0.064 C 
ATOM     27  C   UNL     1      22.074  62.315  62.764  0.00  0.00    +0.066 C 
ENDBRANCH  19  20
ENDBRANCH  18  19
ENDBRANCH  14  15
ENDBRANCH  12  13
TORSDOF 6
ENDMDL
MODEL 2
REMARK VINA RESULT:     -10.3      1.216      1.844
REMARK  Name = C:\Users\Docking\Desktop\test protocol\1iep_ligandH.pdb
REMARK  8 active torsions:
REMARK  status: ('A' for Active; 'I' for Inactive)
REMARK    1  A    between atoms: _5  and  _11
REMARK    2  A    between atoms: _19  and  _21
REMARK    3  A    between atoms: _22  and  _66
REMARK    4  A    between atoms: _27  and  _30
REMARK    5  A    between atoms: _32  and  _33
REMARK    6  A    between atoms: _38  and  _43
REMARK    7  A    between atoms: _43  and  _46
REMARK    8  A    between atoms: _53  and  _55
REMARK                            x       y       z     vdW  Elec       q    Type
REMARK                         _______ _______ _______ _____ _____    ______ ____
ROOT
ATOM     10  C   UNL     1      28.162  59.002  52.429  0.00  0.00    +0.038 A 
ATOM     11  C   UNL     1      27.365  59.452  53.512  0.00  0.00    +0.047 A 
ATOM     12  C   UNL     1      27.659  60.703  54.193  0.00  0.00    +0.035 A 
ATOM     32  C   UNL     1      28.771  61.473  53.743  0.00  0.00    +0.024 A 
ATOM     33  C   UNL     1      29.592  61.030  52.644  0.00  0.00    +0.007 A 
ATOM     34  C   UNL     1      29.308  59.795  51.969  0.00  0.00    -0.029 A 
ATOM     35  C   UNL     1      30.227  59.366  50.801  0.00  0.00    +0.045 C 
ENDROOT
BRANCH  10   9
ATOM      4  C   UNL     1      25.815  56.440  49.117  0.00  0.00    +0.077 A 
ATOM      5  C   UNL     1      25.166  57.606  48.590  0.00  0.00    +0.048 A 
ATOM      6  C   UNL     1      25.458  58.844  49.204  0.00  0.00    +0.116 A 
ATOM      7  N   UNL     1      26.335  58.901  50.265  0.00  0.00    -0.223 NA
ATOM      8  C   UNL     1      26.943  57.758  50.750  0.00  0.00    +0.220 A 
ATOM      9  N   UNL     1      27.834  57.792  51.811  0.00  0.00    -0.283 N 
ATOM     36  H   UNL     1      28.256  56.926  52.144  0.00  0.00    +0.155 HD
ATOM     37  N   UNL     1      26.680  56.562  50.182  0.00  0.00    -0.214 NA
BRANCH   4   3
ATOM      1  C   UNL     1      24.485  53.405  47.038  0.00  0.00    +0.020 A 
ATOM      2  C   UNL     1      24.642  54.754  47.529  0.00  0.00    +0.013 A 
ATOM      3  C   UNL     1      25.612  55.060  48.573  0.00  0.00    +0.019 A 
ATOM     38  C   UNL     1      26.415  53.968  49.103  0.00  0.00    +0.120 A 
ATOM     39  N   UNL     1      26.241  52.678  48.612  0.00  0.00    -0.263 NA
ATOM     40  C   UNL     1      25.309  52.372  47.609  0.00  0.00    +0.111 A 
ENDBRANCH   4   3
ENDBRANCH  10   9
BRANCH  12  13
ATOM     13  N   UNL     1      26.890  61.207  55.304  0.00  0.00    -0.281 N 
ATOM     14  C   UNL     1      27.288  61.339  56.625  0.00  0.00    +0.248 C 
ATOM     30  O   UNL     1      28.300  60.841  57.095  0.00  0.00    -0.270 OA
ATOM     31  H   UNL     1      25.937  61.502  55.091  0.00  0.00    +0.155 HD
BRANCH  14  15
ATOM     15  C   UNL     1      26.429  62.125  57.562  0.00  0.00    +0.037 A 
ATOM     16  C   UNL     1      25.300  61.505  58.260  0.00  0.00    +0.013 A 
ATOM     17  C   UNL     1      24.478  62.290  59.146  0.00  0.00    +0.005 A 
ATOM     18  C   UNL     1      24.783  63.706  59.340  0.00  0.00    -0.033 A 
ATOM     28  C   UNL     1      25.912  64.294  58.639  0.00  0.00    +0.005 A 
ATOM     29  C   UNL     1      26.720  63.528  57.769  0.00  0.00    +0.013 A 
BRANCH  18  19
ATOM     19  C   UNL     1      23.947  64.625  60.249  0.00  0.00    +0.119 C 
BRANCH  19  20
ATOM     20  N   UNL     1      23.553  64.089  61.587  0.00  0.00    -0.302 NA
ATOM     21  C   UNL     1      22.244  63.298  61.526  0.00  0.00    +0.066 C 
ATOM     22  C   UNL     1      21.859  62.725  62.929  0.00  0.00    -0.064 C 
ATOM     23  N   UNL     1      21.752  63.874  63.934  0.00  0.00    +0.379 N 
ATOM     24  C   UNL     1      21.334  63.346  65.240  0.00  0.00    -0.096 C 
ATOM     25  H   UNL     1      20.952  64.563  63.575  0.00  0.00    -0.082 HD
ATOM     26  C   UNL     1      23.049  64.668  63.998  0.00  0.00    -0.064 C 
ATOM     27  C   UNL     1      23.437  65.207  62.593  0.00  0.00    +0.066 C 
ENDBRANCH  19  20
ENDBRANCH  18  19
ENDBRANCH  14  15
ENDBRANCH  12  13
TORSDOF 6
ENDMDL
MODEL 3
REMARK VINA RESULT:     -10.0      1.514      2.192
REMARK  Name = C:\Users\Docking\Desktop\test protocol\1iep_ligandH.pdb
REMARK  8 active torsions:
REMARK  status: ('A' for Active; 'I' for Inactive)
REMARK    1  A    between atoms: _5  and  _11
REMARK    2  A    between atoms: _19  and  _21
REMARK    3  A    between atoms: _22  and  _66
REMARK    4  A    between atoms: _27  and  _30
REMARK    5  A    between atoms: _32  and  _33
REMARK    6  A    between atoms: _38  and  _43
REMARK    7  A    between atoms: _43  and  _46
REMARK    8  A    between atoms: _53  and  _55
REMARK                            x       y       z     vdW  Elec       q    Type
REMARK                         _______ _______ _______ _____ _____    ______ ____
ROOT
ATOM     10  C   UNL     1      28.260  59.040  52.410  0.00  0.00    +0.038 A 
ATOM     11  C   UNL     1      27.435  59.574  53.433  0.00  0.00    +0.047 A 
ATOM     12  C   UNL     1      27.765  60.830  54.088  0.00  0.00    +0.035 A 
ATOM     32  C   UNL     1      28.943  61.519  53.673  0.00  0.00    +0.024 A 
ATOM     33  C   UNL     1      29.793  60.991  52.635  0.00  0.00    +0.007 A 
ATOM     34  C   UNL     1      29.473  59.750  51.988  0.00  0.00    -0.029 A 
ATOM     35  C   UNL     1      30.425  59.228  50.886  0.00  0.00    +0.045 C 
ENDROOT
BRANCH  10   9
ATOM      4  C   UNL     1      25.865  56.492  49.122  0.00  0.00    +0.077 A 
ATOM      5  C   UNL     1      25.269  57.669  48.558  0.00  0.00    +0.048 A 
ATOM      6  C   UNL     1      25.600  58.909  49.148  0.00  0.00    +0.116 A 
ATOM      7  N   UNL     1      26.463  58.958  50.221  0.00  0.00    -0.223 NA
ATOM      8  C   UNL     1      27.019  57.804  50.742  0.00  0.00    +0.220 A 
ATOM      9  N   UNL     1      27.895  57.830  51.816  0.00  0.00    -0.283 N 
ATOM     36  H   UNL     1      28.278  56.956  52.175  0.00  0.00    +0.155 HD
ATOM     37  N   UNL     1      26.718  56.607  50.198  0.00  0.00    -0.214 NA
BRANCH   4   3
ATOM      1  C   UNL     1      24.403  53.451  47.143  0.00  0.00    +0.020 A 
ATOM      2  C   UNL     1      24.603  54.805  47.606  0.00  0.00    +0.013 A 
ATOM      3  C   UNL     1      25.617  55.108  48.608  0.00  0.00    +0.019 A 
ATOM     38  C   UNL     1      26.420  54.009  49.124  0.00  0.00    +0.120 A 
ATOM     39  N   UNL     1      26.204  52.715  48.660  0.00  0.00    -0.263 NA
ATOM     40  C   UNL     1      25.230  52.412  47.697  0.00  0.00    +0.111 A 
ENDBRANCH   4   3
ENDBRANCH  10   9
BRANCH  12  13
ATOM     13  N   UNL     1      26.971  61.416  55.138  0.00  0.00    -0.281 N 
ATOM     14  C   UNL     1      27.091  61.226  56.505  0.00  0.00    +0.248 C 
ATOM     30  O   UNL     1      27.769  60.351  57.023  0.00  0.00    -0.270 OA
ATOM     31  H   UNL     1      26.228  62.049  54.837  0.00  0.00    +0.155 HD
BRANCH  14  15
ATOM     15  C   UNL     1      26.340  62.129  57.429  0.00  0.00    +0.037 A 
ATOM     16  C   UNL     1      25.159  61.658  58.157  0.00  0.00    +0.013 A 
ATOM     17  C   UNL     1      24.442  62.555  59.029  0.00  0.00    +0.005 A 
ATOM     18  C   UNL     1      24.906  63.932  59.178  0.00  0.00    -0.033 A 
ATOM     28  C   UNL     1      26.083  64.371  58.448  0.00  0.00    +0.005 A 
ATOM     29  C   UNL     1      26.788  63.495  57.592  0.00  0.00    +0.013 A 
BRANCH  18  19
ATOM     19  C   UNL     1      24.190  64.963  60.071  0.00  0.00    +0.119 C 
BRANCH  19  20
ATOM     20  N   UNL     1      24.518  64.951  61.528  0.00  0.00    -0.302 NA
ATOM     21  C   UNL     1      23.277  65.166  62.398  0.00  0.00    +0.066 C 
ATOM     22  C   UNL     1      23.635  65.129  63.919  0.00  0.00    -0.064 C 
ATOM     23  N   UNL     1      24.695  66.190  64.217  0.00  0.00    +0.379 N 
ATOM     24  C   UNL     1      24.992  66.196  65.657  0.00  0.00    -0.096 C 
ATOM     25  H   UNL     1      24.262  67.183  63.957  0.00  0.00    -0.082 HD
ATOM     26  C   UNL     1      25.932  65.985  63.354  0.00  0.00    -0.064 C 
ATOM     27  C   UNL     1      25.561  65.995  61.845  0.00  0.00    +0.066 C 
ENDBRANCH  19  20
ENDBRANCH  18  19
ENDBRANCH  14  15
ENDBRANCH  12  13
TORSDOF 6
ENDMDL
MODEL 4
REMARK VINA RESULT:      -9.6      2.096      2.908
REMARK  Name = C:\Users\Docking\Desktop\test protocol\1iep_ligandH.pdb
REMARK  8 active torsions:
REMARK  status: ('A' for Active; 'I' for Inactive)
REMARK    1  A    between atoms: _5  and  _11
REMARK    2  A    between atoms: _19  and  _21
REMARK    3  A    between atoms: _22  and  _66
REMARK    4  A    between atoms: _27  and  _30
REMARK    5  A    between atoms: _32  and  _33
REMARK    6  A    between atoms: _38  and  _43
REMARK    7  A    between atoms: _43  and  _46
REMARK    8  A    between atoms: _53  and  _55
REMARK                            x       y       z     vdW  Elec       q    Type
REMARK                         _______ _______ _______ _____ _____    ______ ____
ROOT
ATOM     10  C   UNL     1      28.209  58.789  51.903  0.00  0.00    +0.038 A 
ATOM     11  C   UNL     1      27.626  59.083  53.162  0.00  0.00    +0.047 A 
ATOM     12  C   UNL     1      27.880  60.349  53.831  0.00  0.00    +0.035 A 
ATOM     32  C   UNL     1      28.731  61.295  53.188  0.00  0.00    +0.024 A 
ATOM     33  C   UNL     1      29.332  61.012  51.908  0.00  0.00    +0.007 A 
ATOM     34  C   UNL     1      29.087  59.764  51.244  0.00  0.00    -0.029 A 
ATOM     35  C   UNL     1      29.763  59.512  49.877  0.00  0.00    +0.045 C 
ENDROOT
BRANCH  10   9
ATOM      4  C   UNL     1      25.684  56.008  48.914  0.00  0.00    +0.077 A 
ATOM      5  C   UNL     1      24.830  57.095  48.530  0.00  0.00    +0.048 A 
ATOM      6  C   UNL     1      25.069  58.351  49.131  0.00  0.00    +0.116 A 
ATOM      7  N   UNL     1      26.089  58.499  50.045  0.00  0.00    -0.223 NA
ATOM      8  C   UNL     1      26.894  57.430  50.394  0.00  0.00    +0.220 A 
ATOM      9  N   UNL     1      27.931  57.557  51.305  0.00  0.00    -0.283 N 
ATOM     36  H   UNL     1      28.497  56.743  51.542  0.00  0.00    +0.155 HD
ATOM     37  N   UNL     1      26.685  56.219  49.836  0.00  0.00    -0.214 NA
BRANCH   4   3
ATOM      1  C   UNL     1      26.191  52.180  48.293  0.00  0.00    +0.020 A 
ATOM      2  C   UNL     1      26.350  53.500  48.857  0.00  0.00    +0.013 A 
ATOM      3  C   UNL     1      25.560  54.621  48.365  0.00  0.00    +0.019 A 
ATOM     38  C   UNL     1      24.609  54.370  47.292  0.00  0.00    +0.120 A 
ATOM     39  N   UNL     1      24.478  53.088  46.767  0.00  0.00    -0.263 NA
ATOM     40  C   UNL     1      25.235  52.002  47.232  0.00  0.00    +0.111 A 
ENDBRANCH   4   3
ENDBRANCH  10   9
BRANCH  12  13
ATOM     13  N   UNL     1      27.323  60.700  55.114  0.00  0.00    -0.281 N 
ATOM     14  C   UNL     1      26.049  60.438  55.590  0.00  0.00    +0.248 C 
ATOM     30  O   UNL     1      25.120  60.046  54.899  0.00  0.00    -0.270 OA
ATOM     31  H   UNL     1      27.944  61.203  55.749  0.00  0.00    +0.155 HD
BRANCH  14  15
ATOM     15  C   UNL     1      25.761  60.655  57.040  0.00  0.00    +0.037 A 
ATOM     16  C   UNL     1      26.734  61.308  57.919  0.00  0.00    +0.013 A 
ATOM     17  C   UNL     1      26.438  61.491  59.318  0.00  0.00    +0.005 A 
ATOM     18  C   UNL     1      25.160  61.020  59.846  0.00  0.00    -0.033 A 
ATOM     28  C   UNL     1      24.210  60.380  58.951  0.00  0.00    +0.005 A 
ATOM     29  C   UNL     1      24.498  60.199  57.580  0.00  0.00    +0.013 A 
BRANCH  18  19
ATOM     19  C   UNL     1      24.768  61.153  61.330  0.00  0.00    +0.119 C 
BRANCH  19  20
ATOM     20  N   UNL     1      25.089  60.004  62.228  0.00  0.00    -0.302 NA
ATOM     21  C   UNL     1      23.960  58.969  62.262  0.00  0.00    +0.066 C 
ATOM     22  C   UNL     1      24.322  57.763  63.188  0.00  0.00    -0.064 C 
ATOM     23  N   UNL     1      24.627  58.278  64.596  0.00  0.00    +0.379 N 
ATOM     24  C   UNL     1      24.911  57.141  65.484  0.00  0.00    -0.096 C 
ATOM     25  H   UNL     1      23.710  58.784  64.977  0.00  0.00    -0.082 HD
ATOM     26  C   UNL     1      25.747  59.309  64.571  0.00  0.00    -0.064 C 
ATOM     27  C   UNL     1      25.390  60.489  63.624  0.00  0.00    +0.066 C 
ENDBRANCH  19  20
ENDBRANCH  18  19
ENDBRANCH  14  15
ENDBRANCH  12  13
TORSDOF 6
ENDMDL
MODEL 5
REMARK VINA RESULT:      -9.4      1.667      2.361
REMARK  Name = C:\Users\Docking\Desktop\test protocol\1iep_ligandH.pdb
REMARK  8 active torsions:
REMARK  status: ('A' for Active; 'I' for Inactive)
REMARK    1  A    between atoms: _5  and  _11
REMARK    2  A    between atoms: _19  and  _21
REMARK    3  A    between atoms: _22  and  _66
REMARK    4  A    between atoms: _27  and  _30
REMARK    5  A    between atoms: _32  and  _33
REMARK    6  A    between atoms: _38  and  _43
REMARK    7  A    between atoms: _43  and  _46
REMARK    8  A    between atoms: _53  and  _55
REMARK                            x       y       z     vdW  Elec       q    Type
REMARK                         _______ _______ _______ _____ _____    ______ ____
ROOT
ATOM     10  C   UNL     1      28.278  59.150  54.202  0.00  0.00    +0.038 A 
ATOM     11  C   UNL     1      27.343  59.799  55.048  0.00  0.00    +0.047 A 
ATOM     12  C   UNL     1      27.751  60.879  55.932  0.00  0.00    +0.035 A 
ATOM     32  C   UNL     1      29.120  61.276  55.927  0.00  0.00    +0.024 A 
ATOM     33  C   UNL     1      30.085  60.627  55.074  0.00  0.00    +0.007 A 
ATOM     34  C   UNL     1      29.688  59.559  54.202  0.00  0.00    -0.029 A 
ATOM     35  C   UNL     1      30.766  58.895  53.314  0.00  0.00    +0.045 C 
ENDROOT
BRANCH  10   9
ATOM      4  C   UNL     1      26.395  57.538  50.092  0.00  0.00    +0.077 A 
ATOM      5  C   UNL     1      26.265  58.865  49.562  0.00  0.00    +0.048 A 
ATOM      6  C   UNL     1      26.687  59.935  50.382  0.00  0.00    +0.116 A 
ATOM      7  N   UNL     1      27.201  59.685  51.636  0.00  0.00    -0.223 NA
ATOM      8  C   UNL     1      27.311  58.394  52.117  0.00  0.00    +0.220 A 
ATOM      9  N   UNL     1      27.832  58.119  53.373  0.00  0.00    -0.283 N 
ATOM     36  H   UNL     1      27.890  57.153  53.694  0.00  0.00    +0.155 HD
ATOM     37  N   UNL     1      26.913  57.354  51.354  0.00  0.00    -0.214 NA
BRANCH   4   3
ATOM      1  C   UNL     1      24.605  55.077  47.634  0.00  0.00    +0.020 A 
ATOM      2  C   UNL     1      24.953  56.296  48.326  0.00  0.00    +0.013 A 
ATOM      3  C   UNL     1      25.995  56.303  49.345  0.00  0.00    +0.019 A 
ATOM     38  C   UNL     1      26.672  55.050  49.642  0.00  0.00    +0.120 A 
ATOM     39  N   UNL     1      26.315  53.891  48.960  0.00  0.00    -0.263 NA
ATOM     40  C   UNL     1      25.312  53.872  47.978  0.00  0.00    +0.111 A 
ENDBRANCH   4   3
ENDBRANCH  10   9
BRANCH  12  13
ATOM     13  N   UNL     1      26.848  61.570  56.819  0.00  0.00    -0.281 N 
ATOM     14  C   UNL     1      26.342  61.129  58.031  0.00  0.00    +0.248 C 
ATOM     30  O   UNL     1      26.423  59.979  58.437  0.00  0.00    -0.270 OA
ATOM     31  H   UNL     1      26.544  62.495  56.516  0.00  0.00    +0.155 HD
BRANCH  14  15
ATOM     15  C   UNL     1      25.632  62.104  58.914  0.00  0.00    +0.037 A 
ATOM     16  C   UNL     1      24.450  62.833  58.445  0.00  0.00    +0.013 A 
ATOM     17  C   UNL     1      23.794  63.780  59.311  0.00  0.00    +0.005 A 
ATOM     18  C   UNL     1      24.317  64.002  60.657  0.00  0.00    -0.033 A 
ATOM     28  C   UNL     1      25.487  63.261  61.098  0.00  0.00    +0.005 A 
ATOM     29  C   UNL     1      26.134  62.333  60.252  0.00  0.00    +0.013 A 
BRANCH  18  19
ATOM     19  C   UNL     1      23.693  65.009  61.641  0.00  0.00    +0.119 C 
BRANCH  19  20
ATOM     20  N   UNL     1      22.976  64.451  62.827  0.00  0.00    -0.302 NA
ATOM     21  C   UNL     1      21.896  63.443  62.423  0.00  0.00    +0.066 C 
ATOM     22  C   UNL     1      21.172  62.853  63.677  0.00  0.00    -0.064 C 
ATOM     23  N   UNL     1      20.568  63.994  64.498  0.00  0.00    +0.379 N 
ATOM     24  C   UNL     1      19.837  63.438  65.646  0.00  0.00    -0.096 C 
ATOM     25  H   UNL     1      19.830  64.522  63.850  0.00  0.00    -0.082 HD
ATOM     26  C   UNL     1      21.634  65.002  64.901  0.00  0.00    -0.064 C 
ATOM     27  C   UNL     1      22.368  65.560  63.649  0.00  0.00    +0.066 C 
ENDBRANCH  19  20
ENDBRANCH  18  19
ENDBRANCH  14  15
ENDBRANCH  12  13
TORSDOF 6
ENDMDL
