MODEL 1
REMARK VINA RESULT:     -10.8      0.000      0.000
REMARK  Name = C:\Users\Docking\Desktop\test protocol\1iep_ligandH.pdb
REMARK  8 active torsions:
REMARK  status: ('A' for Active; 'I' for Inactive)
REMARK    1  A    between atoms: _5  and  _11
REMARK    2  A    between atoms: _19  and  _21
REMARK    3  A    between atoms: _22  and  _66
REMARK    4  A    between atoms: _27  and  _30
REMARK    5  A    between atoms: _32  and  _33
REMARK    6  A    between atoms: _38  and  _43
REMARK    7  A    between atoms: _43  and  _46
REMARK    8  A    between atoms: _53  and  _55
REMARK                            x       y       z     vdW  Elec       q    Type
REMARK                         _______ _______ _______ _____ _____    ______ ____
ROOT
ATOM     10  C   UNL     1      27.857  58.799  52.242  0.00  0.00    +0.038 A 
ATOM     11  C   UNL     1      27.183  59.135  53.443  0.00  0.00    +0.047 A 
ATOM     12  C   UNL     1      27.462  60.382  54.139  0.00  0.00    +0.035 A 
ATOM     32  C   UNL     1      28.433  61.264  53.582  0.00  0.00    +0.024 A 
ATOM     33  C   UNL     1      29.129  60.937  52.362  0.00  0.00    +0.007 A 
ATOM     34  C   UNL     1      28.859  59.708  51.673  0.00  0.00    -0.029 A 
ATOM     35  C   UNL     1      29.640  59.406  50.372  0.00  0.00    +0.045 C 
ENDROOT
BRANCH  10   9
ATOM      4  C   UNL     1      25.755  56.249  48.761  0.00  0.00    +0.077 A 
ATOM      5  C   UNL     1      25.200  57.424  48.154  0.00  0.00    +0.048 A 
ATOM      6  C   UNL     1      25.473  58.665  48.773  0.00  0.00    +0.116 A 
ATOM      7  N   UNL     1      26.246  58.714  49.913  0.00  0.00    -0.223 NA
ATOM      8  C   UNL     1      26.764  57.562  50.474  0.00  0.00    +0.220 A 
ATOM      9  N   UNL     1      27.550  57.589  51.616  0.00  0.00    -0.283 N 
ATOM     36  H   UNL     1      27.908  56.716  52.002  0.00  0.00    +0.155 HD
ATOM     37  N   UNL     1      26.517  56.365  49.903  0.00  0.00    -0.214 NA
BRANCH   4   3
ATOM      1  C   UNL     1      24.551  53.221  46.597  0.00  0.00    +0.020 A 
ATOM      2  C   UNL     1      24.706  54.575  47.077  0.00  0.00    +0.013 A 
ATOM      3  C   UNL     1      25.558  54.866  48.223  0.00  0.00    +0.019 A 
ATOM     38  C   UNL     1      26.245  53.755  48.866  0.00  0.00    +0.120 A 
ATOM     39  N   UNL     1      26.075  52.462  48.382  0.00  0.00    -0.263 NA
ATOM     40  C   UNL     1      25.256  52.170  47.281  0.00  0.00    +0.111 A 
ENDBRANCH   4   3
ENDBRANCH  10   9
BRANCH  12  13
ATOM     13  N   UNL     1      26.815  60.774  55.366  0.00  0.00    -0.281 N 
ATOM     14  C   UNL     1      25.517  60.502  55.769  0.00  0.00    +0.248 C 
ATOM     30  O   UNL     1      24.645  60.060  55.037  0.00  0.00    -0.270 OA
ATOM     31  H   UNL     1      27.382  61.318  56.017  0.00  0.00    +0.155 HD
BRANCH  14  15
ATOM     15  C   UNL     1      25.130  60.774  57.187  0.00  0.00    +0.037 A 
ATOM     16  C   UNL     1      25.764  61.848  57.956  0.00  0.00    +0.013 A 
ATOM     17  C   UNL     1      25.383  62.078  59.327  0.00  0.00    +0.005 A 
ATOM     18  C   UNL     1      24.361  61.233  59.938  0.00  0.00    -0.033 A 
ATOM     28  C   UNL     1      23.744  60.178  59.151  0.00  0.00    +0.005 A 
ATOM     29  C   UNL     1      24.115  59.949  57.807  0.00  0.00    +0.013 A 
BRANCH  18  19
ATOM     19  C   UNL     1      23.908  61.393  61.401  0.00  0.00    +0.119 C 
BRANCH  19  20
ATOM     20  N   UNL     1      23.053  62.573  61.727  0.00  0.00    -0.302 NA
ATOM     21  C   UNL     1      23.870  63.733  62.304  0.00  0.00    +0.066 C 
ATOM     22  C   UNL     1      22.963  64.967  62.618  0.00  0.00    -0.064 C 
ATOM     23  N   UNL     1      21.856  64.550  63.587  0.00  0.00    +0.379 N 
ATOM     24  C   UNL     1      21.036  65.721  63.930  0.00  0.00    -0.096 C 
ATOM     25  H   UNL     1      22.344  64.192  64.524  0.00  0.00    -0.082 HD
ATOM     26  C   UNL     1      21.040  63.395  63.022  0.00  0.00    -0.064 C 
ATOM     27  C   UNL     1      21.955  62.185  62.686  0.00  0.00    +0.066 C 
ENDBRANCH  19  20
ENDBRANCH  18  19
ENDBRANCH  14  15
ENDBRANCH  12  13
TORSDOF 6
ENDMDL
MODEL 2
REMARK VINA RESULT:     -10.8      2.213      2.889
REMARK  Name = C:\Users\Docking\Desktop\test protocol\1iep_ligandH.pdb
REMARK  8 active torsions:
REMARK  status: ('A' for Active; 'I' for Inactive)
REMARK    1  A    between atoms: _5  and  _11
REMARK    2  A    between atoms: _19  and  _21
REMARK    3  A    between atoms: _22  and  _66
REMARK    4  A    between atoms: _27  and  _30
REMARK    5  A    between atoms: _32  and  _33
REMARK    6  A    between atoms: _38  and  _43
REMARK    7  A    between atoms: _43  and  _46
REMARK    8  A    between atoms: _53  and  _55
REMARK                            x       y       z     vdW  Elec       q    Type
REMARK                         _______ _______ _______ _____ _____    ______ ____
ROOT
ATOM     10  C   UNL     1      28.012  58.593  51.540  0.00  0.00    +0.038 A 
ATOM     11  C   UNL     1      27.480  58.793  52.839  0.00  0.00    +0.047 A 
ATOM     12  C   UNL     1      27.685  60.044  53.552  0.00  0.00    +0.035 A 
ATOM     32  C   UNL     1      28.436  61.072  52.911  0.00  0.00    +0.024 A 
ATOM     33  C   UNL     1      28.986  60.885  51.591  0.00  0.00    +0.007 A 
ATOM     34  C   UNL     1      28.789  59.652  50.884  0.00  0.00    -0.029 A 
ATOM     35  C   UNL     1      29.407  59.505  49.474  0.00  0.00    +0.045 C 
ENDROOT
BRANCH  10   9
ATOM      4  C   UNL     1      25.538  55.785  48.535  0.00  0.00    +0.077 A 
ATOM      5  C   UNL     1      24.603  56.831  48.233  0.00  0.00    +0.048 A 
ATOM      6  C   UNL     1      24.791  58.074  48.877  0.00  0.00    +0.116 A 
ATOM      7  N   UNL     1      25.838  58.248  49.756  0.00  0.00    -0.223 NA
ATOM      8  C   UNL     1      26.720  57.218  50.026  0.00  0.00    +0.220 A 
ATOM      9  N   UNL     1      27.785  57.372  50.901  0.00  0.00    -0.283 N 
ATOM     36  H   UNL     1      28.409  56.586  51.079  0.00  0.00    +0.155 HD
ATOM     37  N   UNL     1      26.562  56.020  49.425  0.00  0.00    -0.214 NA
BRANCH   4   3
ATOM      1  C   UNL     1      24.730  52.789  46.154  0.00  0.00    +0.020 A 
ATOM      2  C   UNL     1      24.760  54.128  46.694  0.00  0.00    +0.013 A 
ATOM      3  C   UNL     1      25.474  54.416  47.931  0.00  0.00    +0.019 A 
ATOM     38  C   UNL     1      26.154  53.318  48.602  0.00  0.00    +0.120 A 
ATOM     39  N   UNL     1      26.107  52.038  48.058  0.00  0.00    -0.263 NA
ATOM     40  C   UNL     1      25.421  51.749  46.869  0.00  0.00    +0.111 A 
ENDBRANCH   4   3
ENDBRANCH  10   9
BRANCH  12  13
ATOM     13  N   UNL     1      27.175  60.301  54.876  0.00  0.00    -0.281 N 
ATOM     14  C   UNL     1      25.867  60.196  55.320  0.00  0.00    +0.248 C 
ATOM     30  O   UNL     1      24.896  60.069  54.588  0.00  0.00    -0.270 OA
ATOM     31  H   UNL     1      27.861  60.596  55.570  0.00  0.00    +0.155 HD
BRANCH  14  15
ATOM     15  C   UNL     1      25.596  60.254  56.789  0.00  0.00    +0.037 A 
ATOM     16  C   UNL     1      26.109  59.225  57.697  0.00  0.00    +0.013 A 
ATOM     17  C   UNL     1      25.819  59.296  59.108  0.00  0.00    +0.005 A 
ATOM     18  C   UNL     1      25.012  60.401  59.618  0.00  0.00    -0.033 A 
ATOM     28  C   UNL     1      24.520  61.410  58.695  0.00  0.00    +0.005 A 
ATOM     29  C   UNL     1      24.801  61.344  57.312  0.00  0.00    +0.013 A 
BRANCH  18  19
ATOM     19  C   UNL     1      24.635  60.545  61.105  0.00  0.00    +0.119 C 
BRANCH  19  20
ATOM     20  N   UNL     1      23.470  59.750  61.595  0.00  0.00    -0.302 NA
ATOM     21  C   UNL     1      23.906  58.562  62.457  0.00  0.00    +0.066 C 
ATOM     22  C   UNL     1      22.673  57.755  62.979  0.00  0.00    -0.064 C 
ATOM     23  N   UNL     1      21.835  57.282  61.790  0.00  0.00    +0.379 N 
ATOM     24  C   UNL     1      20.707  56.474  62.275  0.00  0.00    -0.096 C 
ATOM     25  H   UNL     1      22.480  56.622  61.163  0.00  0.00    -0.082 HD
ATOM     26  C   UNL     1      21.399  58.457  60.926  0.00  0.00    -0.064 C 
ATOM     27  C   UNL     1      22.630  59.269  60.436  0.00  0.00    +0.066 C 
ENDBRANCH  19  20
ENDBRANCH  18  19
ENDBRANCH  14  15
ENDBRANCH  12  13
TORSDOF 6
ENDMDL
MODEL 3
REMARK VINA RESULT:     -10.5      1.189      1.805
REMARK  Name = C:\Users\Docking\Desktop\test protocol\1iep_ligandH.pdb
REMARK  8 active torsions:
REMARK  status: ('A' for Active; 'I' for Inactive)
REMARK    1  A    between atoms: _5  and  _11
REMARK    2  A    between atoms: _19  and  _21
REMARK    3  A    between atoms: _22  and  _66
REMARK    4  A    between atoms: _27  and  _30
REMARK    5  A    between atoms: _32  and  _33
REMARK    6  A    between atoms: _38  and  _43
REMARK    7  A    between atoms: _43  and  _46
REMARK    8  A    between atoms: _53  and  _55
REMARK                            x       y       z     vdW  Elec       q    Type
REMARK                         _______ _______ _______ _____ _____    ______ ____
ROOT
ATOM     10  C   UNL     1      28.004  58.950  52.155  0.00  0.00    +0.038 A 
ATOM     11  C   UNL     1      27.205  59.447  53.217  0.00  0.00    +0.047 A 
ATOM     12  C   UNL     1      27.511  60.716  53.859  0.00  0.00    +0.035 A 
ATOM     32  C   UNL     1      28.638  61.454  53.393  0.00  0.00    +0.024 A 
ATOM     33  C   UNL     1      29.462  60.964  52.316  0.00  0.00    +0.007 A 
ATOM     34  C   UNL     1      29.166  59.712  51.681  0.00  0.00    -0.029 A 
ATOM     35  C   UNL     1      30.087  59.232  50.535  0.00  0.00    +0.045 C 
ENDROOT
BRANCH  10   9
ATOM      4  C   UNL     1      25.829  56.328  48.774  0.00  0.00    +0.077 A 
ATOM      5  C   UNL     1      25.303  57.494  48.125  0.00  0.00    +0.048 A 
ATOM      6  C   UNL     1      25.609  58.750  48.697  0.00  0.00    +0.116 A 
ATOM      7  N   UNL     1      26.385  58.821  49.834  0.00  0.00    -0.223 NA
ATOM      8  C   UNL     1      26.875  57.677  50.436  0.00  0.00    +0.220 A 
ATOM      9  N   UNL     1      27.665  57.726  51.575  0.00  0.00    -0.283 N 
ATOM     36  H   UNL     1      28.001  56.859  51.993  0.00  0.00    +0.155 HD
ATOM     37  N   UNL     1      26.596  56.467  49.910  0.00  0.00    -0.214 NA
BRANCH   4   3
ATOM      1  C   UNL     1      24.538  53.254  46.729  0.00  0.00    +0.020 A 
ATOM      2  C   UNL     1      24.729  54.620  47.159  0.00  0.00    +0.013 A 
ATOM      3  C   UNL     1      25.596  54.932  48.288  0.00  0.00    +0.019 A 
ATOM     38  C   UNL     1      26.260  53.829  48.966  0.00  0.00    +0.120 A 
ATOM     39  N   UNL     1      26.056  52.523  48.531  0.00  0.00    -0.263 NA
ATOM     40  C   UNL     1      25.223  52.212  47.447  0.00  0.00    +0.111 A 
ENDBRANCH   4   3
ENDBRANCH  10   9
BRANCH  12  13
ATOM     13  N   UNL     1      26.741  61.266  54.946  0.00  0.00    -0.281 N 
ATOM     14  C   UNL     1      26.985  61.155  56.305  0.00  0.00    +0.248 C 
ATOM     30  O   UNL     1      27.789  60.380  56.802  0.00  0.00    -0.270 OA
ATOM     31  H   UNL     1      25.915  61.804  54.682  0.00  0.00    +0.155 HD
BRANCH  14  15
ATOM     15  C   UNL     1      26.214  62.018  57.251  0.00  0.00    +0.037 A 
ATOM     16  C   UNL     1      24.997  61.531  57.905  0.00  0.00    +0.013 A 
ATOM     17  C   UNL     1      24.263  62.391  58.799  0.00  0.00    +0.005 A 
ATOM     18  C   UNL     1      24.746  63.747  59.046  0.00  0.00    -0.033 A 
ATOM     28  C   UNL     1      25.960  64.203  58.389  0.00  0.00    +0.005 A 
ATOM     29  C   UNL     1      26.681  63.364  57.510  0.00  0.00    +0.013 A 
BRANCH  18  19
ATOM     19  C   UNL     1      24.015  64.740  59.969  0.00  0.00    +0.119 C 
BRANCH  19  20
ATOM     20  N   UNL     1      23.579  64.238  61.306  0.00  0.00    -0.302 NA
ATOM     21  C   UNL     1      22.303  63.396  61.215  0.00  0.00    +0.066 C 
ATOM     22  C   UNL     1      21.874  62.860  62.620  0.00  0.00    -0.064 C 
ATOM     23  N   UNL     1      21.679  64.038  63.575  0.00  0.00    +0.379 N 
ATOM     24  C   UNL     1      21.219  63.541  64.880  0.00  0.00    -0.096 C 
ATOM     25  H   UNL     1      20.872  64.683  63.155  0.00  0.00    -0.082 HD
ATOM     26  C   UNL     1      22.942  64.882  63.669  0.00  0.00    -0.064 C 
ATOM     27  C   UNL     1      23.376  65.386  62.264  0.00  0.00    +0.066 C 
ENDBRANCH  19  20
ENDBRANCH  18  19
ENDBRANCH  14  15
ENDBRANCH  12  13
TORSDOF 6
ENDMDL
MODEL 4
REMARK VINA RESULT:     -10.4      1.950      2.393
REMARK  Name = C:\Users\Docking\Desktop\test protocol\1iep_ligandH.pdb
REMARK  8 active torsions:
REMARK  status: ('A' for Active; 'I' for Inactive)
REMARK    1  A    between atoms: _5  and  _11
REMARK    2  A    between atoms: _19  and  _21
REMARK    3  A    between atoms: _22  and  _66
REMARK    4  A    between atoms: _27  and  _30
REMARK    5  A    between atoms: _32  and  _33
REMARK    6  A    between atoms: _38  and  _43
REMARK    7  A    between atoms: _43  and  _46
REMARK    8  A    between atoms: _53  and  _55
REMARK                            x       y       z     vdW  Elec       q    Type
REMARK                         _______ _______ _______ _____ _____    ______ ____
ROOT
ATOM     10  C   UNL     1      28.018  59.030  52.296  0.00  0.00    +0.038 A 
ATOM     11  C   UNL     1      27.227  59.547  53.355  0.00  0.00    +0.047 A 
ATOM     12  C   UNL     1      27.566  60.804  54.002  0.00  0.00    +0.035 A 
ATOM     32  C   UNL     1      28.715  61.512  53.544  0.00  0.00    +0.024 A 
ATOM     33  C   UNL     1      29.530  61.002  52.469  0.00  0.00    +0.007 A 
ATOM     34  C   UNL     1      29.202  59.760  51.829  0.00  0.00    -0.029 A 
ATOM     35  C   UNL     1      30.116  59.258  50.686  0.00  0.00    +0.045 C 
ENDROOT
BRANCH  10   9
ATOM      4  C   UNL     1      25.885  56.480  48.834  0.00  0.00    +0.077 A 
ATOM      5  C   UNL     1      25.450  57.663  48.149  0.00  0.00    +0.048 A 
ATOM      6  C   UNL     1      25.790  58.908  48.724  0.00  0.00    +0.116 A 
ATOM      7  N   UNL     1      26.511  58.954  49.897  0.00  0.00    -0.223 NA
ATOM      8  C   UNL     1      26.913  57.795  50.533  0.00  0.00    +0.220 A 
ATOM      9  N   UNL     1      27.646  57.818  51.710  0.00  0.00    -0.283 N 
ATOM     36  H   UNL     1      27.918  56.940  52.153  0.00  0.00    +0.155 HD
ATOM     37  N   UNL     1      26.600  56.593  50.005  0.00  0.00    -0.214 NA
BRANCH   4   3
ATOM      1  C   UNL     1      24.489  53.446  46.798  0.00  0.00    +0.020 A 
ATOM      2  C   UNL     1      24.724  54.805  47.226  0.00  0.00    +0.013 A 
ATOM      3  C   UNL     1      25.607  55.091  48.350  0.00  0.00    +0.019 A 
ATOM     38  C   UNL     1      26.242  53.969  49.024  0.00  0.00    +0.120 A 
ATOM     39  N   UNL     1      25.996  52.669  48.591  0.00  0.00    -0.263 NA
ATOM     40  C   UNL     1      25.147  52.383  47.511  0.00  0.00    +0.111 A 
ENDBRANCH   4   3
ENDBRANCH  10   9
BRANCH  12  13
ATOM     13  N   UNL     1      26.806  61.374  55.087  0.00  0.00    -0.281 N 
ATOM     14  C   UNL     1      26.938  61.123  56.443  0.00  0.00    +0.248 C 
ATOM     30  O   UNL     1      27.591  60.205  56.915  0.00  0.00    -0.270 OA
ATOM     31  H   UNL     1      26.082  62.043  54.823  0.00  0.00    +0.155 HD
BRANCH  14  15
ATOM     15  C   UNL     1      26.231  62.012  57.414  0.00  0.00    +0.037 A 
ATOM     16  C   UNL     1      26.510  63.449  57.472  0.00  0.00    +0.013 A 
ATOM     17  C   UNL     1      25.826  64.281  58.430  0.00  0.00    +0.005 A 
ATOM     18  C   UNL     1      24.854  63.677  59.337  0.00  0.00    -0.033 A 
ATOM     28  C   UNL     1      24.592  62.250  59.255  0.00  0.00    +0.005 A 
ATOM     29  C   UNL     1      25.261  61.431  58.318  0.00  0.00    +0.013 A 
BRANCH  18  19
ATOM     19  C   UNL     1      24.092  64.485  60.405  0.00  0.00    +0.119 C 
BRANCH  19  20
ATOM     20  N   UNL     1      24.716  65.759  60.872  0.00  0.00    -0.302 NA
ATOM     21  C   UNL     1      25.971  65.509  61.714  0.00  0.00    +0.066 C 
ATOM     22  C   UNL     1      26.623  66.853  62.176  0.00  0.00    -0.064 C 
ATOM     23  N   UNL     1      25.598  67.671  62.962  0.00  0.00    +0.379 N 
ATOM     24  C   UNL     1      26.225  68.909  63.447  0.00  0.00    -0.096 C 
ATOM     25  H   UNL     1      25.299  67.071  63.853  0.00  0.00    -0.082 HD
ATOM     26  C   UNL     1      24.346  67.921  62.134  0.00  0.00    -0.064 C 
ATOM     27  C   UNL     1      23.722  66.581  61.655  0.00  0.00    +0.066 C 
ENDBRANCH  19  20
ENDBRANCH  18  19
ENDBRANCH  14  15
ENDBRANCH  12  13
TORSDOF 6
ENDMDL
MODEL 5
REMARK VINA RESULT:     -10.0      1.587      1.880
REMARK  Name = C:\Users\Docking\Desktop\test protocol\1iep_ligandH.pdb
REMARK  8 active torsions:
REMARK  status: ('A' for Active; 'I' for Inactive)
REMARK    1  A    between atoms: _5  and  _11
REMARK    2  A    between atoms: _19  and  _21
REMARK    3  A    between atoms: _22  and  _66
REMARK    4  A    between atoms: _27  and  _30
REMARK    5  A    between atoms: _32  and  _33
REMARK    6  A    between atoms: _38  and  _43
REMARK    7  A    between atoms: _43  and  _46
REMARK    8  A    between atoms: _53  and  _55
REMARK                            x       y       z     vdW  Elec       q    Type
REMARK                         _______ _______ _______ _____ _____    ______ ____
ROOT
ATOM     10  C   UNL     1      28.555  58.522  50.772  0.00  0.00    +0.038 A 
ATOM     11  C   UNL     1      27.906  58.909  51.973  0.00  0.00    +0.047 A 
ATOM     12  C   UNL     1      28.211  60.177  52.618  0.00  0.00    +0.035 A 
ATOM     32  C   UNL     1      29.180  61.028  52.011  0.00  0.00    +0.024 A 
ATOM     33  C   UNL     1      29.849  60.650  50.792  0.00  0.00    +0.007 A 
ATOM     34  C   UNL     1      29.555  59.400  50.152  0.00  0.00    -0.029 A 
ATOM     35  C   UNL     1      30.308  59.044  48.849  0.00  0.00    +0.045 C 
ENDROOT
BRANCH  10   9
ATOM      4  C   UNL     1      25.559  55.645  48.368  0.00  0.00    +0.077 A 
ATOM      5  C   UNL     1      24.557  56.668  48.276  0.00  0.00    +0.048 A 
ATOM      6  C   UNL     1      24.849  57.917  48.866  0.00  0.00    +0.116 A 
ATOM      7  N   UNL     1      26.056  58.119  49.499  0.00  0.00    -0.223 NA
ATOM      8  C   UNL     1      27.000  57.111  49.571  0.00  0.00    +0.220 A 
ATOM      9  N   UNL     1      28.224  57.294  50.196  0.00  0.00    -0.283 N 
ATOM     36  H   UNL     1      28.891  56.523  50.234  0.00  0.00    +0.155 HD
ATOM     37  N   UNL     1      26.745  55.908  49.016  0.00  0.00    -0.214 NA
BRANCH   4   3
ATOM      1  C   UNL     1      24.549  52.669  46.039  0.00  0.00    +0.020 A 
ATOM      2  C   UNL     1      24.673  54.013  46.554  0.00  0.00    +0.013 A 
ATOM      3  C   UNL     1      25.400  54.273  47.790  0.00  0.00    +0.019 A 
ATOM     38  C   UNL     1      25.996  53.142  48.486  0.00  0.00    +0.120 A 
ATOM     39  N   UNL     1      25.859  51.859  47.967  0.00  0.00    -0.263 NA
ATOM     40  C   UNL     1      25.159  51.596  46.779  0.00  0.00    +0.111 A 
ENDBRANCH   4   3
ENDBRANCH  10   9
BRANCH  12  13
ATOM     13  N   UNL     1      27.590  60.619  53.842  0.00  0.00    -0.281 N 
ATOM     14  C   UNL     1      26.378  60.215  54.377  0.00  0.00    +0.248 C 
ATOM     30  O   UNL     1      25.538  59.565  53.772  0.00  0.00    -0.270 OA
ATOM     31  H   UNL     1      28.108  61.315  54.380  0.00  0.00    +0.155 HD
BRANCH  14  15
ATOM     15  C   UNL     1      26.044  60.600  55.782  0.00  0.00    +0.037 A 
ATOM     16  C   UNL     1      26.960  61.414  56.585  0.00  0.00    +0.013 A 
ATOM     17  C   UNL     1      26.621  61.757  57.943  0.00  0.00    +0.005 A 
ATOM     18  C   UNL     1      25.358  61.288  58.506  0.00  0.00    -0.033 A 
ATOM     28  C   UNL     1      24.464  60.487  57.685  0.00  0.00    +0.005 A 
ATOM     29  C   UNL     1      24.794  60.148  56.354  0.00  0.00    +0.013 A 
BRANCH  18  19
ATOM     19  C   UNL     1      24.924  61.589  59.953  0.00  0.00    +0.119 C 
BRANCH  19  20
ATOM     20  N   UNL     1      25.005  63.008  60.410  0.00  0.00    -0.302 NA
ATOM     21  C   UNL     1      24.874  63.130  61.931  0.00  0.00    +0.066 C 
ATOM     22  C   UNL     1      24.984  64.620  62.394  0.00  0.00    -0.064 C 
ATOM     23  N   UNL     1      23.910  65.451  61.689  0.00  0.00    +0.379 N 
ATOM     24  C   UNL     1      23.974  66.840  62.166  0.00  0.00    -0.096 C 
ATOM     25  H   UNL     1      22.917  65.037  61.981  0.00  0.00    -0.082 HD
ATOM     26  C   UNL     1      24.032  65.333  60.177  0.00  0.00    -0.064 C 
ATOM     27  C   UNL     1      23.951  63.846  59.730  0.00  0.00    +0.066 C 
ENDBRANCH  19  20
ENDBRANCH  18  19
ENDBRANCH  14  15
ENDBRANCH  12  13
TORSDOF 6
ENDMDL
