MODEL 1
REMARK VINA RESULT:     -10.9      0.000      0.000
REMARK  Name = C:\Users\Docking\Desktop\test protocol\1iep_ligandH.pdb
REMARK  8 active torsions:
REMARK  status: ('A' for Active; 'I' for Inactive)
REMARK    1  A    between atoms: _5  and  _11
REMARK    2  A    between atoms: _19  and  _21
REMARK    3  A    between atoms: _22  and  _66
REMARK    4  A    between atoms: _27  and  _30
REMARK    5  A    between atoms: _32  and  _33
REMARK    6  A    between atoms: _38  and  _43
REMARK    7  A    between atoms: _43  and  _46
REMARK    8  A    between atoms: _53  and  _55
REMARK                            x       y       z     vdW  Elec       q    Type
REMARK                         _______ _______ _______ _____ _____    ______ ____
ROOT
ATOM     10  C   UNL     1      28.310  58.443  50.517  0.00  0.00    +0.038 A 
ATOM     11  C   UNL     1      27.668  58.850  51.714  0.00  0.00    +0.047 A 
ATOM     12  C   UNL     1      27.894  60.173  52.277  0.00  0.00    +0.035 A 
ATOM     32  C   UNL     1      28.778  61.056  51.591  0.00  0.00    +0.024 A 
ATOM     33  C   UNL     1      29.440  60.658  50.374  0.00  0.00    +0.007 A 
ATOM     34  C   UNL     1      29.223  59.354  49.816  0.00  0.00    -0.029 A 
ATOM     35  C   UNL     1      29.964  58.978  48.512  0.00  0.00    +0.045 C 
ENDROOT
BRANCH  10   9
ATOM      4  C   UNL     1      25.527  55.252  48.257  0.00  0.00    +0.077 A 
ATOM      5  C   UNL     1      24.477  56.212  48.070  0.00  0.00    +0.048 A 
ATOM      6  C   UNL     1      24.689  57.513  48.577  0.00  0.00    +0.116 A 
ATOM      7  N   UNL     1      25.869  57.821  49.220  0.00  0.00    -0.223 NA
ATOM      8  C   UNL     1      26.860  56.872  49.385  0.00  0.00    +0.220 A 
ATOM      9  N   UNL     1      28.057  57.162  50.022  0.00  0.00    -0.283 N 
ATOM     36  H   UNL     1      28.761  56.431  50.129  0.00  0.00    +0.155 HD
ATOM     37  N   UNL     1      26.681  55.621  48.911  0.00  0.00    -0.214 NA
BRANCH   4   3
ATOM      1  C   UNL     1      24.531  52.032  46.272  0.00  0.00    +0.020 A 
ATOM      2  C   UNL     1      24.564  53.411  46.700  0.00  0.00    +0.013 A 
ATOM      3  C   UNL     1      25.452  53.837  47.774  0.00  0.00    +0.019 A 
ATOM     38  C   UNL     1      26.302  52.834  48.399  0.00  0.00    +0.120 A 
ATOM     39  N   UNL     1      26.248  51.512  47.966  0.00  0.00    -0.263 NA
ATOM     40  C   UNL     1      25.395  51.091  46.934  0.00  0.00    +0.111 A 
ENDBRANCH   4   3
ENDBRANCH  10   9
BRANCH  12  13
ATOM     13  N   UNL     1      27.276  60.639  53.493  0.00  0.00    -0.281 N 
ATOM     14  C   UNL     1      26.195  60.092  54.163  0.00  0.00    +0.248 C 
ATOM     30  O   UNL     1      25.455  59.236  53.700  0.00  0.00    -0.270 OA
ATOM     31  H   UNL     1      27.687  61.474  53.911  0.00  0.00    +0.155 HD
BRANCH  14  15
ATOM     15  C   UNL     1      25.879  60.575  55.542  0.00  0.00    +0.037 A 
ATOM     16  C   UNL     1      26.840  61.377  56.304  0.00  0.00    +0.013 A 
ATOM     17  C   UNL     1      26.518  61.815  57.639  0.00  0.00    +0.005 A 
ATOM     18  C   UNL     1      25.227  61.454  58.220  0.00  0.00    -0.033 A 
ATOM     28  C   UNL     1      24.290  60.662  57.439  0.00  0.00    +0.005 A 
ATOM     29  C   UNL     1      24.603  60.229  56.131  0.00  0.00    +0.013 A 
BRANCH  18  19
ATOM     19  C   UNL     1      24.807  61.861  59.645  0.00  0.00    +0.119 C 
BRANCH  19  20
ATOM     20  N   UNL     1      24.937  63.303  60.010  0.00  0.00    -0.302 NA
ATOM     21  C   UNL     1      24.850  63.522  61.523  0.00  0.00    +0.066 C 
ATOM     22  C   UNL     1      25.010  65.034  61.889  0.00  0.00    -0.064 C 
ATOM     23  N   UNL     1      23.940  65.848  61.161  0.00  0.00    +0.379 N 
ATOM     24  C   UNL     1      24.052  67.262  61.549  0.00  0.00    -0.096 C 
ATOM     25  H   UNL     1      22.945  65.481  61.504  0.00  0.00    -0.082 HD
ATOM     26  C   UNL     1      24.018  65.634  59.656  0.00  0.00    -0.064 C 
ATOM     27  C   UNL     1      23.887  64.126  59.305  0.00  0.00    +0.066 C 
ENDBRANCH  19  20
ENDBRANCH  18  19
ENDBRANCH  14  15
ENDBRANCH  12  13
TORSDOF 6
ENDMDL
MODEL 2
REMARK VINA RESULT:     -10.8      1.931      2.929
REMARK  Name = C:\Users\Docking\Desktop\test protocol\1iep_ligandH.pdb
REMARK  8 active torsions:
REMARK  status: ('A' for Active; 'I' for Inactive)
REMARK    1  A    between atoms: _5  and  _11
REMARK    2  A    between atoms: _19  and  _21
REMARK    3  A    between atoms: _22  and  _66
REMARK    4  A    between atoms: _27  and  _30
REMARK    5  A    between atoms: _32  and  _33
REMARK    6  A    between atoms: _38  and  _43
REMARK    7  A    between atoms: _43  and  _46
REMARK    8  A    between atoms: _53  and  _55
REMARK                            x       y       z     vdW  Elec       q    Type
REMARK                         _______ _______ _______ _____ _____    ______ ____
ROOT
ATOM     10  C   UNL     1      28.029  57.989  50.422  0.00  0.00    +0.038 A 
ATOM     11  C   UNL     1      27.457  58.393  51.655  0.00  0.00    +0.047 A 
ATOM     12  C   UNL     1      27.634  59.746  52.159  0.00  0.00    +0.035 A 
ATOM     32  C   UNL     1      28.397  60.664  51.379  0.00  0.00    +0.024 A 
ATOM     33  C   UNL     1      28.986  60.270  50.123  0.00  0.00    +0.007 A 
ATOM     34  C   UNL     1      28.817  58.935  49.623  0.00  0.00    -0.029 A 
ATOM     35  C   UNL     1      29.476  58.566  48.273  0.00  0.00    +0.045 C 
ENDROOT
BRANCH  10   9
ATOM      4  C   UNL     1      25.489  54.644  48.099  0.00  0.00    +0.077 A 
ATOM      5  C   UNL     1      24.463  55.583  47.747  0.00  0.00    +0.048 A 
ATOM      6  C   UNL     1      24.623  56.915  48.189  0.00  0.00    +0.116 A 
ATOM      7  N   UNL     1      25.731  57.271  48.927  0.00  0.00    -0.223 NA
ATOM      8  C   UNL     1      26.701  56.340  49.251  0.00  0.00    +0.220 A 
ATOM      9  N   UNL     1      27.828  56.678  49.986  0.00  0.00    -0.283 N 
ATOM     36  H   UNL     1      28.517  55.961  50.210  0.00  0.00    +0.155 HD
ATOM     37  N   UNL     1      26.571  55.061  48.842  0.00  0.00    -0.214 NA
BRANCH   4   3
ATOM      1  C   UNL     1      24.625  51.283  46.295  0.00  0.00    +0.020 A 
ATOM      2  C   UNL     1      24.611  52.686  46.639  0.00  0.00    +0.013 A 
ATOM      3  C   UNL     1      25.464  53.201  47.702  0.00  0.00    +0.019 A 
ATOM     38  C   UNL     1      26.328  52.262  48.403  0.00  0.00    +0.120 A 
ATOM     39  N   UNL     1      26.319  50.916  48.051  0.00  0.00    -0.263 NA
ATOM     40  C   UNL     1      25.501  50.409  47.030  0.00  0.00    +0.111 A 
ENDBRANCH   4   3
ENDBRANCH  10   9
BRANCH  12  13
ATOM     13  N   UNL     1      27.084  60.211  53.408  0.00  0.00    -0.281 N 
ATOM     14  C   UNL     1      26.041  59.663  54.136  0.00  0.00    +0.248 C 
ATOM     30  O   UNL     1      25.277  58.808  53.713  0.00  0.00    -0.270 OA
ATOM     31  H   UNL     1      27.517  61.046  53.804  0.00  0.00    +0.155 HD
BRANCH  14  15
ATOM     15  C   UNL     1      25.802  60.145  55.531  0.00  0.00    +0.037 A 
ATOM     16  C   UNL     1      26.917  60.426  56.439  0.00  0.00    +0.013 A 
ATOM     17  C   UNL     1      26.658  60.873  57.785  0.00  0.00    +0.005 A 
ATOM     18  C   UNL     1      25.277  61.044  58.230  0.00  0.00    -0.033 A 
ATOM     28  C   UNL     1      24.190  60.763  57.306  0.00  0.00    +0.005 A 
ATOM     29  C   UNL     1      24.440  60.323  55.987  0.00  0.00    +0.013 A 
BRANCH  18  19
ATOM     19  C   UNL     1      24.907  61.497  59.655  0.00  0.00    +0.119 C 
BRANCH  19  20
ATOM     20  N   UNL     1      24.358  60.462  60.580  0.00  0.00    -0.302 NA
ATOM     21  C   UNL     1      24.546  59.044  60.033  0.00  0.00    +0.066 C 
ATOM     22  C   UNL     1      23.986  57.972  61.025  0.00  0.00    -0.064 C 
ATOM     23  N   UNL     1      22.508  58.255  61.296  0.00  0.00    +0.379 N 
ATOM     24  C   UNL     1      21.964  57.216  62.182  0.00  0.00    -0.096 C 
ATOM     25  H   UNL     1      21.967  58.188  60.323  0.00  0.00    -0.082 HD
ATOM     26  C   UNL     1      22.311  59.664  61.837  0.00  0.00    -0.064 C 
ATOM     27  C   UNL     1      22.897  60.720  60.858  0.00  0.00    +0.066 C 
ENDBRANCH  19  20
ENDBRANCH  18  19
ENDBRANCH  14  15
ENDBRANCH  12  13
TORSDOF 6
ENDMDL
MODEL 3
REMARK VINA RESULT:     -10.7      1.315      1.948
REMARK  Name = C:\Users\Docking\Desktop\test protocol\1iep_ligandH.pdb
REMARK  8 active torsions:
REMARK  status: ('A' for Active; 'I' for Inactive)
REMARK    1  A    between atoms: _5  and  _11
REMARK    2  A    between atoms: _19  and  _21
REMARK    3  A    between atoms: _22  and  _66
REMARK    4  A    between atoms: _27  and  _30
REMARK    5  A    between atoms: _32  and  _33
REMARK    6  A    between atoms: _38  and  _43
REMARK    7  A    between atoms: _43  and  _46
REMARK    8  A    between atoms: _53  and  _55
REMARK                            x       y       z     vdW  Elec       q    Type
REMARK                         _______ _______ _______ _____ _____    ______ ____
ROOT
ATOM     10  C   UNL     1      27.993  58.073  50.449  0.00  0.00    +0.038 A 
ATOM     11  C   UNL     1      27.351  58.514  51.635  0.00  0.00    +0.047 A 
ATOM     12  C   UNL     1      27.512  59.877  52.116  0.00  0.00    +0.035 A 
ATOM     32  C   UNL     1      28.331  60.767  51.361  0.00  0.00    +0.024 A 
ATOM     33  C   UNL     1      28.991  60.336  50.154  0.00  0.00    +0.007 A 
ATOM     34  C   UNL     1      28.838  58.991  49.677  0.00  0.00    -0.029 A 
ATOM     35  C   UNL     1      29.575  58.582  48.380  0.00  0.00    +0.045 C 
ENDROOT
BRANCH  10   9
ATOM      4  C   UNL     1      25.520  54.680  48.124  0.00  0.00    +0.077 A 
ATOM      5  C   UNL     1      24.504  55.611  47.724  0.00  0.00    +0.048 A 
ATOM      6  C   UNL     1      24.651  56.952  48.144  0.00  0.00    +0.116 A 
ATOM      7  N   UNL     1      25.738  57.323  48.906  0.00  0.00    -0.223 NA
ATOM      8  C   UNL     1      26.699  56.400  49.275  0.00  0.00    +0.220 A 
ATOM      9  N   UNL     1      27.804  56.753  50.034  0.00  0.00    -0.283 N 
ATOM     36  H   UNL     1      28.487  56.041  50.292  0.00  0.00    +0.155 HD
ATOM     37  N   UNL     1      26.580  55.113  48.888  0.00  0.00    -0.214 NA
BRANCH   4   3
ATOM      1  C   UNL     1      24.671  51.274  46.397  0.00  0.00    +0.020 A 
ATOM      2  C   UNL     1      24.645  52.684  46.714  0.00  0.00    +0.013 A 
ATOM      3  C   UNL     1      25.507  53.229  47.756  0.00  0.00    +0.019 A 
ATOM     38  C   UNL     1      26.391  52.314  48.462  0.00  0.00    +0.120 A 
ATOM     39  N   UNL     1      26.393  50.962  48.137  0.00  0.00    -0.263 NA
ATOM     40  C   UNL     1      25.567  50.425  47.137  0.00  0.00    +0.111 A 
ENDBRANCH   4   3
ENDBRANCH  10   9
BRANCH  12  13
ATOM     13  N   UNL     1      26.892  60.379  53.317  0.00  0.00    -0.281 N 
ATOM     14  C   UNL     1      27.314  60.214  54.626  0.00  0.00    +0.248 C 
ATOM     30  O   UNL     1      28.178  59.424  54.979  0.00  0.00    -0.270 OA
ATOM     31  H   UNL     1      26.038  60.921  53.187  0.00  0.00    +0.155 HD
BRANCH  14  15
ATOM     15  C   UNL     1      26.675  61.033  55.700  0.00  0.00    +0.037 A 
ATOM     16  C   UNL     1      25.424  60.611  56.335  0.00  0.00    +0.013 A 
ATOM     17  C   UNL     1      24.819  61.429  57.356  0.00  0.00    +0.005 A 
ATOM     18  C   UNL     1      25.467  62.678  57.750  0.00  0.00    -0.033 A 
ATOM     28  C   UNL     1      26.711  63.070  57.108  0.00  0.00    +0.005 A 
ATOM     29  C   UNL     1      27.306  62.271  56.105  0.00  0.00    +0.013 A 
BRANCH  18  19
ATOM     19  C   UNL     1      24.882  63.624  58.816  0.00  0.00    +0.119 C 
BRANCH  19  20
ATOM     20  N   UNL     1      24.190  62.996  59.981  0.00  0.00    -0.302 NA
ATOM     21  C   UNL     1      23.043  63.866  60.504  0.00  0.00    +0.066 C 
ATOM     22  C   UNL     1      22.315  63.184  61.708  0.00  0.00    -0.064 C 
ATOM     23  N   UNL     1      23.329  62.898  62.818  0.00  0.00    +0.379 N 
ATOM     24  C   UNL     1      22.637  62.310  63.974  0.00  0.00    -0.096 C 
ATOM     25  H   UNL     1      23.759  63.874  63.141  0.00  0.00    -0.082 HD
ATOM     26  C   UNL     1      24.474  62.036  62.305  0.00  0.00    -0.064 C 
ATOM     27  C   UNL     1      25.171  62.709  61.090  0.00  0.00    +0.066 C 
ENDBRANCH  19  20
ENDBRANCH  18  19
ENDBRANCH  14  15
ENDBRANCH  12  13
TORSDOF 6
ENDMDL
MODEL 4
REMARK VINA RESULT:     -10.6      1.708      2.500
REMARK  Name = C:\Users\Docking\Desktop\test protocol\1iep_ligandH.pdb
REMARK  8 active torsions:
REMARK  status: ('A' for Active; 'I' for Inactive)
REMARK    1  A    between atoms: _5  and  _11
REMARK    2  A    between atoms: _19  and  _21
REMARK    3  A    between atoms: _22  and  _66
REMARK    4  A    between atoms: _27  and  _30
REMARK    5  A    between atoms: _32  and  _33
REMARK    6  A    between atoms: _38  and  _43
REMARK    7  A    between atoms: _43  and  _46
REMARK    8  A    between atoms: _53  and  _55
REMARK                            x       y       z     vdW  Elec       q    Type
REMARK                         _______ _______ _______ _____ _____    ______ ____
ROOT
ATOM     10  C   UNL     1      28.048  58.036  50.356  0.00  0.00    +0.038 A 
ATOM     11  C   UNL     1      27.438  58.493  51.552  0.00  0.00    +0.047 A 
ATOM     12  C   UNL     1      27.600  59.867  52.001  0.00  0.00    +0.035 A 
ATOM     32  C   UNL     1      28.387  60.750  51.205  0.00  0.00    +0.024 A 
ATOM     33  C   UNL     1      29.015  60.301  49.987  0.00  0.00    +0.007 A 
ATOM     34  C   UNL     1      28.862  58.946  49.541  0.00  0.00    -0.029 A 
ATOM     35  C   UNL     1      29.563  58.518  48.231  0.00  0.00    +0.045 C 
ENDROOT
BRANCH  10   9
ATOM      4  C   UNL     1      25.570  54.585  48.123  0.00  0.00    +0.077 A 
ATOM      5  C   UNL     1      24.549  55.504  47.708  0.00  0.00    +0.048 A 
ATOM      6  C   UNL     1      24.696  56.855  48.096  0.00  0.00    +0.116 A 
ATOM      7  N   UNL     1      25.786  57.246  48.843  0.00  0.00    -0.223 NA
ATOM      8  C   UNL     1      26.751  56.333  49.228  0.00  0.00    +0.220 A 
ATOM      9  N   UNL     1      27.860  56.706  49.972  0.00  0.00    -0.283 N 
ATOM     36  H   UNL     1      28.546  56.001  50.242  0.00  0.00    +0.155 HD
ATOM     37  N   UNL     1      26.633  55.037  48.871  0.00  0.00    -0.214 NA
BRANCH   4   3
ATOM      1  C   UNL     1      24.735  51.142  46.464  0.00  0.00    +0.020 A 
ATOM      2  C   UNL     1      24.709  52.558  46.748  0.00  0.00    +0.013 A 
ATOM      3  C   UNL     1      25.558  53.126  47.788  0.00  0.00    +0.019 A 
ATOM     38  C   UNL     1      26.429  52.225  48.528  0.00  0.00    +0.120 A 
ATOM     39  N   UNL     1      26.433  50.866  48.233  0.00  0.00    -0.263 NA
ATOM     40  C   UNL     1      25.619  50.308  47.236  0.00  0.00    +0.111 A 
ENDBRANCH   4   3
ENDBRANCH  10   9
BRANCH  12  13
ATOM     13  N   UNL     1      27.011  60.387  53.210  0.00  0.00    -0.281 N 
ATOM     14  C   UNL     1      26.068  59.783  54.026  0.00  0.00    +0.248 C 
ATOM     30  O   UNL     1      25.426  58.788  53.721  0.00  0.00    -0.270 OA
ATOM     31  H   UNL     1      27.328  61.312  53.500  0.00  0.00    +0.155 HD
BRANCH  14  15
ATOM     15  C   UNL     1      25.787  60.378  55.368  0.00  0.00    +0.037 A 
ATOM     16  C   UNL     1      26.831  61.073  56.124  0.00  0.00    +0.013 A 
ATOM     17  C   UNL     1      26.538  61.623  57.424  0.00  0.00    +0.005 A 
ATOM     18  C   UNL     1      25.192  61.480  57.975  0.00  0.00    -0.033 A 
ATOM     28  C   UNL     1      24.174  60.790  57.201  0.00  0.00    +0.005 A 
ATOM     29  C   UNL     1      24.458  60.249  55.927  0.00  0.00    +0.013 A 
BRANCH  18  19
ATOM     19  C   UNL     1      24.796  62.017  59.363  0.00  0.00    +0.119 C 
BRANCH  19  20
ATOM     20  N   UNL     1      24.449  61.012  60.412  0.00  0.00    -0.302 NA
ATOM     21  C   UNL     1      23.786  61.658  61.631  0.00  0.00    +0.066 C 
ATOM     22  C   UNL     1      23.410  60.589  62.708  0.00  0.00    -0.064 C 
ATOM     23  N   UNL     1      24.666  59.820  63.120  0.00  0.00    +0.379 N 
ATOM     24  C   UNL     1      24.327  58.854  64.175  0.00  0.00    -0.096 C 
ATOM     25  H   UNL     1      25.385  60.554  63.552  0.00  0.00    -0.082 HD
ATOM     26  C   UNL     1      25.334  59.176  61.913  0.00  0.00    -0.064 C 
ATOM     27  C   UNL     1      25.677  60.243  60.836  0.00  0.00    +0.066 C 
ENDBRANCH  19  20
ENDBRANCH  18  19
ENDBRANCH  14  15
ENDBRANCH  12  13
TORSDOF 6
ENDMDL
MODEL 5
REMARK VINA RESULT:     -10.2      1.426      2.114
REMARK  Name = C:\Users\Docking\Desktop\test protocol\1iep_ligandH.pdb
REMARK  8 active torsions:
REMARK  status: ('A' for Active; 'I' for Inactive)
REMARK    1  A    between atoms: _5  and  _11
REMARK    2  A    between atoms: _19  and  _21
REMARK    3  A    between atoms: _22  and  _66
REMARK    4  A    between atoms: _27  and  _30
REMARK    5  A    between atoms: _32  and  _33
REMARK    6  A    between atoms: _38  and  _43
REMARK    7  A    between atoms: _43  and  _46
REMARK    8  A    between atoms: _53  and  _55
REMARK                            x       y       z     vdW  Elec       q    Type
REMARK                         _______ _______ _______ _____ _____    ______ ____
ROOT
ATOM     10  C   UNL     1      28.121  58.361  50.577  0.00  0.00    +0.038 A 
ATOM     11  C   UNL     1      27.442  58.774  51.752  0.00  0.00    +0.047 A 
ATOM     12  C   UNL     1      27.615  60.115  52.289  0.00  0.00    +0.035 A 
ATOM     32  C   UNL     1      28.485  61.011  51.602  0.00  0.00    +0.024 A 
ATOM     33  C   UNL     1      29.184  60.608  50.407  0.00  0.00    +0.007 A 
ATOM     34  C   UNL     1      29.019  59.286  49.874  0.00  0.00    -0.029 A 
ATOM     35  C   UNL     1      29.799  58.905  48.594  0.00  0.00    +0.045 C 
ENDROOT
BRANCH  10   9
ATOM      4  C   UNL     1      25.537  55.064  48.235  0.00  0.00    +0.077 A 
ATOM      5  C   UNL     1      24.490  56.001  47.950  0.00  0.00    +0.048 A 
ATOM      6  C   UNL     1      24.651  57.320  48.430  0.00  0.00    +0.116 A 
ATOM      7  N   UNL     1      25.780  57.665  49.140  0.00  0.00    -0.223 NA
ATOM      8  C   UNL     1      26.771  56.736  49.400  0.00  0.00    +0.220 A 
ATOM      9  N   UNL     1      27.919  57.062  50.106  0.00  0.00    -0.283 N 
ATOM     36  H   UNL     1      28.623  56.346  50.283  0.00  0.00    +0.155 HD
ATOM     37  N   UNL     1      26.640  55.469  48.954  0.00  0.00    -0.214 NA
BRANCH   4   3
ATOM      1  C   UNL     1      24.688  51.763  46.315  0.00  0.00    +0.020 A 
ATOM      2  C   UNL     1      24.673  53.155  46.703  0.00  0.00    +0.013 A 
ATOM      3  C   UNL     1      25.514  53.633  47.793  0.00  0.00    +0.019 A 
ATOM     38  C   UNL     1      26.365  52.670  48.475  0.00  0.00    +0.120 A 
ATOM     39  N   UNL     1      26.358  51.336  48.080  0.00  0.00    -0.263 NA
ATOM     40  C   UNL     1      25.552  50.864  47.034  0.00  0.00    +0.111 A 
ENDBRANCH   4   3
ENDBRANCH  10   9
BRANCH  12  13
ATOM     13  N   UNL     1      26.958  60.588  53.482  0.00  0.00    -0.281 N 
ATOM     14  C   UNL     1      27.319  60.360  54.800  0.00  0.00    +0.248 C 
ATOM     30  O   UNL     1      28.145  59.533  55.157  0.00  0.00    -0.270 OA
ATOM     31  H   UNL     1      26.126  61.161  53.338  0.00  0.00    +0.155 HD
BRANCH  14  15
ATOM     15  C   UNL     1      26.658  61.157  55.878  0.00  0.00    +0.037 A 
ATOM     16  C   UNL     1      27.243  62.407  56.367  0.00  0.00    +0.013 A 
ATOM     17  C   UNL     1      26.593  63.147  57.420  0.00  0.00    +0.005 A 
ATOM     18  C   UNL     1      25.348  62.638  57.990  0.00  0.00    -0.033 A 
ATOM     28  C   UNL     1      24.786  61.397  57.482  0.00  0.00    +0.005 A 
ATOM     29  C   UNL     1      25.421  60.669  56.451  0.00  0.00    +0.013 A 
BRANCH  18  19
ATOM     19  C   UNL     1      24.597  63.351  59.130  0.00  0.00    +0.119 C 
BRANCH  19  20
ATOM     20  N   UNL     1      24.731  62.775  60.501  0.00  0.00    -0.302 NA
ATOM     21  C   UNL     1      25.998  61.927  60.647  0.00  0.00    +0.066 C 
ATOM     22  C   UNL     1      26.133  61.350  62.094  0.00  0.00    -0.064 C 
ATOM     23  N   UNL     1      24.888  60.527  62.431  0.00  0.00    +0.379 N 
ATOM     24  C   UNL     1      25.038  59.936  63.769  0.00  0.00    -0.096 C 
ATOM     25  H   UNL     1      24.827  59.691  61.697  0.00  0.00    -0.082 HD
ATOM     26  C   UNL     1      23.624  61.362  62.286  0.00  0.00    -0.064 C 
ATOM     27  C   UNL     1      23.514  61.955  60.853  0.00  0.00    +0.066 C 
ENDBRANCH  19  20
ENDBRANCH  18  19
ENDBRANCH  14  15
ENDBRANCH  12  13
TORSDOF 6
ENDMDL
