MODEL 1
REMARK VINA RESULT:      -9.3      0.000      0.000
REMARK  Name = C:\Users\Docking\Desktop\test protocol\1iep_ligandH.pdb
REMARK  8 active torsions:
REMARK  status: ('A' for Active; 'I' for Inactive)
REMARK    1  A    between atoms: _5  and  _11
REMARK    2  A    between atoms: _19  and  _21
REMARK    3  A    between atoms: _22  and  _66
REMARK    4  A    between atoms: _27  and  _30
REMARK    5  A    between atoms: _32  and  _33
REMARK    6  A    between atoms: _38  and  _43
REMARK    7  A    between atoms: _43  and  _46
REMARK    8  A    between atoms: _53  and  _55
REMARK                            x       y       z     vdW  Elec       q    Type
REMARK                         _______ _______ _______ _____ _____    ______ ____
ROOT
ATOM     10  C   UNL     1      16.013   1.921  86.047  0.00  0.00    +0.038 A 
ATOM     11  C   UNL     1      15.680   0.681  86.651  0.00  0.00    +0.047 A 
ATOM     12  C   UNL     1      16.059   0.388  88.024  0.00  0.00    +0.035 A 
ATOM     32  C   UNL     1      16.774   1.381  88.755  0.00  0.00    +0.024 A 
ATOM     33  C   UNL     1      17.121   2.646  88.157  0.00  0.00    +0.007 A 
ATOM     34  C   UNL     1      16.752   2.940  86.802  0.00  0.00    -0.029 A 
ATOM     35  C   UNL     1      17.157   4.310  86.210  0.00  0.00    +0.045 C 
ENDROOT
BRANCH  10   9
ATOM      4  C   UNL     1      13.363   4.183  82.746  0.00  0.00    +0.077 A 
ATOM      5  C   UNL     1      12.675   4.955  83.741  0.00  0.00    +0.048 A 
ATOM      6  C   UNL     1      13.028   4.734  85.092  0.00  0.00    +0.116 A 
ATOM      7  N   UNL     1      13.998   3.809  85.411  0.00  0.00    -0.223 NA
ATOM      8  C   UNL     1      14.640   3.080  84.427  0.00  0.00    +0.220 A 
ATOM      9  N   UNL     1      15.624   2.150  84.726  0.00  0.00    -0.283 N 
ATOM     36  H   UNL     1      16.069   1.628  83.971  0.00  0.00    +0.155 HD
ATOM     37  N   UNL     1      14.320   3.271  83.131  0.00  0.00    -0.214 NA
BRANCH   4   3
ATOM      1  C   UNL     1      13.779   4.053  78.859  0.00  0.00    +0.020 A 
ATOM      2  C   UNL     1      14.079   3.916  80.266  0.00  0.00    +0.013 A 
ATOM      3  C   UNL     1      13.104   4.305  81.277  0.00  0.00    +0.019 A 
ATOM     38  C   UNL     1      11.824   4.833  80.828  0.00  0.00    +0.120 A 
ATOM     39  N   UNL     1      11.564   4.955  79.466  0.00  0.00    -0.263 NA
ATOM     40  C   UNL     1      12.495   4.586  78.484  0.00  0.00    +0.111 A 
ENDBRANCH   4   3
ENDBRANCH  10   9
BRANCH  12  13
ATOM     13  N   UNL     1      15.756  -0.856  88.687  0.00  0.00    -0.281 N 
ATOM     14  C   UNL     1      14.540  -1.518  88.742  0.00  0.00    +0.248 C 
ATOM     30  O   UNL     1      13.471  -1.029  88.407  0.00  0.00    -0.270 OA
ATOM     31  H   UNL     1      16.532  -1.304  89.176  0.00  0.00    +0.155 HD
BRANCH  14  15
ATOM     15  C   UNL     1      14.503  -2.920  89.258  0.00  0.00    +0.037 A 
ATOM     16  C   UNL     1      14.493  -3.201  90.696  0.00  0.00    +0.013 A 
ATOM     17  C   UNL     1      14.475  -4.564  91.167  0.00  0.00    +0.005 A 
ATOM     18  C   UNL     1      14.466  -5.656  90.197  0.00  0.00    -0.033 A 
ATOM     28  C   UNL     1      14.472  -5.349  88.777  0.00  0.00    +0.005 A 
ATOM     29  C   UNL     1      14.490  -4.015  88.311  0.00  0.00    +0.013 A 
BRANCH  18  19
ATOM     19  C   UNL     1      14.468  -7.140  90.609  0.00  0.00    +0.119 C 
BRANCH  19  20
ATOM     20  N   UNL     1      15.784  -7.748  90.969  0.00  0.00    -0.302 NA
ATOM     21  C   UNL     1      16.314  -8.667  89.865  0.00  0.00    +0.066 C 
ATOM     22  C   UNL     1      17.701  -9.277  90.248  0.00  0.00    -0.064 C 
ATOM     23  N   UNL     1      17.574 -10.036  91.570  0.00  0.00    +0.379 N 
ATOM     24  C   UNL     1      18.863 -10.659  91.904  0.00  0.00    -0.096 C 
ATOM     25  H   UNL     1      16.832 -10.854  91.420  0.00  0.00    -0.082 HD
ATOM     26  C   UNL     1      17.046  -9.130  92.673  0.00  0.00    -0.064 C 
ATOM     27  C   UNL     1      15.680  -8.506  92.270  0.00  0.00    +0.066 C 
ENDBRANCH  19  20
ENDBRANCH  18  19
ENDBRANCH  14  15
ENDBRANCH  12  13
TORSDOF 6
ENDMDL
MODEL 2
REMARK VINA RESULT:      -9.3      1.192      1.687
REMARK  Name = C:\Users\Docking\Desktop\test protocol\1iep_ligandH.pdb
REMARK  8 active torsions:
REMARK  status: ('A' for Active; 'I' for Inactive)
REMARK    1  A    between atoms: _5  and  _11
REMARK    2  A    between atoms: _19  and  _21
REMARK    3  A    between atoms: _22  and  _66
REMARK    4  A    between atoms: _27  and  _30
REMARK    5  A    between atoms: _32  and  _33
REMARK    6  A    between atoms: _38  and  _43
REMARK    7  A    between atoms: _43  and  _46
REMARK    8  A    between atoms: _53  and  _55
REMARK                            x       y       z     vdW  Elec       q    Type
REMARK                         _______ _______ _______ _____ _____    ______ ____
ROOT
ATOM     10  C   UNL     1      15.957   1.444  86.657  0.00  0.00    +0.038 A 
ATOM     11  C   UNL     1      15.583   0.111  86.964  0.00  0.00    +0.047 A 
ATOM     12  C   UNL     1      15.945  -0.498  88.235  0.00  0.00    +0.035 A 
ATOM     32  C   UNL     1      16.687   0.280  89.170  0.00  0.00    +0.024 A 
ATOM     33  C   UNL     1      17.076   1.636  88.873  0.00  0.00    +0.007 A 
ATOM     34  C   UNL     1      16.724   2.242  87.621  0.00  0.00    -0.029 A 
ATOM     35  C   UNL     1      17.174   3.697  87.354  0.00  0.00    +0.045 C 
ENDROOT
BRANCH  10   9
ATOM      4  C   UNL     1      13.355   4.439  83.955  0.00  0.00    +0.077 A 
ATOM      5  C   UNL     1      12.664   4.964  85.098  0.00  0.00    +0.048 A 
ATOM      6  C   UNL     1      13.003   4.431  86.362  0.00  0.00    +0.116 A 
ATOM      7  N   UNL     1      13.962   3.447  86.464  0.00  0.00    -0.223 NA
ATOM      8  C   UNL     1      14.609   2.962  85.342  0.00  0.00    +0.220 A 
ATOM      9  N   UNL     1      15.582   1.979  85.422  0.00  0.00    -0.283 N 
ATOM     36  H   UNL     1      16.031   1.642  84.570  0.00  0.00    +0.155 HD
ATOM     37  N   UNL     1      14.302   3.454  84.123  0.00  0.00    -0.214 NA
BRANCH   4   3
ATOM      1  C   UNL     1      12.531   6.673  80.852  0.00  0.00    +0.020 A 
ATOM      2  C   UNL     1      12.756   6.277  82.223  0.00  0.00    +0.013 A 
ATOM      3  C   UNL     1      13.111   4.903  82.553  0.00  0.00    +0.019 A 
ATOM     38  C   UNL     1      13.232   3.946  81.463  0.00  0.00    +0.120 A 
ATOM     39  N   UNL     1      13.008   4.356  80.152  0.00  0.00    -0.263 NA
ATOM     40  C   UNL     1      12.664   5.676  79.823  0.00  0.00    +0.111 A 
ENDBRANCH   4   3
ENDBRANCH  10   9
BRANCH  12  13
ATOM     13  N   UNL     1      15.600  -1.850  88.599  0.00  0.00    -0.281 N 
ATOM     14  C   UNL     1      14.335  -2.396  88.747  0.00  0.00    +0.248 C 
ATOM     30  O   UNL     1      13.303  -1.744  88.796  0.00  0.00    -0.270 OA
ATOM     31  H   UNL     1      16.383  -2.481  88.769  0.00  0.00    +0.155 HD
BRANCH  14  15
ATOM     15  C   UNL     1      14.199  -3.879  88.872  0.00  0.00    +0.037 A 
ATOM     16  C   UNL     1      13.413  -4.481  89.952  0.00  0.00    +0.013 A 
ATOM     17  C   UNL     1      13.312  -5.915  90.060  0.00  0.00    +0.005 A 
ATOM     18  C   UNL     1      13.999  -6.757  89.084  0.00  0.00    -0.033 A 
ATOM     28  C   UNL     1      14.768  -6.133  88.020  0.00  0.00    +0.005 A 
ATOM     29  C   UNL     1      14.870  -4.728  87.911  0.00  0.00    +0.013 A 
BRANCH  18  19
ATOM     19  C   UNL     1      13.963  -8.296  89.135  0.00  0.00    +0.119 C 
BRANCH  19  20
ATOM     20  N   UNL     1      14.924  -8.972  90.057  0.00  0.00    -0.302 NA
ATOM     21  C   UNL     1      14.505  -8.836  91.523  0.00  0.00    +0.066 C 
ATOM     22  C   UNL     1      15.509  -9.568  92.472  0.00  0.00    -0.064 C 
ATOM     23  N   UNL     1      16.915  -9.004  92.256  0.00  0.00    +0.379 N 
ATOM     24  C   UNL     1      17.851  -9.650  93.187  0.00  0.00    -0.096 C 
ATOM     25  H   UNL     1      16.885  -7.918  92.504  0.00  0.00    -0.082 HD
ATOM     26  C   UNL     1      17.338  -9.132  90.799  0.00  0.00    -0.064 C 
ATOM     27  C   UNL     1      16.318  -8.427  89.863  0.00  0.00    +0.066 C 
ENDBRANCH  19  20
ENDBRANCH  18  19
ENDBRANCH  14  15
ENDBRANCH  12  13
TORSDOF 6
ENDMDL
MODEL 3
REMARK VINA RESULT:      -9.1      2.942      3.907
REMARK  Name = C:\Users\Docking\Desktop\test protocol\1iep_ligandH.pdb
REMARK  8 active torsions:
REMARK  status: ('A' for Active; 'I' for Inactive)
REMARK    1  A    between atoms: _5  and  _11
REMARK    2  A    between atoms: _19  and  _21
REMARK    3  A    between atoms: _22  and  _66
REMARK    4  A    between atoms: _27  and  _30
REMARK    5  A    between atoms: _32  and  _33
REMARK    6  A    between atoms: _38  and  _43
REMARK    7  A    between atoms: _43  and  _46
REMARK    8  A    between atoms: _53  and  _55
REMARK                            x       y       z     vdW  Elec       q    Type
REMARK                         _______ _______ _______ _____ _____    ______ ____
ROOT
ATOM     10  C   UNL     1      15.605   0.958  86.946  0.00  0.00    +0.038 A 
ATOM     11  C   UNL     1      14.972  -0.287  87.197  0.00  0.00    +0.047 A 
ATOM     12  C   UNL     1      15.205  -1.013  88.436  0.00  0.00    +0.035 A 
ATOM     32  C   UNL     1      16.087  -0.441  89.399  0.00  0.00    +0.024 A 
ATOM     33  C   UNL     1      16.739   0.823  89.160  0.00  0.00    +0.007 A 
ATOM     34  C   UNL     1      16.515   1.542  87.939  0.00  0.00    -0.029 A 
ATOM     35  C   UNL     1      17.246   2.890  87.733  0.00  0.00    +0.045 C 
ENDROOT
BRANCH  10   9
ATOM      4  C   UNL     1      13.504   4.427  84.380  0.00  0.00    +0.077 A 
ATOM      5  C   UNL     1      12.847   4.966  85.535  0.00  0.00    +0.048 A 
ATOM      6  C   UNL     1      13.070   4.317  86.770  0.00  0.00    +0.116 A 
ATOM      7  N   UNL     1      13.892   3.212  86.833  0.00  0.00    -0.223 NA
ATOM      8  C   UNL     1      14.509   2.717  85.699  0.00  0.00    +0.220 A 
ATOM      9  N   UNL     1      15.345   1.612  85.740  0.00  0.00    -0.283 N 
ATOM     36  H   UNL     1      15.776   1.273  84.880  0.00  0.00    +0.155 HD
ATOM     37  N   UNL     1      14.310   3.318  84.507  0.00  0.00    -0.214 NA
BRANCH   4   3
ATOM      1  C   UNL     1      12.900   6.904  81.413  0.00  0.00    +0.020 A 
ATOM      2  C   UNL     1      13.016   6.397  82.761  0.00  0.00    +0.013 A 
ATOM      3  C   UNL     1      13.370   5.004  83.005  0.00  0.00    +0.019 A 
ATOM     38  C   UNL     1      13.603   4.145  81.854  0.00  0.00    +0.120 A 
ATOM     39  N   UNL     1      13.483   4.661  80.567  0.00  0.00    -0.263 NA
ATOM     40  C   UNL     1      13.141   5.999  80.320  0.00  0.00    +0.111 A 
ENDBRANCH   4   3
ENDBRANCH  10   9
BRANCH  12  13
ATOM     13  N   UNL     1      14.597  -2.284  88.743  0.00  0.00    -0.281 N 
ATOM     14  C   UNL     1      14.683  -3.464  88.024  0.00  0.00    +0.248 C 
ATOM     30  O   UNL     1      15.124  -3.551  86.887  0.00  0.00    -0.270 OA
ATOM     31  H   UNL     1      14.036  -2.317  89.594  0.00  0.00    +0.155 HD
BRANCH  14  15
ATOM     15  C   UNL     1      14.196  -4.730  88.652  0.00  0.00    +0.037 A 
ATOM     16  C   UNL     1      14.690  -6.037  88.211  0.00  0.00    +0.013 A 
ATOM     17  C   UNL     1      14.190  -7.243  88.822  0.00  0.00    +0.005 A 
ATOM     18  C   UNL     1      13.191  -7.147  89.884  0.00  0.00    -0.033 A 
ATOM     28  C   UNL     1      12.722  -5.837  90.305  0.00  0.00    +0.005 A 
ATOM     29  C   UNL     1      13.208  -4.653  89.708  0.00  0.00    +0.013 A 
BRANCH  18  19
ATOM     19  C   UNL     1      12.586  -8.382  90.578  0.00  0.00    +0.119 C 
BRANCH  19  20
ATOM     20  N   UNL     1      11.619  -9.203  89.791  0.00  0.00    -0.302 NA
ATOM     21  C   UNL     1      10.175  -8.731  89.984  0.00  0.00    +0.066 C 
ATOM     22  C   UNL     1       9.178  -9.587  89.137  0.00  0.00    -0.064 C 
ATOM     23  N   UNL     1       9.322 -11.060  89.520  0.00  0.00    +0.379 N 
ATOM     24  C   UNL     1       8.345 -11.861  88.767  0.00  0.00    -0.096 C 
ATOM     25  H   UNL     1       9.073 -11.154  90.603  0.00  0.00    -0.082 HD
ATOM     26  C   UNL     1      10.755 -11.537  89.333  0.00  0.00    -0.064 C 
ATOM     27  C   UNL     1      11.740 -10.662  90.157  0.00  0.00    +0.066 C 
ENDBRANCH  19  20
ENDBRANCH  18  19
ENDBRANCH  14  15
ENDBRANCH  12  13
TORSDOF 6
ENDMDL
MODEL 4
REMARK VINA RESULT:      -8.9      4.440     13.837
REMARK  Name = C:\Users\Docking\Desktop\test protocol\1iep_ligandH.pdb
REMARK  8 active torsions:
REMARK  status: ('A' for Active; 'I' for Inactive)
REMARK    1  A    between atoms: _5  and  _11
REMARK    2  A    between atoms: _19  and  _21
REMARK    3  A    between atoms: _22  and  _66
REMARK    4  A    between atoms: _27  and  _30
REMARK    5  A    between atoms: _32  and  _33
REMARK    6  A    between atoms: _38  and  _43
REMARK    7  A    between atoms: _43  and  _46
REMARK    8  A    between atoms: _53  and  _55
REMARK                            x       y       z     vdW  Elec       q    Type
REMARK                         _______ _______ _______ _____ _____    ______ ____
ROOT
ATOM     10  C   UNL     1      15.194  -7.691  89.422  0.00  0.00    +0.038 A 
ATOM     11  C   UNL     1      15.292  -6.284  89.275  0.00  0.00    +0.047 A 
ATOM     12  C   UNL     1      15.051  -5.644  87.991  0.00  0.00    +0.035 A 
ATOM     32  C   UNL     1      14.709  -6.467  86.879  0.00  0.00    +0.024 A 
ATOM     33  C   UNL     1      14.605  -7.899  87.011  0.00  0.00    +0.007 A 
ATOM     34  C   UNL     1      14.845  -8.537  88.274  0.00  0.00    -0.029 A 
ATOM     35  C   UNL     1      14.726 -10.076  88.356  0.00  0.00    +0.045 C 
ENDROOT
BRANCH  10   9
ATOM      4  C   UNL     1      17.991 -10.027  92.546  0.00  0.00    +0.077 A 
ATOM      5  C   UNL     1      19.049 -10.163  91.587  0.00  0.00    +0.048 A 
ATOM      6  C   UNL     1      18.831  -9.624  90.299  0.00  0.00    +0.116 A 
ATOM      7  N   UNL     1      17.640  -8.998  90.004  0.00  0.00    -0.223 NA
ATOM      8  C   UNL     1      16.639  -8.886  90.951  0.00  0.00    +0.220 A 
ATOM      9  N   UNL     1      15.436  -8.253  90.678  0.00  0.00    -0.283 N 
ATOM     36  H   UNL     1      14.720  -8.198  91.402  0.00  0.00    +0.155 HD
ATOM     37  N   UNL     1      16.822  -9.393  92.188  0.00  0.00    -0.214 NA
BRANCH   4   3
ATOM      1  C   UNL     1      17.173 -10.796  96.293  0.00  0.00    +0.020 A 
ATOM      2  C   UNL     1      17.047 -10.276  94.951  0.00  0.00    +0.013 A 
ATOM      3  C   UNL     1      18.072 -10.542  93.950  0.00  0.00    +0.019 A 
ATOM     38  C   UNL     1      19.220 -11.345  94.341  0.00  0.00    +0.120 A 
ATOM     39  N   UNL     1      19.316 -11.832  95.641  0.00  0.00    -0.263 NA
ATOM     40  C   UNL     1      18.337 -11.581  96.614  0.00  0.00    +0.111 A 
ENDBRANCH   4   3
ENDBRANCH  10   9
BRANCH  12  13
ATOM     13  N   UNL     1      15.144  -4.221  87.779  0.00  0.00    -0.281 N 
ATOM     14  C   UNL     1      14.446  -3.215  88.427  0.00  0.00    +0.248 C 
ATOM     30  O   UNL     1      13.473  -3.401  89.143  0.00  0.00    -0.270 OA
ATOM     31  H   UNL     1      15.806  -3.917  87.064  0.00  0.00    +0.155 HD
BRANCH  14  15
ATOM     15  C   UNL     1      14.881  -1.798  88.241  0.00  0.00    +0.037 A 
ATOM     16  C   UNL     1      14.376  -0.987  87.130  0.00  0.00    +0.013 A 
ATOM     17  C   UNL     1      14.826   0.372  86.964  0.00  0.00    +0.005 A 
ATOM     18  C   UNL     1      15.786   0.930  87.913  0.00  0.00    -0.033 A 
ATOM     28  C   UNL     1      16.266   0.106  89.009  0.00  0.00    +0.005 A 
ATOM     29  C   UNL     1      15.829  -1.227  89.175  0.00  0.00    +0.013 A 
BRANCH  18  19
ATOM     19  C   UNL     1      16.336   2.365  87.801  0.00  0.00    +0.119 C 
BRANCH  19  20
ATOM     20  N   UNL     1      17.541   2.700  88.617  0.00  0.00    -0.302 NA
ATOM     21  C   UNL     1      17.201   3.626  89.789  0.00  0.00    +0.066 C 
ATOM     22  C   UNL     1      18.469   3.949  90.645  0.00  0.00    -0.064 C 
ATOM     23  N   UNL     1      19.538   4.578  89.750  0.00  0.00    +0.379 N 
ATOM     24  C   UNL     1      20.710   4.936  90.563  0.00  0.00    -0.096 C 
ATOM     25  H   UNL     1      19.116   5.521  89.331  0.00  0.00    -0.082 HD
ATOM     26  C   UNL     1      19.880   3.665  88.581  0.00  0.00    -0.064 C 
ATOM     27  C   UNL     1      18.608   3.327  87.754  0.00  0.00    +0.066 C 
ENDBRANCH  19  20
ENDBRANCH  18  19
ENDBRANCH  14  15
ENDBRANCH  12  13
TORSDOF 6
ENDMDL
MODEL 5
REMARK VINA RESULT:      -8.8      9.358     13.928
REMARK  Name = C:\Users\Docking\Desktop\test protocol\1iep_ligandH.pdb
REMARK  8 active torsions:
REMARK  status: ('A' for Active; 'I' for Inactive)
REMARK    1  A    between atoms: _5  and  _11
REMARK    2  A    between atoms: _19  and  _21
REMARK    3  A    between atoms: _22  and  _66
REMARK    4  A    between atoms: _27  and  _30
REMARK    5  A    between atoms: _32  and  _33
REMARK    6  A    between atoms: _38  and  _43
REMARK    7  A    between atoms: _43  and  _46
REMARK    8  A    between atoms: _53  and  _55
REMARK                            x       y       z     vdW  Elec       q    Type
REMARK                         _______ _______ _______ _____ _____    ______ ____
ROOT
ATOM     10  C   UNL     1      18.611  11.410  86.662  0.00  0.00    +0.038 A 
ATOM     11  C   UNL     1      18.258  10.260  85.910  0.00  0.00    +0.047 A 
ATOM     12  C   UNL     1      16.866   9.941  85.632  0.00  0.00    +0.035 A 
ATOM     32  C   UNL     1      15.859  10.815  86.134  0.00  0.00    +0.024 A 
ATOM     33  C   UNL     1      16.200  11.987  86.902  0.00  0.00    +0.007 A 
ATOM     34  C   UNL     1      17.571  12.306  87.181  0.00  0.00    -0.029 A 
ATOM     35  C   UNL     1      17.877  13.573  88.014  0.00  0.00    +0.045 C 
ENDROOT
BRANCH  10   9
ATOM      4  C   UNL     1      22.803  10.417  88.777  0.00  0.00    +0.077 A 
ATOM      5  C   UNL     1      22.247   9.305  89.492  0.00  0.00    +0.048 A 
ATOM      6  C   UNL     1      20.876   9.026  89.293  0.00  0.00    +0.116 A 
ATOM      7  N   UNL     1      20.127   9.808  88.440  0.00  0.00    -0.223 NA
ATOM      8  C   UNL     1      20.695  10.874  87.767  0.00  0.00    +0.220 A 
ATOM      9  N   UNL     1      19.962  11.669  86.898  0.00  0.00    -0.283 N 
ATOM     36  H   UNL     1      20.416  12.451  86.427  0.00  0.00    +0.155 HD
ATOM     37  N   UNL     1      22.001  11.162  87.941  0.00  0.00    -0.214 NA
BRANCH   4   3
ATOM      1  C   UNL     1      26.530  11.221  87.900  0.00  0.00    +0.020 A 
ATOM      2  C   UNL     1      25.154  10.805  87.747  0.00  0.00    +0.013 A 
ATOM      3  C   UNL     1      24.237  10.836  88.880  0.00  0.00    +0.019 A 
ATOM     38  C   UNL     1      24.747  11.297  90.162  0.00  0.00    +0.120 A 
ATOM     39  N   UNL     1      26.077  11.690  90.279  0.00  0.00    -0.263 NA
ATOM     40  C   UNL     1      26.969  11.663  89.197  0.00  0.00    +0.111 A 
ENDBRANCH   4   3
ENDBRANCH  10   9
BRANCH  12  13
ATOM     13  N   UNL     1      16.447   8.783  84.881  0.00  0.00    -0.281 N 
ATOM     14  C   UNL     1      15.806   7.649  85.351  0.00  0.00    +0.248 C 
ATOM     30  O   UNL     1      15.686   7.363  86.533  0.00  0.00    -0.270 OA
ATOM     31  H   UNL     1      16.647   8.803  83.881  0.00  0.00    +0.155 HD
BRANCH  14  15
ATOM     15  C   UNL     1      15.227   6.686  84.366  0.00  0.00    +0.037 A 
ATOM     16  C   UNL     1      15.154   7.010  82.939  0.00  0.00    +0.013 A 
ATOM     17  C   UNL     1      14.575   6.070  82.012  0.00  0.00    +0.005 A 
ATOM     18  C   UNL     1      14.066   4.795  82.510  0.00  0.00    -0.033 A 
ATOM     28  C   UNL     1      14.156   4.496  83.930  0.00  0.00    +0.005 A 
ATOM     29  C   UNL     1      14.722   5.416  84.842  0.00  0.00    +0.013 A 
BRANCH  18  19
ATOM     19  C   UNL     1      13.413   3.740  81.597  0.00  0.00    +0.119 C 
BRANCH  19  20
ATOM     20  N   UNL     1      13.293   4.073  80.146  0.00  0.00    -0.302 NA
ATOM     21  C   UNL     1      11.857   3.916  79.638  0.00  0.00    +0.066 C 
ATOM     22  C   UNL     1      11.745   4.290  78.124  0.00  0.00    -0.064 C 
ATOM     23  N   UNL     1      12.705   3.418  77.313  0.00  0.00    +0.379 N 
ATOM     24  C   UNL     1      12.560   3.727  75.883  0.00  0.00    -0.096 C 
ATOM     25  H   UNL     1      12.403   2.355  77.462  0.00  0.00    -0.082 HD
ATOM     26  C   UNL     1      14.134   3.566  77.814  0.00  0.00    -0.064 C 
ATOM     27  C   UNL     1      14.229   3.221  79.326  0.00  0.00    +0.066 C 
ENDBRANCH  19  20
ENDBRANCH  18  19
ENDBRANCH  14  15
ENDBRANCH  12  13
TORSDOF 6
ENDMDL
