MODEL 1
REMARK VINA RESULT:     -11.1      0.000      0.000
REMARK  Name = C:\Users\Docking\Desktop\test protocol\1iep_ligandH.pdb
REMARK  8 active torsions:
REMARK  status: ('A' for Active; 'I' for Inactive)
REMARK    1  A    between atoms: _5  and  _11
REMARK    2  A    between atoms: _19  and  _21
REMARK    3  A    between atoms: _22  and  _66
REMARK    4  A    between atoms: _27  and  _30
REMARK    5  A    between atoms: _32  and  _33
REMARK    6  A    between atoms: _38  and  _43
REMARK    7  A    between atoms: _43  and  _46
REMARK    8  A    between atoms: _53  and  _55
REMARK                            x       y       z     vdW  Elec       q    Type
REMARK                         _______ _______ _______ _____ _____    ______ ____
ROOT
ATOM     10  C   UNL     1       2.375   3.747  68.545  0.00  0.00    +0.038 A 
ATOM     11  C   UNL     1       2.693   4.829  69.406  0.00  0.00    +0.047 A 
ATOM     12  C   UNL     1       1.665   5.491  70.194  0.00  0.00    +0.035 A 
ATOM     32  C   UNL     1       0.323   5.023  70.084  0.00  0.00    +0.024 A 
ATOM     33  C   UNL     1      -0.018   3.925  69.214  0.00  0.00    +0.007 A 
ATOM     34  C   UNL     1       0.991   3.270  68.432  0.00  0.00    -0.029 A 
ATOM     35  C   UNL     1       0.567   2.103  67.511  0.00  0.00    +0.045 C 
ENDROOT
BRANCH  10   9
ATOM      4  C   UNL     1       5.343   3.581  64.777  0.00  0.00    +0.077 A 
ATOM      5  C   UNL     1       4.784   4.774  64.209  0.00  0.00    +0.048 A 
ATOM      6  C   UNL     1       3.729   5.395  64.914  0.00  0.00    +0.116 A 
ATOM      7  N   UNL     1       3.276   4.856  66.098  0.00  0.00    -0.223 NA
ATOM      8  C   UNL     1       3.836   3.704  66.618  0.00  0.00    +0.220 A 
ATOM      9  N   UNL     1       3.401   3.148  67.811  0.00  0.00    -0.283 N 
ATOM     36  H   UNL     1       3.836   2.293  68.158  0.00  0.00    +0.155 HD
ATOM     37  N   UNL     1       4.844   3.090  65.963  0.00  0.00    -0.214 NA
BRANCH   4   3
ATOM      1  C   UNL     1       8.682   1.612  64.253  0.00  0.00    +0.020 A 
ATOM      2  C   UNL     1       7.626   2.352  64.904  0.00  0.00    +0.013 A 
ATOM      3  C   UNL     1       6.465   2.811  64.152  0.00  0.00    +0.019 A 
ATOM     38  C   UNL     1       6.402   2.502  62.732  0.00  0.00    +0.120 A 
ATOM     39  N   UNL     1       7.435   1.789  62.131  0.00  0.00    -0.263 NA
ATOM     40  C   UNL     1       8.558   1.343  62.844  0.00  0.00    +0.111 A 
ENDBRANCH   4   3
ENDBRANCH  10   9
BRANCH  12  13
ATOM     13  N   UNL     1       1.927   6.599  71.078  0.00  0.00    -0.281 N 
ATOM     14  C   UNL     1       1.948   6.597  72.463  0.00  0.00    +0.248 C 
ATOM     30  O   UNL     1       1.532   5.683  73.159  0.00  0.00    -0.270 OA
ATOM     31  H   UNL     1       2.121   7.494  70.628  0.00  0.00    +0.155 HD
BRANCH  14  15
ATOM     15  C   UNL     1       2.498   7.789  73.179  0.00  0.00    +0.037 A 
ATOM     16  C   UNL     1       1.842   9.096  73.093  0.00  0.00    +0.013 A 
ATOM     17  C   UNL     1       2.402  10.233  73.779  0.00  0.00    +0.005 A 
ATOM     18  C   UNL     1       3.626  10.067  74.559  0.00  0.00    -0.033 A 
ATOM     28  C   UNL     1       4.253   8.758  74.632  0.00  0.00    +0.005 A 
ATOM     29  C   UNL     1       3.707   7.641  73.960  0.00  0.00    +0.013 A 
BRANCH  18  19
ATOM     19  C   UNL     1       4.306  11.230  75.307  0.00  0.00    +0.119 C 
BRANCH  19  20
ATOM     20  N   UNL     1       5.244  10.875  76.413  0.00  0.00    -0.302 NA
ATOM     21  C   UNL     1       4.546  10.098  77.533  0.00  0.00    +0.066 C 
ATOM     22  C   UNL     1       5.547   9.716  78.671  0.00  0.00    -0.064 C 
ATOM     23  N   UNL     1       6.200  10.986  79.219  0.00  0.00    +0.379 N 
ATOM     24  C   UNL     1       7.099  10.636  80.329  0.00  0.00    -0.096 C 
ATOM     25  H   UNL     1       5.390  11.632  79.631  0.00  0.00    -0.082 HD
ATOM     26  C   UNL     1       6.895  11.766  78.112  0.00  0.00    -0.064 C 
ATOM     27  C   UNL     1       5.898  12.115  76.972  0.00  0.00    +0.066 C 
ENDBRANCH  19  20
ENDBRANCH  18  19
ENDBRANCH  14  15
ENDBRANCH  12  13
TORSDOF 6
ENDMDL
MODEL 2
REMARK VINA RESULT:     -11.0      2.236     12.458
REMARK  Name = C:\Users\Docking\Desktop\test protocol\1iep_ligandH.pdb
REMARK  8 active torsions:
REMARK  status: ('A' for Active; 'I' for Inactive)
REMARK    1  A    between atoms: _5  and  _11
REMARK    2  A    between atoms: _19  and  _21
REMARK    3  A    between atoms: _22  and  _66
REMARK    4  A    between atoms: _27  and  _30
REMARK    5  A    between atoms: _32  and  _33
REMARK    6  A    between atoms: _38  and  _43
REMARK    7  A    between atoms: _43  and  _46
REMARK    8  A    between atoms: _53  and  _55
REMARK                            x       y       z     vdW  Elec       q    Type
REMARK                         _______ _______ _______ _____ _____    ______ ____
ROOT
ATOM     10  C   UNL     1       1.549   5.110  71.931  0.00  0.00    +0.038 A 
ATOM     11  C   UNL     1       1.909   5.001  70.564  0.00  0.00    +0.047 A 
ATOM     12  C   UNL     1       1.080   4.263  69.624  0.00  0.00    +0.035 A 
ATOM     32  C   UNL     1      -0.111   3.649  70.111  0.00  0.00    +0.024 A 
ATOM     33  C   UNL     1      -0.491   3.749  71.498  0.00  0.00    +0.007 A 
ATOM     34  C   UNL     1       0.323   4.474  72.430  0.00  0.00    -0.029 A 
ATOM     35  C   UNL     1      -0.130   4.542  73.907  0.00  0.00    +0.045 C 
ENDROOT
BRANCH  10   9
ATOM      4  C   UNL     1       2.917   9.185  74.066  0.00  0.00    +0.077 A 
ATOM      5  C   UNL     1       1.905   9.947  73.393  0.00  0.00    +0.048 A 
ATOM      6  C   UNL     1       1.057   9.254  72.500  0.00  0.00    +0.116 A 
ATOM      7  N   UNL     1       1.219   7.899  72.303  0.00  0.00    -0.223 NA
ATOM      8  C   UNL     1       2.206   7.195  72.967  0.00  0.00    +0.220 A 
ATOM      9  N   UNL     1       2.381   5.831  72.790  0.00  0.00    -0.283 N 
ATOM     36  H   UNL     1       3.126   5.349  73.293  0.00  0.00    +0.155 HD
ATOM     37  N   UNL     1       3.030   7.834  73.823  0.00  0.00    -0.214 NA
BRANCH   4   3
ATOM      1  C   UNL     1       4.762  11.671  76.458  0.00  0.00    +0.020 A 
ATOM      2  C   UNL     1       3.799  11.150  75.515  0.00  0.00    +0.013 A 
ATOM      3  C   UNL     1       3.888   9.775  75.041  0.00  0.00    +0.019 A 
ATOM     38  C   UNL     1       4.971   8.945  75.547  0.00  0.00    +0.120 A 
ATOM     39  N   UNL     1       5.884   9.474  76.454  0.00  0.00    -0.263 NA
ATOM     40  C   UNL     1       5.810  10.797  76.915  0.00  0.00    +0.111 A 
ENDBRANCH   4   3
ENDBRANCH  10   9
BRANCH  12  13
ATOM     13  N   UNL     1       1.400   4.111  68.226  0.00  0.00    -0.281 N 
ATOM     14  C   UNL     1       2.493   4.617  67.542  0.00  0.00    +0.248 C 
ATOM     30  O   UNL     1       3.256   5.461  67.988  0.00  0.00    -0.270 OA
ATOM     31  H   UNL     1       0.739   3.565  67.673  0.00  0.00    +0.155 HD
BRANCH  14  15
ATOM     15  C   UNL     1       2.770   4.126  66.159  0.00  0.00    +0.037 A 
ATOM     16  C   UNL     1       2.098   2.938  65.625  0.00  0.00    +0.013 A 
ATOM     17  C   UNL     1       2.397   2.475  64.293  0.00  0.00    +0.005 A 
ATOM     18  C   UNL     1       3.372   3.202  63.484  0.00  0.00    -0.033 A 
ATOM     28  C   UNL     1       4.020   4.380  64.036  0.00  0.00    +0.005 A 
ATOM     29  C   UNL     1       3.731   4.836  65.342  0.00  0.00    +0.013 A 
BRANCH  18  19
ATOM     19  C   UNL     1       3.768   2.767  62.061  0.00  0.00    +0.119 C 
BRANCH  19  20
ATOM     20  N   UNL     1       5.100   3.214  61.555  0.00  0.00    -0.302 NA
ATOM     21  C   UNL     1       4.998   3.884  60.181  0.00  0.00    +0.066 C 
ATOM     22  C   UNL     1       6.398   4.365  59.677  0.00  0.00    -0.064 C 
ATOM     23  N   UNL     1       7.357   3.174  59.629  0.00  0.00    +0.379 N 
ATOM     24  C   UNL     1       8.657   3.612  59.101  0.00  0.00    -0.096 C 
ATOM     25  H   UNL     1       6.935   2.429  58.915  0.00  0.00    -0.082 HD
ATOM     26  C   UNL     1       7.462   2.501  60.990  0.00  0.00    -0.064 C 
ATOM     27  C   UNL     1       6.062   2.053  61.495  0.00  0.00    +0.066 C 
ENDBRANCH  19  20
ENDBRANCH  18  19
ENDBRANCH  14  15
ENDBRANCH  12  13
TORSDOF 6
ENDMDL
MODEL 3
REMARK VINA RESULT:      -9.0     18.243     20.894
REMARK  Name = C:\Users\Docking\Desktop\test protocol\1iep_ligandH.pdb
REMARK  8 active torsions:
REMARK  status: ('A' for Active; 'I' for Inactive)
REMARK    1  A    between atoms: _5  and  _11
REMARK    2  A    between atoms: _19  and  _21
REMARK    3  A    between atoms: _22  and  _66
REMARK    4  A    between atoms: _27  and  _30
REMARK    5  A    between atoms: _32  and  _33
REMARK    6  A    between atoms: _38  and  _43
REMARK    7  A    between atoms: _43  and  _46
REMARK    8  A    between atoms: _53  and  _55
REMARK                            x       y       z     vdW  Elec       q    Type
REMARK                         _______ _______ _______ _____ _____    ______ ____
ROOT
ATOM     10  C   UNL     1       8.409  26.404  76.333  0.00  0.00    +0.038 A 
ATOM     11  C   UNL     1       7.184  25.754  76.035  0.00  0.00    +0.047 A 
ATOM     12  C   UNL     1       5.906  26.380  76.337  0.00  0.00    +0.035 A 
ATOM     32  C   UNL     1       5.913  27.671  76.942  0.00  0.00    +0.024 A 
ATOM     33  C   UNL     1       7.148  28.346  77.253  0.00  0.00    +0.007 A 
ATOM     34  C   UNL     1       8.412  27.732  76.959  0.00  0.00    -0.029 A 
ATOM     35  C   UNL     1       9.705  28.499  77.321  0.00  0.00    +0.045 C 
ENDROOT
BRANCH  10   9
ATOM      4  C   UNL     1      10.999  22.440  75.551  0.00  0.00    +0.077 A 
ATOM      5  C   UNL     1       9.878  21.584  75.812  0.00  0.00    +0.048 A 
ATOM      6  C   UNL     1       8.654  22.204  76.152  0.00  0.00    +0.116 A 
ATOM      7  N   UNL     1       8.570  23.578  76.221  0.00  0.00    -0.223 NA
ATOM      8  C   UNL     1       9.671  24.374  75.965  0.00  0.00    +0.220 A 
ATOM      9  N   UNL     1       9.606  25.758  76.021  0.00  0.00    -0.283 N 
ATOM     36  H   UNL     1      10.443  26.309  75.832  0.00  0.00    +0.155 HD
ATOM     37  N   UNL     1      10.851  23.806  75.639  0.00  0.00    -0.214 NA
BRANCH   4   3
ATOM      1  C   UNL     1      13.936  20.128  74.397  0.00  0.00    +0.020 A 
ATOM      2  C   UNL     1      12.604  20.564  74.748  0.00  0.00    +0.013 A 
ATOM      3  C   UNL     1      12.358  21.936  75.176  0.00  0.00    +0.019 A 
ATOM     38  C   UNL     1      13.490  22.848  75.238  0.00  0.00    +0.120 A 
ATOM     39  N   UNL     1      14.762  22.399  74.895  0.00  0.00    -0.263 NA
ATOM     40  C   UNL     1      15.011  21.081  74.483  0.00  0.00    +0.111 A 
ENDBRANCH   4   3
ENDBRANCH  10   9
BRANCH  12  13
ATOM     13  N   UNL     1       4.631  25.764  76.065  0.00  0.00    -0.281 N 
ATOM     14  C   UNL     1       4.278  24.434  76.218  0.00  0.00    +0.248 C 
ATOM     30  O   UNL     1       5.072  23.526  76.412  0.00  0.00    -0.270 OA
ATOM     31  H   UNL     1       3.901  26.385  75.716  0.00  0.00    +0.155 HD
BRANCH  14  15
ATOM     15  C   UNL     1       2.835  24.055  76.129  0.00  0.00    +0.037 A 
ATOM     16  C   UNL     1       1.863  24.525  77.119  0.00  0.00    +0.013 A 
ATOM     17  C   UNL     1       0.480  24.131  77.019  0.00  0.00    +0.005 A 
ATOM     18  C   UNL     1       0.060  23.263  75.922  0.00  0.00    -0.033 A 
ATOM     28  C   UNL     1       1.044  22.815  74.950  0.00  0.00    +0.005 A 
ATOM     29  C   UNL     1       2.401  23.199  75.046  0.00  0.00    +0.013 A 
BRANCH  18  19
ATOM     19  C   UNL     1      -1.391  22.775  75.749  0.00  0.00    +0.119 C 
BRANCH  19  20
ATOM     20  N   UNL     1      -2.473  23.797  75.863  0.00  0.00    -0.302 NA
ATOM     21  C   UNL     1      -2.277  24.955  74.881  0.00  0.00    +0.066 C 
ATOM     22  C   UNL     1      -3.430  26.004  74.998  0.00  0.00    -0.064 C 
ATOM     23  N   UNL     1      -3.502  26.520  76.436  0.00  0.00    +0.379 N 
ATOM     24  C   UNL     1      -4.548  27.548  76.537  0.00  0.00    -0.096 C 
ATOM     25  H   UNL     1      -2.526  27.005  76.670  0.00  0.00    -0.082 HD
ATOM     26  C   UNL     1      -3.695  25.374  77.420  0.00  0.00    -0.064 C 
ATOM     27  C   UNL     1      -2.559  24.324  77.275  0.00  0.00    +0.066 C 
ENDBRANCH  19  20
ENDBRANCH  18  19
ENDBRANCH  14  15
ENDBRANCH  12  13
TORSDOF 6
ENDMDL
MODEL 4
REMARK VINA RESULT:      -9.0      3.933      7.654
REMARK  Name = C:\Users\Docking\Desktop\test protocol\1iep_ligandH.pdb
REMARK  8 active torsions:
REMARK  status: ('A' for Active; 'I' for Inactive)
REMARK    1  A    between atoms: _5  and  _11
REMARK    2  A    between atoms: _19  and  _21
REMARK    3  A    between atoms: _22  and  _66
REMARK    4  A    between atoms: _27  and  _30
REMARK    5  A    between atoms: _32  and  _33
REMARK    6  A    between atoms: _38  and  _43
REMARK    7  A    between atoms: _43  and  _46
REMARK    8  A    between atoms: _53  and  _55
REMARK                            x       y       z     vdW  Elec       q    Type
REMARK                         _______ _______ _______ _____ _____    ______ ____
ROOT
ATOM     10  C   UNL     1       4.545   2.370  61.510  0.00  0.00    +0.038 A 
ATOM     11  C   UNL     1       4.196   3.078  62.688  0.00  0.00    +0.047 A 
ATOM     12  C   UNL     1       3.647   2.388  63.846  0.00  0.00    +0.035 A 
ATOM     32  C   UNL     1       3.471   0.976  63.770  0.00  0.00    +0.024 A 
ATOM     33  C   UNL     1       3.820   0.241  62.580  0.00  0.00    +0.007 A 
ATOM     34  C   UNL     1       4.359   0.916  61.434  0.00  0.00    -0.029 A 
ATOM     35  C   UNL     1       4.709   0.077  60.182  0.00  0.00    +0.045 C 
ENDROOT
BRANCH  10   9
ATOM      4  C   UNL     1       8.218   3.890  58.820  0.00  0.00    +0.077 A 
ATOM      5  C   UNL     1       9.180   3.231  59.655  0.00  0.00    +0.048 A 
ATOM      6  C   UNL     1       8.689   2.517  60.772  0.00  0.00    +0.116 A 
ATOM      7  N   UNL     1       7.335   2.472  61.023  0.00  0.00    -0.223 NA
ATOM      8  C   UNL     1       6.434   3.120  60.198  0.00  0.00    +0.220 A 
ATOM      9  N   UNL     1       5.067   3.082  60.428  0.00  0.00    -0.283 N 
ATOM     36  H   UNL     1       4.436   3.579  59.800  0.00  0.00    +0.155 HD
ATOM     37  N   UNL     1       6.878   3.810  59.127  0.00  0.00    -0.214 NA
BRANCH   4   3
ATOM      1  C   UNL     1      10.248   5.826  56.094  0.00  0.00    +0.020 A 
ATOM      2  C   UNL     1       9.951   5.063  57.284  0.00  0.00    +0.013 A 
ATOM      3  C   UNL     1       8.581   4.680  57.601  0.00  0.00    +0.019 A 
ATOM     38  C   UNL     1       7.526   5.089  56.686  0.00  0.00    +0.120 A 
ATOM     39  N   UNL     1       7.842   5.826  55.549  0.00  0.00    -0.263 NA
ATOM     40  C   UNL     1       9.157   6.201  55.234  0.00  0.00    +0.111 A 
ENDBRANCH   4   3
ENDBRANCH  10   9
BRANCH  12  13
ATOM     13  N   UNL     1       3.267   3.055  65.066  0.00  0.00    -0.281 N 
ATOM     14  C   UNL     1       2.015   3.099  65.658  0.00  0.00    +0.248 C 
ATOM     30  O   UNL     1       0.980   2.747  65.112  0.00  0.00    -0.270 OA
ATOM     31  H   UNL     1       4.011   3.556  65.552  0.00  0.00    +0.155 HD
BRANCH  14  15
ATOM     15  C   UNL     1       1.894   3.623  67.052  0.00  0.00    +0.037 A 
ATOM     16  C   UNL     1       2.887   4.547  67.606  0.00  0.00    +0.013 A 
ATOM     17  C   UNL     1       2.756   5.024  68.960  0.00  0.00    +0.005 A 
ATOM     18  C   UNL     1       1.624   4.579  69.769  0.00  0.00    -0.033 A 
ATOM     28  C   UNL     1       0.650   3.666  69.193  0.00  0.00    +0.005 A 
ATOM     29  C   UNL     1       0.777   3.196  67.867  0.00  0.00    +0.013 A 
BRANCH  18  19
ATOM     19  C   UNL     1       1.415   5.020  71.230  0.00  0.00    +0.119 C 
BRANCH  19  20
ATOM     20  N   UNL     1       2.014   6.324  71.643  0.00  0.00    -0.302 NA
ATOM     21  C   UNL     1       2.587   6.270  73.062  0.00  0.00    +0.066 C 
ATOM     22  C   UNL     1       3.230   7.636  73.469  0.00  0.00    -0.064 C 
ATOM     23  N   UNL     1       2.183   8.745  73.349  0.00  0.00    +0.379 N 
ATOM     24  C   UNL     1       2.768  10.021  73.786  0.00  0.00    -0.096 C 
ATOM     25  H   UNL     1       1.348   8.499  74.046  0.00  0.00    -0.082 HD
ATOM     26  C   UNL     1       1.607   8.804  71.941  0.00  0.00    -0.064 C 
ATOM     27  C   UNL     1       0.997   7.433  71.536  0.00  0.00    +0.066 C 
ENDBRANCH  19  20
ENDBRANCH  18  19
ENDBRANCH  14  15
ENDBRANCH  12  13
TORSDOF 6
ENDMDL
MODEL 5
REMARK VINA RESULT:      -8.8     18.714     22.169
REMARK  Name = C:\Users\Docking\Desktop\test protocol\1iep_ligandH.pdb
REMARK  8 active torsions:
REMARK  status: ('A' for Active; 'I' for Inactive)
REMARK    1  A    between atoms: _5  and  _11
REMARK    2  A    between atoms: _19  and  _21
REMARK    3  A    between atoms: _22  and  _66
REMARK    4  A    between atoms: _27  and  _30
REMARK    5  A    between atoms: _32  and  _33
REMARK    6  A    between atoms: _38  and  _43
REMARK    7  A    between atoms: _43  and  _46
REMARK    8  A    between atoms: _53  and  _55
REMARK                            x       y       z     vdW  Elec       q    Type
REMARK                         _______ _______ _______ _____ _____    ______ ____
ROOT
ATOM     10  C   UNL     1       9.490  23.154  76.685  0.00  0.00    +0.038 A 
ATOM     11  C   UNL     1       8.097  23.114  76.951  0.00  0.00    +0.047 A 
ATOM     12  C   UNL     1       7.122  23.250  75.880  0.00  0.00    +0.035 A 
ATOM     32  C   UNL     1       7.601  23.422  74.549  0.00  0.00    +0.024 A 
ATOM     33  C   UNL     1       9.013  23.466  74.261  0.00  0.00    +0.007 A 
ATOM     34  C   UNL     1       9.979  23.335  75.314  0.00  0.00    -0.029 A 
ATOM     35  C   UNL     1      11.481  23.397  74.947  0.00  0.00    +0.045 C 
ENDROOT
BRANCH  10   9
ATOM      4  C   UNL     1      11.989  24.951  80.367  0.00  0.00    +0.077 A 
ATOM      5  C   UNL     1      11.498  26.278  80.130  0.00  0.00    +0.048 A 
ATOM      6  C   UNL     1      10.610  26.457  79.046  0.00  0.00    +0.116 A 
ATOM      7  N   UNL     1      10.246  25.381  78.265  0.00  0.00    -0.223 NA
ATOM      8  C   UNL     1      10.740  24.115  78.520  0.00  0.00    +0.220 A 
ATOM      9  N   UNL     1      10.381  23.018  77.752  0.00  0.00    -0.283 N 
ATOM     36  H   UNL     1      10.773  22.101  77.968  0.00  0.00    +0.155 HD
ATOM     37  N   UNL     1      11.591  23.918  79.548  0.00  0.00    -0.214 NA
BRANCH   4   3
ATOM      1  C   UNL     1      13.463  24.146  83.901  0.00  0.00    +0.020 A 
ATOM      2  C   UNL     1      12.512  24.487  82.867  0.00  0.00    +0.013 A 
ATOM      3  C   UNL     1      12.932  24.601  81.477  0.00  0.00    +0.019 A 
ATOM     38  C   UNL     1      14.333  24.362  81.162  0.00  0.00    +0.120 A 
ATOM     39  N   UNL     1      15.226  24.037  82.178  0.00  0.00    -0.263 NA
ATOM     40  C   UNL     1      14.833  23.926  83.520  0.00  0.00    +0.111 A 
ENDBRANCH   4   3
ENDBRANCH  10   9
BRANCH  12  13
ATOM     13  N   UNL     1       5.696  23.225  76.091  0.00  0.00    -0.281 N 
ATOM     14  C   UNL     1       4.811  24.290  76.057  0.00  0.00    +0.248 C 
ATOM     30  O   UNL     1       5.146  25.466  76.051  0.00  0.00    -0.270 OA
ATOM     31  H   UNL     1       5.289  22.311  76.289  0.00  0.00    +0.155 HD
BRANCH  14  15
ATOM     15  C   UNL     1       3.343  24.010  76.042  0.00  0.00    +0.037 A 
ATOM     16  C   UNL     1       2.747  23.135  75.029  0.00  0.00    +0.013 A 
ATOM     17  C   UNL     1       1.326  22.895  75.027  0.00  0.00    +0.005 A 
ATOM     18  C   UNL     1       0.491  23.531  76.043  0.00  0.00    -0.033 A 
ATOM     28  C   UNL     1       1.109  24.390  77.039  0.00  0.00    +0.005 A 
ATOM     29  C   UNL     1       2.502  24.629  77.044  0.00  0.00    +0.013 A 
BRANCH  18  19
ATOM     19  C   UNL     1      -1.037  23.348  76.104  0.00  0.00    +0.119 C 
BRANCH  19  20
ATOM     20  N   UNL     1      -1.867  24.578  76.271  0.00  0.00    -0.302 NA
ATOM     21  C   UNL     1      -2.731  24.521  77.534  0.00  0.00    +0.066 C 
ATOM     22  C   UNL     1      -3.576  25.826  77.706  0.00  0.00    -0.064 C 
ATOM     23  N   UNL     1      -4.444  26.034  76.464  0.00  0.00    +0.379 N 
ATOM     24  C   UNL     1      -5.282  27.228  76.646  0.00  0.00    -0.096 C 
ATOM     25  H   UNL     1      -5.123  25.155  76.375  0.00  0.00    -0.082 HD
ATOM     26  C   UNL     1      -3.593  26.090  75.203  0.00  0.00    -0.064 C 
ATOM     27  C   UNL     1      -2.736  24.801  75.058  0.00  0.00    +0.066 C 
ENDBRANCH  19  20
ENDBRANCH  18  19
ENDBRANCH  14  15
ENDBRANCH  12  13
TORSDOF 6
ENDMDL
