MODEL 1
REMARK VINA RESULT:     -11.5      0.000      0.000
REMARK  Name = C:\Users\Docking\Desktop\test protocol\1iep_ligandH.pdb
REMARK  8 active torsions:
REMARK  status: ('A' for Active; 'I' for Inactive)
REMARK    1  A    between atoms: _5  and  _11
REMARK    2  A    between atoms: _19  and  _21
REMARK    3  A    between atoms: _22  and  _66
REMARK    4  A    between atoms: _27  and  _30
REMARK    5  A    between atoms: _32  and  _33
REMARK    6  A    between atoms: _38  and  _43
REMARK    7  A    between atoms: _43  and  _46
REMARK    8  A    between atoms: _53  and  _55
REMARK                            x       y       z     vdW  Elec       q    Type
REMARK                         _______ _______ _______ _____ _____    ______ ____
ROOT
ATOM     10  C   UNL     1      25.307  28.310  29.468  0.00  0.00    +0.038 A 
ATOM     11  C   UNL     1      25.176  27.950  28.102  0.00  0.00    +0.047 A 
ATOM     12  C   UNL     1      25.935  26.844  27.540  0.00  0.00    +0.035 A 
ATOM     32  C   UNL     1      26.817  26.125  28.398  0.00  0.00    +0.024 A 
ATOM     33  C   UNL     1      26.964  26.479  29.788  0.00  0.00    +0.007 A 
ATOM     34  C   UNL     1      26.219  27.570  30.348  0.00  0.00    -0.029 A 
ATOM     35  C   UNL     1      26.421  27.909  31.843  0.00  0.00    +0.045 C 
ENDROOT
BRANCH  10   9
ATOM      4  C   UNL     1      21.246  30.179  31.216  0.00  0.00    +0.077 A 
ATOM      5  C   UNL     1      20.560  28.923  31.127  0.00  0.00    +0.048 A 
ATOM      6  C   UNL     1      21.285  27.822  30.618  0.00  0.00    +0.116 A 
ATOM      7  N   UNL     1      22.599  27.977  30.232  0.00  0.00    -0.223 NA
ATOM      8  C   UNL     1      23.231  29.203  30.330  0.00  0.00    +0.220 A 
ATOM      9  N   UNL     1      24.553  29.381  29.955  0.00  0.00    -0.283 N 
ATOM     36  H   UNL     1      24.981  30.303  30.036  0.00  0.00    +0.155 HD
ATOM     37  N   UNL     1      22.559  30.270  30.811  0.00  0.00    -0.214 NA
BRANCH   4   3
ATOM      1  C   UNL     1      18.969  32.672  33.192  0.00  0.00    +0.020 A 
ATOM      2  C   UNL     1      19.544  31.432  32.723  0.00  0.00    +0.013 A 
ATOM      3  C   UNL     1      20.616  31.434  31.736  0.00  0.00    +0.019 A 
ATOM     38  C   UNL     1      21.089  32.718  31.240  0.00  0.00    +0.120 A 
ATOM     39  N   UNL     1      20.516  33.896  31.709  0.00  0.00    -0.263 NA
ATOM     40  C   UNL     1      19.482  33.906  32.658  0.00  0.00    +0.111 A 
ENDBRANCH   4   3
ENDBRANCH  10   9
BRANCH  12  13
ATOM     13  N   UNL     1      25.849  26.437  26.159  0.00  0.00    -0.281 N 
ATOM     14  C   UNL     1      24.770  25.866  25.505  0.00  0.00    +0.248 C 
ATOM     30  O   UNL     1      23.779  25.420  26.065  0.00  0.00    -0.270 OA
ATOM     31  H   UNL     1      26.686  26.587  25.596  0.00  0.00    +0.155 HD
BRANCH  14  15
ATOM     15  C   UNL     1      24.801  25.762  24.014  0.00  0.00    +0.037 A 
ATOM     16  C   UNL     1      25.951  26.241  23.244  0.00  0.00    +0.013 A 
ATOM     17  C   UNL     1      25.949  26.145  21.805  0.00  0.00    +0.005 A 
ATOM     18  C   UNL     1      24.791  25.565  21.128  0.00  0.00    -0.033 A 
ATOM     28  C   UNL     1      23.666  25.093  21.918  0.00  0.00    +0.005 A 
ATOM     29  C   UNL     1      23.664  25.186  23.328  0.00  0.00    +0.013 A 
BRANCH  18  19
ATOM     19  C   UNL     1      24.693  25.442  19.596  0.00  0.00    +0.119 C 
BRANCH  19  20
ATOM     20  N   UNL     1      24.413  26.690  18.826  0.00  0.00    -0.302 NA
ATOM     21  C   UNL     1      22.925  26.837  18.493  0.00  0.00    +0.066 C 
ATOM     22  C   UNL     1      22.647  28.160  17.707  0.00  0.00    -0.064 C 
ATOM     23  N   UNL     1      23.492  28.180  16.433  0.00  0.00    +0.379 N 
ATOM     24  C   UNL     1      23.189  29.396  15.662  0.00  0.00    -0.096 C 
ATOM     25  H   UNL     1      23.191  27.304  15.813  0.00  0.00    -0.082 HD
ATOM     26  C   UNL     1      24.972  28.032  16.755  0.00  0.00    -0.064 C 
ATOM     27  C   UNL     1      25.234  26.729  17.561  0.00  0.00    +0.066 C 
ENDBRANCH  19  20
ENDBRANCH  18  19
ENDBRANCH  14  15
ENDBRANCH  12  13
TORSDOF 6
ENDMDL
MODEL 2
REMARK VINA RESULT:     -10.7      1.709      2.443
REMARK  Name = C:\Users\Docking\Desktop\test protocol\1iep_ligandH.pdb
REMARK  8 active torsions:
REMARK  status: ('A' for Active; 'I' for Inactive)
REMARK    1  A    between atoms: _5  and  _11
REMARK    2  A    between atoms: _19  and  _21
REMARK    3  A    between atoms: _22  and  _66
REMARK    4  A    between atoms: _27  and  _30
REMARK    5  A    between atoms: _32  and  _33
REMARK    6  A    between atoms: _38  and  _43
REMARK    7  A    between atoms: _43  and  _46
REMARK    8  A    between atoms: _53  and  _55
REMARK                            x       y       z     vdW  Elec       q    Type
REMARK                         _______ _______ _______ _____ _____    ______ ____
ROOT
ATOM     10  C   UNL     1      25.160  28.046  29.442  0.00  0.00    +0.038 A 
ATOM     11  C   UNL     1      25.121  27.754  28.054  0.00  0.00    +0.047 A 
ATOM     12  C   UNL     1      25.834  26.610  27.506  0.00  0.00    +0.035 A 
ATOM     32  C   UNL     1      26.574  25.783  28.400  0.00  0.00    +0.024 A 
ATOM     33  C   UNL     1      26.625  26.066  29.813  0.00  0.00    +0.007 A 
ATOM     34  C   UNL     1      25.926  27.194  30.359  0.00  0.00    -0.029 A 
ATOM     35  C   UNL     1      26.022  27.453  31.881  0.00  0.00    +0.045 C 
ENDROOT
BRANCH  10   9
ATOM      4  C   UNL     1      21.216  30.109  31.237  0.00  0.00    +0.077 A 
ATOM      5  C   UNL     1      20.485  28.875  31.206  0.00  0.00    +0.048 A 
ATOM      6  C   UNL     1      21.158  27.735  30.714  0.00  0.00    +0.116 A 
ATOM      7  N   UNL     1      22.465  27.832  30.288  0.00  0.00    -0.223 NA
ATOM      8  C   UNL     1      23.140  29.037  30.330  0.00  0.00    +0.220 A 
ATOM      9  N   UNL     1      24.458  29.156  29.914  0.00  0.00    -0.283 N 
ATOM     36  H   UNL     1      24.919  30.065  29.954  0.00  0.00    +0.155 HD
ATOM     37  N   UNL     1      22.519  30.142  30.794  0.00  0.00    -0.214 NA
BRANCH   4   3
ATOM      1  C   UNL     1      19.026  32.739  33.131  0.00  0.00    +0.020 A 
ATOM      2  C   UNL     1      19.542  31.466  32.684  0.00  0.00    +0.013 A 
ATOM      3  C   UNL     1      20.644  31.401  31.733  0.00  0.00    +0.019 A 
ATOM     38  C   UNL     1      21.206  32.653  31.249  0.00  0.00    +0.120 A 
ATOM     39  N   UNL     1      20.688  33.864  31.696  0.00  0.00    -0.263 NA
ATOM     40  C   UNL     1      19.627  33.939  32.611  0.00  0.00    +0.111 A 
ENDBRANCH   4   3
ENDBRANCH  10   9
BRANCH  12  13
ATOM     13  N   UNL     1      25.838  26.269  26.105  0.00  0.00    -0.281 N 
ATOM     14  C   UNL     1      24.786  25.787  25.343  0.00  0.00    +0.248 C 
ATOM     30  O   UNL     1      23.732  25.373  25.803  0.00  0.00    -0.270 OA
ATOM     31  H   UNL     1      26.723  26.398  25.616  0.00  0.00    +0.155 HD
BRANCH  14  15
ATOM     15  C   UNL     1      24.931  25.747  23.856  0.00  0.00    +0.037 A 
ATOM     16  C   UNL     1      26.176  26.157  23.202  0.00  0.00    +0.013 A 
ATOM     17  C   UNL     1      26.284  26.125  21.765  0.00  0.00    +0.005 A 
ATOM     18  C   UNL     1      25.141  25.679  20.972  0.00  0.00    -0.033 A 
ATOM     28  C   UNL     1      23.919  25.272  21.646  0.00  0.00    +0.005 A 
ATOM     29  C   UNL     1      23.810  25.304  23.054  0.00  0.00    +0.013 A 
BRANCH  18  19
ATOM     19  C   UNL     1      25.159  25.632  19.432  0.00  0.00    +0.119 C 
BRANCH  19  20
ATOM     20  N   UNL     1      24.882  24.315  18.785  0.00  0.00    -0.302 NA
ATOM     21  C   UNL     1      26.131  23.432  18.721  0.00  0.00    +0.066 C 
ATOM     22  C   UNL     1      25.818  22.050  18.061  0.00  0.00    -0.064 C 
ATOM     23  N   UNL     1      25.242  22.275  16.662  0.00  0.00    +0.379 N 
ATOM     24  C   UNL     1      25.001  20.976  16.017  0.00  0.00    -0.096 C 
ATOM     25  H   UNL     1      26.012  22.813  16.062  0.00  0.00    -0.082 HD
ATOM     26  C   UNL     1      24.001  23.154  16.716  0.00  0.00    -0.064 C 
ATOM     27  C   UNL     1      24.316  24.514  17.400  0.00  0.00    +0.066 C 
ENDBRANCH  19  20
ENDBRANCH  18  19
ENDBRANCH  14  15
ENDBRANCH  12  13
TORSDOF 6
ENDMDL
MODEL 3
REMARK VINA RESULT:      -9.7      2.533      2.837
REMARK  Name = C:\Users\Docking\Desktop\test protocol\1iep_ligandH.pdb
REMARK  8 active torsions:
REMARK  status: ('A' for Active; 'I' for Inactive)
REMARK    1  A    between atoms: _5  and  _11
REMARK    2  A    between atoms: _19  and  _21
REMARK    3  A    between atoms: _22  and  _66
REMARK    4  A    between atoms: _27  and  _30
REMARK    5  A    between atoms: _32  and  _33
REMARK    6  A    between atoms: _38  and  _43
REMARK    7  A    between atoms: _43  and  _46
REMARK    8  A    between atoms: _53  and  _55
REMARK                            x       y       z     vdW  Elec       q    Type
REMARK                         _______ _______ _______ _____ _____    ______ ____
ROOT
ATOM     10  C   UNL     1      25.412  27.582  29.781  0.00  0.00    +0.038 A 
ATOM     11  C   UNL     1      25.190  27.011  28.502  0.00  0.00    +0.047 A 
ATOM     12  C   UNL     1      25.895  25.809  28.082  0.00  0.00    +0.035 A 
ATOM     32  C   UNL     1      26.816  25.214  28.993  0.00  0.00    +0.024 A 
ATOM     33  C   UNL     1      27.054  25.782  30.296  0.00  0.00    +0.007 A 
ATOM     34  C   UNL     1      26.364  26.969  30.714  0.00  0.00    -0.029 A 
ATOM     35  C   UNL     1      26.663  27.538  32.121  0.00  0.00    +0.045 C 
ENDROOT
BRANCH  10   9
ATOM      4  C   UNL     1      21.415  29.842  31.179  0.00  0.00    +0.077 A 
ATOM      5  C   UNL     1      20.658  28.623  31.187  0.00  0.00    +0.048 A 
ATOM      6  C   UNL     1      21.332  27.438  30.817  0.00  0.00    +0.116 A 
ATOM      7  N   UNL     1      22.665  27.480  30.469  0.00  0.00    -0.223 NA
ATOM      8  C   UNL     1      23.365  28.672  30.470  0.00  0.00    +0.220 A 
ATOM      9  N   UNL     1      24.708  28.737  30.131  0.00  0.00    -0.283 N 
ATOM     36  H   UNL     1      25.187  29.637  30.138  0.00  0.00    +0.155 HD
ATOM     37  N   UNL     1      22.743  29.818  30.818  0.00  0.00    -0.214 NA
BRANCH   4   3
ATOM      1  C   UNL     1      19.119  32.637  32.669  0.00  0.00    +0.020 A 
ATOM      2  C   UNL     1      19.629  31.326  32.340  0.00  0.00    +0.013 A 
ATOM      3  C   UNL     1      20.844  31.176  31.549  0.00  0.00    +0.019 A 
ATOM     38  C   UNL     1      21.525  32.382  31.103  0.00  0.00    +0.120 A 
ATOM     39  N   UNL     1      21.010  33.632  31.435  0.00  0.00    -0.263 NA
ATOM     40  C   UNL     1      19.841  33.788  32.194  0.00  0.00    +0.111 A 
ENDBRANCH   4   3
ENDBRANCH  10   9
BRANCH  12  13
ATOM     13  N   UNL     1      25.717  25.188  26.793  0.00  0.00    -0.281 N 
ATOM     14  C   UNL     1      26.524  25.305  25.673  0.00  0.00    +0.248 C 
ATOM     30  O   UNL     1      27.410  26.137  25.544  0.00  0.00    -0.270 OA
ATOM     31  H   UNL     1      24.898  24.589  26.695  0.00  0.00    +0.155 HD
BRANCH  14  15
ATOM     15  C   UNL     1      26.305  24.374  24.525  0.00  0.00    +0.037 A 
ATOM     16  C   UNL     1      26.600  22.943  24.640  0.00  0.00    +0.013 A 
ATOM     17  C   UNL     1      26.396  22.070  23.512  0.00  0.00    +0.005 A 
ATOM     18  C   UNL     1      25.892  22.625  22.258  0.00  0.00    -0.033 A 
ATOM     28  C   UNL     1      25.603  24.047  22.173  0.00  0.00    +0.005 A 
ATOM     29  C   UNL     1      25.803  24.907  23.276  0.00  0.00    +0.013 A 
BRANCH  18  19
ATOM     19  C   UNL     1      25.664  21.771  20.997  0.00  0.00    +0.119 C 
BRANCH  19  20
ATOM     20  N   UNL     1      25.351  22.495  19.728  0.00  0.00    -0.302 NA
ATOM     21  C   UNL     1      24.200  21.837  18.961  0.00  0.00    +0.066 C 
ATOM     22  C   UNL     1      23.871  22.620  17.649  0.00  0.00    -0.064 C 
ATOM     23  N   UNL     1      25.125  22.701  16.778  0.00  0.00    +0.379 N 
ATOM     24  C   UNL     1      24.804  23.385  15.517  0.00  0.00    -0.096 C 
ATOM     25  H   UNL     1      25.431  21.658  16.528  0.00  0.00    -0.082 HD
ATOM     26  C   UNL     1      26.276  23.350  17.534  0.00  0.00    -0.064 C 
ATOM     27  C   UNL     1      26.576  22.582  18.851  0.00  0.00    +0.066 C 
ENDBRANCH  19  20
ENDBRANCH  18  19
ENDBRANCH  14  15
ENDBRANCH  12  13
TORSDOF 6
ENDMDL
MODEL 4
REMARK VINA RESULT:      -9.3      2.124     12.205
REMARK  Name = C:\Users\Docking\Desktop\test protocol\1iep_ligandH.pdb
REMARK  8 active torsions:
REMARK  status: ('A' for Active; 'I' for Inactive)
REMARK    1  A    between atoms: _5  and  _11
REMARK    2  A    between atoms: _19  and  _21
REMARK    3  A    between atoms: _22  and  _66
REMARK    4  A    between atoms: _27  and  _30
REMARK    5  A    between atoms: _32  and  _33
REMARK    6  A    between atoms: _38  and  _43
REMARK    7  A    between atoms: _43  and  _46
REMARK    8  A    between atoms: _53  and  _55
REMARK                            x       y       z     vdW  Elec       q    Type
REMARK                         _______ _______ _______ _____ _____    ______ ____
ROOT
ATOM     10  C   UNL     1      25.398  24.399  19.740  0.00  0.00    +0.038 A 
ATOM     11  C   UNL     1      25.211  24.767  21.097  0.00  0.00    +0.047 A 
ATOM     12  C   UNL     1      24.946  23.766  22.119  0.00  0.00    +0.035 A 
ATOM     32  C   UNL     1      24.880  22.398  21.723  0.00  0.00    +0.024 A 
ATOM     33  C   UNL     1      25.066  22.006  20.348  0.00  0.00    +0.007 A 
ATOM     34  C   UNL     1      25.326  22.990  19.336  0.00  0.00    -0.029 A 
ATOM     35  C   UNL     1      25.512  22.513  17.876  0.00  0.00    +0.045 C 
ENDROOT
BRANCH  10   9
ATOM      4  C   UNL     1      24.008  28.114  17.038  0.00  0.00    +0.077 A 
ATOM      5  C   UNL     1      22.658  28.034  17.518  0.00  0.00    +0.048 A 
ATOM      6  C   UNL     1      22.361  27.018  18.454  0.00  0.00    +0.116 A 
ATOM      7  N   UNL     1      23.349  26.152  18.872  0.00  0.00    -0.223 NA
ATOM      8  C   UNL     1      24.640  26.256  18.388  0.00  0.00    +0.220 A 
ATOM      9  N   UNL     1      25.650  25.401  18.801  0.00  0.00    -0.283 N 
ATOM     36  H   UNL     1      26.588  25.506  18.415  0.00  0.00    +0.155 HD
ATOM     37  N   UNL     1      24.948  27.217  17.492  0.00  0.00    -0.214 NA
BRANCH   4   3
ATOM      1  C   UNL     1      25.472  29.807  13.830  0.00  0.00    +0.020 A 
ATOM      2  C   UNL     1      25.033  28.782  14.749  0.00  0.00    +0.013 A 
ATOM      3  C   UNL     1      24.477  29.135  16.049  0.00  0.00    +0.019 A 
ATOM     38  C   UNL     1      24.378  30.546  16.391  0.00  0.00    +0.120 A 
ATOM     39  N   UNL     1      24.809  31.511  15.487  0.00  0.00    -0.263 NA
ATOM     40  C   UNL     1      25.348  31.183  14.233  0.00  0.00    +0.111 A 
ENDBRANCH   4   3
ENDBRANCH  10   9
BRANCH  12  13
ATOM     13  N   UNL     1      24.740  24.080  23.510  0.00  0.00    -0.281 N 
ATOM     14  C   UNL     1      25.699  24.296  24.486  0.00  0.00    +0.248 C 
ATOM     30  O   UNL     1      26.887  24.040  24.356  0.00  0.00    -0.270 OA
ATOM     31  H   UNL     1      23.768  24.153  23.813  0.00  0.00    +0.155 HD
BRANCH  14  15
ATOM     15  C   UNL     1      25.276  24.866  25.801  0.00  0.00    +0.037 A 
ATOM     16  C   UNL     1      24.298  25.954  25.879  0.00  0.00    +0.013 A 
ATOM     17  C   UNL     1      23.920  26.497  27.160  0.00  0.00    +0.005 A 
ATOM     18  C   UNL     1      24.520  25.950  28.374  0.00  0.00    -0.033 A 
ATOM     28  C   UNL     1      25.484  24.867  28.269  0.00  0.00    +0.005 A 
ATOM     29  C   UNL     1      25.857  24.334  27.015  0.00  0.00    +0.013 A 
BRANCH  18  19
ATOM     19  C   UNL     1      24.192  26.483  29.782  0.00  0.00    +0.119 C 
BRANCH  19  20
ATOM     20  N   UNL     1      23.148  27.546  29.885  0.00  0.00    -0.302 NA
ATOM     21  C   UNL     1      23.660  28.783  30.627  0.00  0.00    +0.066 C 
ATOM     22  C   UNL     1      22.562  29.894  30.706  0.00  0.00    -0.064 C 
ATOM     23  N   UNL     1      21.317  29.329  31.390  0.00  0.00    +0.379 N 
ATOM     24  C   UNL     1      20.304  30.387  31.518  0.00  0.00    -0.096 C 
ATOM     25  H   UNL     1      21.609  29.015  32.419  0.00  0.00    -0.082 HD
ATOM     26  C   UNL     1      20.803  28.096  30.660  0.00  0.00    -0.064 C 
ATOM     27  C   UNL     1      21.910  27.010  30.562  0.00  0.00    +0.066 C 
ENDBRANCH  19  20
ENDBRANCH  18  19
ENDBRANCH  14  15
ENDBRANCH  12  13
TORSDOF 6
ENDMDL
MODEL 5
REMARK VINA RESULT:      -8.7      4.138     13.916
REMARK  Name = C:\Users\Docking\Desktop\test protocol\1iep_ligandH.pdb
REMARK  8 active torsions:
REMARK  status: ('A' for Active; 'I' for Inactive)
REMARK    1  A    between atoms: _5  and  _11
REMARK    2  A    between atoms: _19  and  _21
REMARK    3  A    between atoms: _22  and  _66
REMARK    4  A    between atoms: _27  and  _30
REMARK    5  A    between atoms: _32  and  _33
REMARK    6  A    between atoms: _38  and  _43
REMARK    7  A    between atoms: _43  and  _46
REMARK    8  A    between atoms: _53  and  _55
REMARK                            x       y       z     vdW  Elec       q    Type
REMARK                         _______ _______ _______ _____ _____    ______ ____
ROOT
ATOM     10  C   UNL     1      24.492  25.632  18.027  0.00  0.00    +0.038 A 
ATOM     11  C   UNL     1      24.206  25.482  19.408  0.00  0.00    +0.047 A 
ATOM     12  C   UNL     1      24.872  26.303  20.407  0.00  0.00    +0.035 A 
ATOM     32  C   UNL     1      25.821  27.270  19.964  0.00  0.00    +0.024 A 
ATOM     33  C   UNL     1      26.125  27.434  18.564  0.00  0.00    +0.007 A 
ATOM     34  C   UNL     1      25.473  26.625  17.574  0.00  0.00    -0.029 A 
ATOM     35  C   UNL     1      25.842  26.840  16.088  0.00  0.00    +0.045 C 
ENDROOT
BRANCH  10   9
ATOM      4  C   UNL     1      23.992  21.526  15.592  0.00  0.00    +0.077 A 
ATOM      5  C   UNL     1      25.178  20.967  16.174  0.00  0.00    +0.048 A 
ATOM      6  C   UNL     1      25.892  21.772  17.090  0.00  0.00    +0.116 A 
ATOM      7  N   UNL     1      25.443  23.039  17.394  0.00  0.00    -0.223 NA
ATOM      8  C   UNL     1      24.297  23.548  16.813  0.00  0.00    +0.220 A 
ATOM      9  N   UNL     1      23.823  24.817  17.110  0.00  0.00    -0.283 N 
ATOM     36  H   UNL     1      22.977  25.159  16.655  0.00  0.00    +0.155 HD
ATOM     37  N   UNL     1      23.598  22.800  15.934  0.00  0.00    -0.214 NA
BRANCH   4   3
ATOM      1  C   UNL     1      20.938  20.402  13.421  0.00  0.00    +0.020 A 
ATOM      2  C   UNL     1      21.728  21.136  14.382  0.00  0.00    +0.013 A 
ATOM      3  C   UNL     1      23.128  20.798  14.609  0.00  0.00    +0.019 A 
ATOM     38  C   UNL     1      23.702  19.704  13.841  0.00  0.00    +0.120 A 
ATOM     39  N   UNL     1      22.916  19.014  12.923  0.00  0.00    -0.263 NA
ATOM     40  C   UNL     1      21.567  19.329  12.698  0.00  0.00    +0.111 A 
ENDBRANCH   4   3
ENDBRANCH  10   9
BRANCH  12  13
ATOM     13  N   UNL     1      24.628  26.191  21.824  0.00  0.00    -0.281 N 
ATOM     14  C   UNL     1      25.167  25.273  22.710  0.00  0.00    +0.248 C 
ATOM     30  O   UNL     1      25.779  24.269  22.378  0.00  0.00    -0.270 OA
ATOM     31  H   UNL     1      23.980  26.871  22.222  0.00  0.00    +0.155 HD
BRANCH  14  15
ATOM     15  C   UNL     1      24.987  25.494  24.177  0.00  0.00    +0.037 A 
ATOM     16  C   UNL     1      23.683  25.310  24.819  0.00  0.00    +0.013 A 
ATOM     17  C   UNL     1      23.533  25.546  26.233  0.00  0.00    +0.005 A 
ATOM     18  C   UNL     1      24.692  25.969  27.016  0.00  0.00    -0.033 A 
ATOM     28  C   UNL     1      25.975  26.139  26.354  0.00  0.00    +0.005 A 
ATOM     29  C   UNL     1      26.125  25.909  24.968  0.00  0.00    +0.013 A 
BRANCH  18  19
ATOM     19  C   UNL     1      24.619  26.265  28.525  0.00  0.00    +0.119 C 
BRANCH  19  20
ATOM     20  N   UNL     1      23.702  27.359  28.965  0.00  0.00    -0.302 NA
ATOM     21  C   UNL     1      24.460  28.512  29.629  0.00  0.00    +0.066 C 
ATOM     22  C   UNL     1      23.488  29.657  30.062  0.00  0.00    -0.064 C 
ATOM     23  N   UNL     1      22.426  29.091  31.007  0.00  0.00    +0.379 N 
ATOM     24  C   UNL     1      21.545  30.176  31.462  0.00  0.00    -0.096 C 
ATOM     25  H   UNL     1      22.952  28.685  31.902  0.00  0.00    -0.082 HD
ATOM     26  C   UNL     1      21.670  27.942  30.355  0.00  0.00    -0.064 C 
ATOM     27  C   UNL     1      22.648  26.823  29.902  0.00  0.00    +0.066 C 
ENDBRANCH  19  20
ENDBRANCH  18  19
ENDBRANCH  14  15
ENDBRANCH  12  13
TORSDOF 6
ENDMDL
