MODEL 1
REMARK VINA RESULT:     -12.0      0.000      0.000
REMARK  Name = C:\Users\Docking\Desktop\test protocol\1iep_ligandH.pdb
REMARK  8 active torsions:
REMARK  status: ('A' for Active; 'I' for Inactive)
REMARK    1  A    between atoms: _5  and  _11
REMARK    2  A    between atoms: _19  and  _21
REMARK    3  A    between atoms: _22  and  _66
REMARK    4  A    between atoms: _27  and  _30
REMARK    5  A    between atoms: _32  and  _33
REMARK    6  A    between atoms: _38  and  _43
REMARK    7  A    between atoms: _43  and  _46
REMARK    8  A    between atoms: _53  and  _55
REMARK                            x       y       z     vdW  Elec       q    Type
REMARK                         _______ _______ _______ _____ _____    ______ ____
ROOT
ATOM     10  C   UNL     1      11.793  -5.206  19.873  0.00  0.00    +0.038 A 
ATOM     11  C   UNL     1      11.835  -3.835  20.232  0.00  0.00    +0.047 A 
ATOM     12  C   UNL     1      13.034  -3.244  20.805  0.00  0.00    +0.035 A 
ATOM     32  C   UNL     1      14.174  -4.078  20.995  0.00  0.00    +0.024 A 
ATOM     33  C   UNL     1      14.149  -5.474  20.636  0.00  0.00    +0.007 A 
ATOM     34  C   UNL     1      12.968  -6.063  20.073  0.00  0.00    -0.029 A 
ATOM     35  C   UNL     1      12.995  -7.567  19.713  0.00  0.00    +0.045 C 
ENDROOT
BRANCH  10   9
ATOM      4  C   UNL     1       9.090  -6.546  16.140  0.00  0.00    +0.077 A 
ATOM      5  C   UNL     1      10.099  -6.162  15.195  0.00  0.00    +0.048 A 
ATOM      6  C   UNL     1      11.296  -5.617  15.711  0.00  0.00    +0.116 A 
ATOM      7  N   UNL     1      11.461  -5.472  17.071  0.00  0.00    -0.223 NA
ATOM      8  C   UNL     1      10.467  -5.851  17.955  0.00  0.00    +0.220 A 
ATOM      9  N   UNL     1      10.615  -5.722  19.327  0.00  0.00    -0.283 N 
ATOM     36  H   UNL     1       9.856  -6.006  19.945  0.00  0.00    +0.155 HD
ATOM     37  N   UNL     1       9.314  -6.373  17.487  0.00  0.00    -0.214 NA
BRANCH   4   3
ATOM      1  C   UNL     1       6.244  -8.322  14.128  0.00  0.00    +0.020 A 
ATOM      2  C   UNL     1       7.536  -7.763  14.454  0.00  0.00    +0.013 A 
ATOM      3  C   UNL     1       7.772  -7.140  15.750  0.00  0.00    +0.019 A 
ATOM     38  C   UNL     1       6.672  -7.100  16.702  0.00  0.00    +0.120 A 
ATOM     39  N   UNL     1       5.438  -7.645  16.359  0.00  0.00    -0.263 NA
ATOM     40  C   UNL     1       5.199  -8.246  15.114  0.00  0.00    +0.111 A 
ENDBRANCH   4   3
ENDBRANCH  10   9
BRANCH  12  13
ATOM     13  N   UNL     1      13.133  -1.859  21.197  0.00  0.00    -0.281 N 
ATOM     14  C   UNL     1      12.871  -0.736  20.430  0.00  0.00    +0.248 C 
ATOM     30  O   UNL     1      12.715  -0.748  19.217  0.00  0.00    -0.270 OA
ATOM     31  H   UNL     1      13.433  -1.687  22.156  0.00  0.00    +0.155 HD
BRANCH  14  15
ATOM     15  C   UNL     1      12.782   0.594  21.104  0.00  0.00    +0.037 A 
ATOM     16  C   UNL     1      12.340   0.713  22.496  0.00  0.00    +0.013 A 
ATOM     17  C   UNL     1      12.247   2.010  23.117  0.00  0.00    +0.005 A 
ATOM     18  C   UNL     1      12.599   3.200  22.347  0.00  0.00    -0.033 A 
ATOM     28  C   UNL     1      13.040   3.053  20.970  0.00  0.00    +0.005 A 
ATOM     29  C   UNL     1      13.131   1.784  20.357  0.00  0.00    +0.013 A 
BRANCH  18  19
ATOM     19  C   UNL     1      12.510   4.626  22.923  0.00  0.00    +0.119 C 
BRANCH  19  20
ATOM     20  N   UNL     1      11.419   5.505  22.406  0.00  0.00    -0.302 NA
ATOM     21  C   UNL     1      10.253   4.696  21.832  0.00  0.00    +0.066 C 
ATOM     22  C   UNL     1       9.110   5.630  21.317  0.00  0.00    -0.064 C 
ATOM     23  N   UNL     1       9.674   6.588  20.266  0.00  0.00    +0.379 N 
ATOM     24  C   UNL     1       8.590   7.429  19.737  0.00  0.00    -0.096 C 
ATOM     25  H   UNL     1      10.066   5.972  19.423  0.00  0.00    -0.082 HD
ATOM     26  C   UNL     1      10.836   7.395  20.827  0.00  0.00    -0.064 C 
ATOM     27  C   UNL     1      11.953   6.456  21.363  0.00  0.00    +0.066 C 
ENDBRANCH  19  20
ENDBRANCH  18  19
ENDBRANCH  14  15
ENDBRANCH  12  13
TORSDOF 6
ENDMDL
MODEL 2
REMARK VINA RESULT:     -11.6      1.282      1.512
REMARK  Name = C:\Users\Docking\Desktop\test protocol\1iep_ligandH.pdb
REMARK  8 active torsions:
REMARK  status: ('A' for Active; 'I' for Inactive)
REMARK    1  A    between atoms: _5  and  _11
REMARK    2  A    between atoms: _19  and  _21
REMARK    3  A    between atoms: _22  and  _66
REMARK    4  A    between atoms: _27  and  _30
REMARK    5  A    between atoms: _32  and  _33
REMARK    6  A    between atoms: _38  and  _43
REMARK    7  A    between atoms: _43  and  _46
REMARK    8  A    between atoms: _53  and  _55
REMARK                            x       y       z     vdW  Elec       q    Type
REMARK                         _______ _______ _______ _____ _____    ______ ____
ROOT
ATOM     10  C   UNL     1      12.292  -4.414  20.677  0.00  0.00    +0.038 A 
ATOM     11  C   UNL     1      12.317  -3.001  20.794  0.00  0.00    +0.047 A 
ATOM     12  C   UNL     1      13.408  -2.322  21.475  0.00  0.00    +0.035 A 
ATOM     32  C   UNL     1      14.460  -3.113  22.022  0.00  0.00    +0.024 A 
ATOM     33  C   UNL     1      14.450  -4.551  21.913  0.00  0.00    +0.007 A 
ATOM     34  C   UNL     1      13.375  -5.226  21.244  0.00  0.00    -0.029 A 
ATOM     35  C   UNL     1      13.413  -6.770  21.162  0.00  0.00    +0.045 C 
ENDROOT
BRANCH  10   9
ATOM      4  C   UNL     1      10.102  -5.937  16.686  0.00  0.00    +0.077 A 
ATOM      5  C   UNL     1      11.173  -5.474  15.851  0.00  0.00    +0.048 A 
ATOM      6  C   UNL     1      12.266  -4.843  16.487  0.00  0.00    +0.116 A 
ATOM      7  N   UNL     1      12.276  -4.692  17.857  0.00  0.00    -0.223 NA
ATOM      8  C   UNL     1      11.227  -5.148  18.633  0.00  0.00    +0.220 A 
ATOM      9  N   UNL     1      11.220  -5.014  20.012  0.00  0.00    -0.283 N 
ATOM     36  H   UNL     1      10.423  -5.357  20.549  0.00  0.00    +0.155 HD
ATOM     37  N   UNL     1      10.171  -5.753  18.049  0.00  0.00    -0.214 NA
BRANCH   4   3
ATOM      1  C   UNL     1       7.590  -7.824  14.356  0.00  0.00    +0.020 A 
ATOM      2  C   UNL     1       8.793  -7.167  14.812  0.00  0.00    +0.013 A 
ATOM      3  C   UNL     1       8.881  -6.626  16.163  0.00  0.00    +0.019 A 
ATOM     38  C   UNL     1       7.724  -6.768  17.034  0.00  0.00    +0.120 A 
ATOM     39  N   UNL     1       6.578  -7.405  16.567  0.00  0.00    -0.263 NA
ATOM     40  C   UNL     1       6.482  -7.928  15.269  0.00  0.00    +0.111 A 
ENDBRANCH   4   3
ENDBRANCH  10   9
BRANCH  12  13
ATOM     13  N   UNL     1      13.483  -0.890  21.633  0.00  0.00    -0.281 N 
ATOM     14  C   UNL     1      13.110   0.087  20.725  0.00  0.00    +0.248 C 
ATOM     30  O   UNL     1      12.851  -0.124  19.550  0.00  0.00    -0.270 OA
ATOM     31  H   UNL     1      13.858  -0.557  22.522  0.00  0.00    +0.155 HD
BRANCH  14  15
ATOM     15  C   UNL     1      13.025   1.506  21.187  0.00  0.00    +0.037 A 
ATOM     16  C   UNL     1      11.794   2.042  21.775  0.00  0.00    +0.013 A 
ATOM     17  C   UNL     1      11.734   3.419  22.196  0.00  0.00    +0.005 A 
ATOM     18  C   UNL     1      12.910   4.271  22.031  0.00  0.00    -0.033 A 
ATOM     28  C   UNL     1      14.119   3.712  21.450  0.00  0.00    +0.005 A 
ATOM     29  C   UNL     1      14.182   2.363  21.035  0.00  0.00    +0.013 A 
BRANCH  18  19
ATOM     19  C   UNL     1      12.929   5.757  22.433  0.00  0.00    +0.119 C 
BRANCH  19  20
ATOM     20  N   UNL     1      11.687   6.549  22.183  0.00  0.00    -0.302 NA
ATOM     21  C   UNL     1      11.318   6.583  20.697  0.00  0.00    +0.066 C 
ATOM     22  C   UNL     1      10.005   7.397  20.456  0.00  0.00    -0.064 C 
ATOM     23  N   UNL     1      10.178   8.814  21.003  0.00  0.00    +0.379 N 
ATOM     24  C   UNL     1       8.966   9.599  20.726  0.00  0.00    -0.096 C 
ATOM     25  H   UNL     1      11.023   9.289  20.451  0.00  0.00    -0.082 HD
ATOM     26  C   UNL     1      10.549   8.790  22.479  0.00  0.00    -0.064 C 
ATOM     27  C   UNL     1      11.838   7.954  22.712  0.00  0.00    +0.066 C 
ENDBRANCH  19  20
ENDBRANCH  18  19
ENDBRANCH  14  15
ENDBRANCH  12  13
TORSDOF 6
ENDMDL
MODEL 3
REMARK VINA RESULT:     -11.2      1.919     11.775
REMARK  Name = C:\Users\Docking\Desktop\test protocol\1iep_ligandH.pdb
REMARK  8 active torsions:
REMARK  status: ('A' for Active; 'I' for Inactive)
REMARK    1  A    between atoms: _5  and  _11
REMARK    2  A    between atoms: _19  and  _21
REMARK    3  A    between atoms: _22  and  _66
REMARK    4  A    between atoms: _27  and  _30
REMARK    5  A    between atoms: _32  and  _33
REMARK    6  A    between atoms: _38  and  _43
REMARK    7  A    between atoms: _43  and  _46
REMARK    8  A    between atoms: _53  and  _55
REMARK                            x       y       z     vdW  Elec       q    Type
REMARK                         _______ _______ _______ _____ _____    ______ ____
ROOT
ATOM     10  C   UNL     1      13.235   0.904  20.784  0.00  0.00    +0.038 A 
ATOM     11  C   UNL     1      12.773  -0.122  19.922  0.00  0.00    +0.047 A 
ATOM     12  C   UNL     1      13.196  -1.503  20.100  0.00  0.00    +0.035 A 
ATOM     32  C   UNL     1      14.090  -1.802  21.169  0.00  0.00    +0.024 A 
ATOM     33  C   UNL     1      14.570  -0.771  22.055  0.00  0.00    +0.007 A 
ATOM     34  C   UNL     1      14.158   0.592  21.882  0.00  0.00    -0.029 A 
ATOM     35  C   UNL     1      14.710   1.658  22.858  0.00  0.00    +0.045 C 
ENDROOT
BRANCH  10   9
ATOM      4  C   UNL     1      10.343   4.612  21.745  0.00  0.00    +0.077 A 
ATOM      5  C   UNL     1       9.628   3.872  22.745  0.00  0.00    +0.048 A 
ATOM      6  C   UNL     1      10.032   2.538  22.977  0.00  0.00    +0.116 A 
ATOM      7  N   UNL     1      11.074   1.995  22.257  0.00  0.00    -0.223 NA
ATOM      8  C   UNL     1      11.740   2.735  21.298  0.00  0.00    +0.220 A 
ATOM      9  N   UNL     1      12.796   2.212  20.568  0.00  0.00    -0.283 N 
ATOM     36  H   UNL     1      13.257   2.789  19.864  0.00  0.00    +0.155 HD
ATOM     37  N   UNL     1      11.373   4.011  21.057  0.00  0.00    -0.214 NA
BRANCH   4   3
ATOM      1  C   UNL     1      10.110   8.516  21.832  0.00  0.00    +0.020 A 
ATOM      2  C   UNL     1      10.430   7.162  22.223  0.00  0.00    +0.013 A 
ATOM      3  C   UNL     1      10.037   6.034  21.389  0.00  0.00    +0.019 A 
ATOM     38  C   UNL     1       9.316   6.311  20.155  0.00  0.00    +0.120 A 
ATOM     39  N   UNL     1       9.021   7.625  19.806  0.00  0.00    -0.263 NA
ATOM     40  C   UNL     1       9.393   8.719  20.601  0.00  0.00    +0.111 A 
ENDBRANCH   4   3
ENDBRANCH  10   9
BRANCH  12  13
ATOM     13  N   UNL     1      12.766  -2.586  19.251  0.00  0.00    -0.281 N 
ATOM     14  C   UNL     1      12.022  -3.700  19.602  0.00  0.00    +0.248 C 
ATOM     30  O   UNL     1      11.793  -4.043  20.753  0.00  0.00    -0.270 OA
ATOM     31  H   UNL     1      13.044  -2.523  18.271  0.00  0.00    +0.155 HD
BRANCH  14  15
ATOM     15  C   UNL     1      11.463  -4.566  18.520  0.00  0.00    +0.037 A 
ATOM     16  C   UNL     1      12.024  -4.548  17.167  0.00  0.00    +0.013 A 
ATOM     17  C   UNL     1      11.455  -5.381  16.137  0.00  0.00    +0.005 A 
ATOM     18  C   UNL     1      10.319  -6.241  16.458  0.00  0.00    -0.033 A 
ATOM     28  C   UNL     1       9.785  -6.243  17.810  0.00  0.00    +0.005 A 
ATOM     29  C   UNL     1      10.339  -5.427  18.821  0.00  0.00    +0.013 A 
BRANCH  18  19
ATOM     19  C   UNL     1       9.635  -7.146  15.416  0.00  0.00    +0.119 C 
BRANCH  19  20
ATOM     20  N   UNL     1       8.156  -7.013  15.261  0.00  0.00    -0.302 NA
ATOM     21  C   UNL     1       7.404  -7.451  16.521  0.00  0.00    +0.066 C 
ATOM     22  C   UNL     1       5.859  -7.284  16.349  0.00  0.00    -0.064 C 
ATOM     23  N   UNL     1       5.394  -8.089  15.134  0.00  0.00    +0.379 N 
ATOM     24  C   UNL     1       3.933  -7.981  15.004  0.00  0.00    -0.096 C 
ATOM     25  H   UNL     1       5.638  -9.160  15.325  0.00  0.00    -0.082 HD
ATOM     26  C   UNL     1       6.138  -7.663  13.877  0.00  0.00    -0.064 C 
ATOM     27  C   UNL     1       7.674  -7.804  14.069  0.00  0.00    +0.066 C 
ENDBRANCH  19  20
ENDBRANCH  18  19
ENDBRANCH  14  15
ENDBRANCH  12  13
TORSDOF 6
ENDMDL
MODEL 4
REMARK VINA RESULT:     -10.9      2.560      3.453
REMARK  Name = C:\Users\Docking\Desktop\test protocol\1iep_ligandH.pdb
REMARK  8 active torsions:
REMARK  status: ('A' for Active; 'I' for Inactive)
REMARK    1  A    between atoms: _5  and  _11
REMARK    2  A    between atoms: _19  and  _21
REMARK    3  A    between atoms: _22  and  _66
REMARK    4  A    between atoms: _27  and  _30
REMARK    5  A    between atoms: _32  and  _33
REMARK    6  A    between atoms: _38  and  _43
REMARK    7  A    between atoms: _43  and  _46
REMARK    8  A    between atoms: _53  and  _55
REMARK                            x       y       z     vdW  Elec       q    Type
REMARK                         _______ _______ _______ _____ _____    ______ ____
ROOT
ATOM     10  C   UNL     1      11.968  -4.061  20.166  0.00  0.00    +0.038 A 
ATOM     11  C   UNL     1      11.940  -2.644  20.216  0.00  0.00    +0.047 A 
ATOM     12  C   UNL     1      13.047  -1.889  20.782  0.00  0.00    +0.035 A 
ATOM     32  C   UNL     1      14.169  -2.610  21.285  0.00  0.00    +0.024 A 
ATOM     33  C   UNL     1      14.214  -4.050  21.242  0.00  0.00    +0.007 A 
ATOM     34  C   UNL     1      13.124  -4.800  20.688  0.00  0.00    -0.029 A 
ATOM     35  C   UNL     1      13.223  -6.343  20.674  0.00  0.00    +0.045 C 
ENDROOT
BRANCH  10   9
ATOM      4  C   UNL     1       9.714  -6.157  16.483  0.00  0.00    +0.077 A 
ATOM      5  C   UNL     1      10.788  -5.860  15.580  0.00  0.00    +0.048 A 
ATOM      6  C   UNL     1      11.899  -5.161  16.101  0.00  0.00    +0.116 A 
ATOM      7  N   UNL     1      11.924  -4.790  17.428  0.00  0.00    -0.223 NA
ATOM      8  C   UNL     1      10.870  -5.091  18.272  0.00  0.00    +0.220 A 
ATOM      9  N   UNL     1      10.878  -4.735  19.612  0.00  0.00    -0.283 N 
ATOM     36  H   UNL     1      10.078  -4.969  20.200  0.00  0.00    +0.155 HD
ATOM     37  N   UNL     1       9.797  -5.757  17.798  0.00  0.00    -0.214 NA
BRANCH   4   3
ATOM      1  C   UNL     1       7.131  -8.310  14.485  0.00  0.00    +0.020 A 
ATOM      2  C   UNL     1       8.351  -7.615  14.823  0.00  0.00    +0.013 A 
ATOM      3  C   UNL     1       8.473  -6.893  16.084  0.00  0.00    +0.019 A 
ATOM     38  C   UNL     1       7.332  -6.896  16.987  0.00  0.00    +0.120 A 
ATOM     39  N   UNL     1       6.169  -7.573  16.635  0.00  0.00    -0.263 NA
ATOM     40  C   UNL     1       6.040  -8.269  15.424  0.00  0.00    +0.111 A 
ENDBRANCH   4   3
ENDBRANCH  10   9
BRANCH  12  13
ATOM     13  N   UNL     1      13.071  -0.450  20.867  0.00  0.00    -0.281 N 
ATOM     14  C   UNL     1      13.009   0.337  22.006  0.00  0.00    +0.248 C 
ATOM     30  O   UNL     1      12.707  -0.076  23.116  0.00  0.00    -0.270 OA
ATOM     31  H   UNL     1      13.142   0.050  19.981  0.00  0.00    +0.155 HD
BRANCH  14  15
ATOM     15  C   UNL     1      13.312   1.796  21.893  0.00  0.00    +0.037 A 
ATOM     16  C   UNL     1      14.553   2.269  21.272  0.00  0.00    +0.013 A 
ATOM     17  C   UNL     1      14.828   3.681  21.191  0.00  0.00    +0.005 A 
ATOM     18  C   UNL     1      13.860   4.632  21.732  0.00  0.00    -0.033 A 
ATOM     28  C   UNL     1      12.635   4.136  22.338  0.00  0.00    +0.005 A 
ATOM     29  C   UNL     1      12.362   2.752  22.420  0.00  0.00    +0.013 A 
BRANCH  18  19
ATOM     19  C   UNL     1      14.081   6.156  21.708  0.00  0.00    +0.119 C 
BRANCH  19  20
ATOM     20  N   UNL     1      15.250   6.689  22.470  0.00  0.00    -0.302 NA
ATOM     21  C   UNL     1      15.014   6.654  23.983  0.00  0.00    +0.066 C 
ATOM     22  C   UNL     1      16.255   7.195  24.765  0.00  0.00    -0.064 C 
ATOM     23  N   UNL     1      16.569   8.617  24.298  0.00  0.00    +0.379 N 
ATOM     24  C   UNL     1      17.700   9.149  25.073  0.00  0.00    -0.096 C 
ATOM     25  H   UNL     1      15.678   9.250  24.521  0.00  0.00    -0.082 HD
ATOM     26  C   UNL     1      16.802   8.661  22.795  0.00  0.00    -0.064 C 
ATOM     27  C   UNL     1      15.575   8.095  22.028  0.00  0.00    +0.066 C 
ENDBRANCH  19  20
ENDBRANCH  18  19
ENDBRANCH  14  15
ENDBRANCH  12  13
TORSDOF 6
ENDMDL
MODEL 5
REMARK VINA RESULT:     -10.6      2.294     11.680
REMARK  Name = C:\Users\Docking\Desktop\test protocol\1iep_ligandH.pdb
REMARK  8 active torsions:
REMARK  status: ('A' for Active; 'I' for Inactive)
REMARK    1  A    between atoms: _5  and  _11
REMARK    2  A    between atoms: _19  and  _21
REMARK    3  A    between atoms: _22  and  _66
REMARK    4  A    between atoms: _27  and  _30
REMARK    5  A    between atoms: _32  and  _33
REMARK    6  A    between atoms: _38  and  _43
REMARK    7  A    between atoms: _43  and  _46
REMARK    8  A    between atoms: _53  and  _55
REMARK                            x       y       z     vdW  Elec       q    Type
REMARK                         _______ _______ _______ _____ _____    ______ ____
ROOT
ATOM     10  C   UNL     1      12.967  -2.905  22.255  0.00  0.00    +0.038 A 
ATOM     11  C   UNL     1      12.041  -3.293  21.253  0.00  0.00    +0.047 A 
ATOM     12  C   UNL     1      12.179  -4.559  20.551  0.00  0.00    +0.035 A 
ATOM     32  C   UNL     1      13.270  -5.409  20.899  0.00  0.00    +0.024 A 
ATOM     33  C   UNL     1      14.220  -5.030  21.915  0.00  0.00    +0.007 A 
ATOM     34  C   UNL     1      14.091  -3.780  22.608  0.00  0.00    -0.029 A 
ATOM     35  C   UNL     1      15.143  -3.423  23.684  0.00  0.00    +0.045 C 
ENDROOT
BRANCH  10   9
ATOM      4  C   UNL     1      12.598   1.881  22.211  0.00  0.00    +0.077 A 
ATOM      5  C   UNL     1      12.809   1.943  20.793  0.00  0.00    +0.048 A 
ATOM      6  C   UNL     1      13.015   0.721  20.113  0.00  0.00    +0.116 A 
ATOM      7  N   UNL     1      13.009  -0.468  20.810  0.00  0.00    -0.223 NA
ATOM      8  C   UNL     1      12.805  -0.492  22.177  0.00  0.00    +0.220 A 
ATOM      9  N   UNL     1      12.787  -1.677  22.897  0.00  0.00    -0.283 N 
ATOM     36  H   UNL     1      12.640  -1.652  23.906  0.00  0.00    +0.155 HD
ATOM     37  N   UNL     1      12.607   0.661  22.849  0.00  0.00    -0.214 NA
BRANCH   4   3
ATOM      1  C   UNL     1      12.981   5.377  23.922  0.00  0.00    +0.020 A 
ATOM      2  C   UNL     1      13.254   4.239  23.075  0.00  0.00    +0.013 A 
ATOM      3  C   UNL     1      12.363   3.085  23.068  0.00  0.00    +0.019 A 
ATOM     38  C   UNL     1      11.194   3.116  23.935  0.00  0.00    +0.120 A 
ATOM     39  N   UNL     1      10.958   4.226  24.740  0.00  0.00    -0.263 NA
ATOM     40  C   UNL     1      11.809   5.341  24.757  0.00  0.00    +0.111 A 
ENDBRANCH   4   3
ENDBRANCH  10   9
BRANCH  12  13
ATOM     13  N   UNL     1      11.275  -5.003  19.519  0.00  0.00    -0.281 N 
ATOM     14  C   UNL     1      11.439  -4.910  18.146  0.00  0.00    +0.248 C 
ATOM     30  O   UNL     1      12.297  -4.235  17.597  0.00  0.00    -0.270 OA
ATOM     31  H   UNL     1      10.410  -5.438  19.839  0.00  0.00    +0.155 HD
BRANCH  14  15
ATOM     15  C   UNL     1      10.506  -5.665  17.255  0.00  0.00    +0.037 A 
ATOM     16  C   UNL     1       9.186  -6.091  17.725  0.00  0.00    +0.013 A 
ATOM     17  C   UNL     1       8.312  -6.833  16.850  0.00  0.00    +0.005 A 
ATOM     18  C   UNL     1       8.757  -7.152  15.496  0.00  0.00    -0.033 A 
ATOM     28  C   UNL     1      10.070  -6.712  15.054  0.00  0.00    +0.005 A 
ATOM     29  C   UNL     1      10.929  -5.986  15.909  0.00  0.00    +0.013 A 
BRANCH  18  19
ATOM     19  C   UNL     1       7.900  -7.958  14.502  0.00  0.00    +0.119 C 
BRANCH  19  20
ATOM     20  N   UNL     1       6.431  -7.689  14.491  0.00  0.00    -0.302 NA
ATOM     21  C   UNL     1       5.715  -8.363  15.666  0.00  0.00    +0.066 C 
ATOM     22  C   UNL     1       4.183  -8.053  15.652  0.00  0.00    -0.064 C 
ATOM     23  N   UNL     1       3.585  -8.509  14.320  0.00  0.00    +0.379 N 
ATOM     24  C   UNL     1       2.134  -8.271  14.327  0.00  0.00    -0.096 C 
ATOM     25  H   UNL     1       3.748  -9.608  14.235  0.00  0.00    -0.082 HD
ATOM     26  C   UNL     1       4.292  -7.845  13.147  0.00  0.00    -0.064 C 
ATOM     27  C   UNL     1       5.819  -8.135  13.186  0.00  0.00    +0.066 C 
ENDBRANCH  19  20
ENDBRANCH  18  19
ENDBRANCH  14  15
ENDBRANCH  12  13
TORSDOF 6
ENDMDL
