MODEL 1
REMARK VINA RESULT:      -8.3      0.000      0.000
REMARK  Name = C:\Users\Docking\Desktop\test protocol\1iep_ligandH.pdb
REMARK  8 active torsions:
REMARK  status: ('A' for Active; 'I' for Inactive)
REMARK    1  A    between atoms: _5  and  _11
REMARK    2  A    between atoms: _19  and  _21
REMARK    3  A    between atoms: _22  and  _66
REMARK    4  A    between atoms: _27  and  _30
REMARK    5  A    between atoms: _32  and  _33
REMARK    6  A    between atoms: _38  and  _43
REMARK    7  A    between atoms: _43  and  _46
REMARK    8  A    between atoms: _53  and  _55
REMARK                            x       y       z     vdW  Elec       q    Type
REMARK                         _______ _______ _______ _____ _____    ______ ____
ROOT
ATOM     10  C   UNL     1      55.570  29.119   6.515  0.00  0.00    +0.038 A 
ATOM     11  C   UNL     1      54.946  28.161   5.675  0.00  0.00    +0.047 A 
ATOM     12  C   UNL     1      54.147  27.080   6.231  0.00  0.00    +0.035 A 
ATOM     32  C   UNL     1      54.003  27.006   7.647  0.00  0.00    +0.024 A 
ATOM     33  C   UNL     1      54.630  27.970   8.515  0.00  0.00    +0.007 A 
ATOM     34  C   UNL     1      55.422  29.037   7.973  0.00  0.00    -0.029 A 
ATOM     35  C   UNL     1      56.077  30.039   8.952  0.00  0.00    +0.045 C 
ENDROOT
BRANCH  10   9
ATOM      4  C   UNL     1      59.758  31.060   5.200  0.00  0.00    +0.077 A 
ATOM      5  C   UNL     1      60.506  29.968   5.754  0.00  0.00    +0.048 A 
ATOM      6  C   UNL     1      59.775  28.930   6.375  0.00  0.00    +0.116 A 
ATOM      7  N   UNL     1      58.399  28.990   6.432  0.00  0.00    -0.223 NA
ATOM      8  C   UNL     1      57.709  30.059   5.889  0.00  0.00    +0.220 A 
ATOM      9  N   UNL     1      56.326  30.136   5.927  0.00  0.00    -0.283 N 
ATOM     36  H   UNL     1      55.854  30.944   5.522  0.00  0.00    +0.155 HD
ATOM     37  N   UNL     1      58.384  31.063   5.292  0.00  0.00    -0.214 NA
BRANCH   4   3
ATOM      1  C   UNL     1      62.232  33.924   4.213  0.00  0.00    +0.020 A 
ATOM      2  C   UNL     1      61.668  32.794   4.914  0.00  0.00    +0.013 A 
ATOM      3  C   UNL     1      60.387  32.230   4.509  0.00  0.00    +0.019 A 
ATOM     38  C   UNL     1      59.697  32.837   3.381  0.00  0.00    +0.120 A 
ATOM     39  N   UNL     1      60.263  33.926   2.726  0.00  0.00    -0.263 NA
ATOM     40  C   UNL     1      61.495  34.478   3.108  0.00  0.00    +0.111 A 
ENDBRANCH   4   3
ENDBRANCH  10   9
BRANCH  12  13
ATOM     13  N   UNL     1      53.497  26.073   5.428  0.00  0.00    -0.281 N 
ATOM     14  C   UNL     1      52.139  25.891   5.227  0.00  0.00    +0.248 C 
ATOM     30  O   UNL     1      51.264  26.438   5.882  0.00  0.00    -0.270 OA
ATOM     31  H   UNL     1      54.113  25.415   4.951  0.00  0.00    +0.155 HD
BRANCH  14  15
ATOM     15  C   UNL     1      51.687  24.955   4.154  0.00  0.00    +0.037 A 
ATOM     16  C   UNL     1      52.365  23.676   3.926  0.00  0.00    +0.013 A 
ATOM     17  C   UNL     1      51.919  22.799   2.872  0.00  0.00    +0.005 A 
ATOM     18  C   UNL     1      50.788  23.198   2.039  0.00  0.00    -0.033 A 
ATOM     28  C   UNL     1      50.130  24.469   2.290  0.00  0.00    +0.005 A 
ATOM     29  C   UNL     1      50.565  25.332   3.321  0.00  0.00    +0.013 A 
BRANCH  18  19
ATOM     19  C   UNL     1      50.258  22.335   0.878  0.00  0.00    +0.119 C 
BRANCH  19  20
ATOM     20  N   UNL     1      49.982  23.025  -0.417  0.00  0.00    -0.302 NA
ATOM     21  C   UNL     1      48.845  22.355  -1.194  0.00  0.00    +0.066 C 
ATOM     22  C   UNL     1      48.555  23.103  -2.535  0.00  0.00    -0.064 C 
ATOM     23  N   UNL     1      49.831  23.150  -3.377  0.00  0.00    +0.379 N 
ATOM     24  C   UNL     1      49.547  23.802  -4.664  0.00  0.00    -0.096 C 
ATOM     25  H   UNL     1      50.134  22.099  -3.589  0.00  0.00    -0.082 HD
ATOM     26  C   UNL     1      50.968  23.812  -2.611  0.00  0.00    -0.064 C 
ATOM     27  C   UNL     1      51.229  23.078  -1.265  0.00  0.00    +0.066 C 
ENDBRANCH  19  20
ENDBRANCH  18  19
ENDBRANCH  14  15
ENDBRANCH  12  13
TORSDOF 6
ENDMDL
MODEL 2
REMARK VINA RESULT:      -7.9      1.558      2.349
REMARK  Name = C:\Users\Docking\Desktop\test protocol\1iep_ligandH.pdb
REMARK  8 active torsions:
REMARK  status: ('A' for Active; 'I' for Inactive)
REMARK    1  A    between atoms: _5  and  _11
REMARK    2  A    between atoms: _19  and  _21
REMARK    3  A    between atoms: _22  and  _66
REMARK    4  A    between atoms: _27  and  _30
REMARK    5  A    between atoms: _32  and  _33
REMARK    6  A    between atoms: _38  and  _43
REMARK    7  A    between atoms: _43  and  _46
REMARK    8  A    between atoms: _53  and  _55
REMARK                            x       y       z     vdW  Elec       q    Type
REMARK                         _______ _______ _______ _____ _____    ______ ____
ROOT
ATOM     10  C   UNL     1      55.471  29.087   6.455  0.00  0.00    +0.038 A 
ATOM     11  C   UNL     1      54.842  28.157   5.589  0.00  0.00    +0.047 A 
ATOM     12  C   UNL     1      54.015  27.081   6.113  0.00  0.00    +0.035 A 
ATOM     32  C   UNL     1      53.848  26.983   7.525  0.00  0.00    +0.024 A 
ATOM     33  C   UNL     1      54.481  27.920   8.420  0.00  0.00    +0.007 A 
ATOM     34  C   UNL     1      55.299  28.982   7.909  0.00  0.00    -0.029 A 
ATOM     35  C   UNL     1      55.959  29.953   8.916  0.00  0.00    +0.045 C 
ENDROOT
BRANCH  10   9
ATOM      4  C   UNL     1      59.715  30.999   5.285  0.00  0.00    +0.077 A 
ATOM      5  C   UNL     1      60.435  29.897   5.855  0.00  0.00    +0.048 A 
ATOM      6  C   UNL     1      59.676  28.862   6.446  0.00  0.00    +0.116 A 
ATOM      7  N   UNL     1      58.300  28.934   6.460  0.00  0.00    -0.223 NA
ATOM      8  C   UNL     1      57.637  30.012   5.903  0.00  0.00    +0.220 A 
ATOM      9  N   UNL     1      56.253  30.101   5.898  0.00  0.00    -0.283 N 
ATOM     36  H   UNL     1      55.802  30.916   5.484  0.00  0.00    +0.155 HD
ATOM     37  N   UNL     1      58.339  31.014   5.333  0.00  0.00    -0.214 NA
BRANCH   4   3
ATOM      1  C   UNL     1      62.230  33.864   4.409  0.00  0.00    +0.020 A 
ATOM      2  C   UNL     1      61.634  32.735   5.086  0.00  0.00    +0.013 A 
ATOM      3  C   UNL     1      60.375  32.167   4.621  0.00  0.00    +0.019 A 
ATOM     38  C   UNL     1      59.741  32.768   3.457  0.00  0.00    +0.120 A 
ATOM     39  N   UNL     1      60.337  33.855   2.826  0.00  0.00    -0.263 NA
ATOM     40  C   UNL     1      61.548  34.412   3.266  0.00  0.00    +0.111 A 
ENDBRANCH   4   3
ENDBRANCH  10   9
BRANCH  12  13
ATOM     13  N   UNL     1      53.358  26.102   5.282  0.00  0.00    -0.281 N 
ATOM     14  C   UNL     1      52.000  25.856   5.169  0.00  0.00    +0.248 C 
ATOM     30  O   UNL     1      51.151  26.299   5.928  0.00  0.00    -0.270 OA
ATOM     31  H   UNL     1      53.969  25.520   4.709  0.00  0.00    +0.155 HD
BRANCH  14  15
ATOM     15  C   UNL     1      51.516  24.979   4.059  0.00  0.00    +0.037 A 
ATOM     16  C   UNL     1      52.019  23.613   3.895  0.00  0.00    +0.013 A 
ATOM     17  C   UNL     1      51.548  22.794   2.807  0.00  0.00    +0.005 A 
ATOM     18  C   UNL     1      50.565  23.339   1.873  0.00  0.00    -0.033 A 
ATOM     28  C   UNL     1      50.079  24.696   2.063  0.00  0.00    +0.005 A 
ATOM     29  C   UNL     1      50.539  25.502   3.128  0.00  0.00    +0.013 A 
BRANCH  18  19
ATOM     19  C   UNL     1      50.023  22.545   0.671  0.00  0.00    +0.119 C 
BRANCH  19  20
ATOM     20  N   UNL     1      48.605  22.082   0.741  0.00  0.00    -0.302 NA
ATOM     21  C   UNL     1      47.647  23.057   0.051  0.00  0.00    +0.066 C 
ATOM     22  C   UNL     1      46.171  22.546   0.114  0.00  0.00    -0.064 C 
ATOM     23  N   UNL     1      45.769  22.335   1.575  0.00  0.00    +0.379 N 
ATOM     24  C   UNL     1      44.363  21.910   1.641  0.00  0.00    -0.096 C 
ATOM     25  H   UNL     1      45.850  23.318   2.093  0.00  0.00    -0.082 HD
ATOM     26  C   UNL     1      46.718  21.368   2.270  0.00  0.00    -0.064 C 
ATOM     27  C   UNL     1      48.186  21.871   2.175  0.00  0.00    +0.066 C 
ENDBRANCH  19  20
ENDBRANCH  18  19
ENDBRANCH  14  15
ENDBRANCH  12  13
TORSDOF 6
ENDMDL
MODEL 3
REMARK VINA RESULT:      -7.9      4.444     14.071
REMARK  Name = C:\Users\Docking\Desktop\test protocol\1iep_ligandH.pdb
REMARK  8 active torsions:
REMARK  status: ('A' for Active; 'I' for Inactive)
REMARK    1  A    between atoms: _5  and  _11
REMARK    2  A    between atoms: _19  and  _21
REMARK    3  A    between atoms: _22  and  _66
REMARK    4  A    between atoms: _27  and  _30
REMARK    5  A    between atoms: _32  and  _33
REMARK    6  A    between atoms: _38  and  _43
REMARK    7  A    between atoms: _43  and  _46
REMARK    8  A    between atoms: _53  and  _55
REMARK                            x       y       z     vdW  Elec       q    Type
REMARK                         _______ _______ _______ _____ _____    ______ ____
ROOT
ATOM     10  C   UNL     1      47.898  24.011   1.179  0.00  0.00    +0.038 A 
ATOM     11  C   UNL     1      48.691  24.506   2.246  0.00  0.00    +0.047 A 
ATOM     12  C   UNL     1      50.125  24.697   2.092  0.00  0.00    +0.035 A 
ATOM     32  C   UNL     1      50.718  24.377   0.837  0.00  0.00    +0.024 A 
ATOM     33  C   UNL     1      49.928  23.872  -0.258  0.00  0.00    +0.007 A 
ATOM     34  C   UNL     1      48.514  23.678  -0.112  0.00  0.00    -0.029 A 
ATOM     35  C   UNL     1      47.717  23.128  -1.317  0.00  0.00    +0.045 C 
ENDROOT
BRANCH  10   9
ATOM      4  C   UNL     1      44.084  21.350   2.366  0.00  0.00    +0.077 A 
ATOM      5  C   UNL     1      44.890  20.182   2.575  0.00  0.00    +0.048 A 
ATOM      6  C   UNL     1      46.281  20.306   2.359  0.00  0.00    +0.116 A 
ATOM      7  N   UNL     1      46.815  21.513   1.964  0.00  0.00    -0.223 NA
ATOM      8  C   UNL     1      46.009  22.620   1.770  0.00  0.00    +0.220 A 
ATOM      9  N   UNL     1      46.526  23.846   1.381  0.00  0.00    -0.283 N 
ATOM     36  H   UNL     1      45.898  24.637   1.242  0.00  0.00    +0.155 HD
ATOM     37  N   UNL     1      44.678  22.527   1.969  0.00  0.00    -0.214 NA
BRANCH   4   3
ATOM      1  C   UNL     1      40.255  20.659   1.966  0.00  0.00    +0.020 A 
ATOM      2  C   UNL     1      41.680  20.596   1.741  0.00  0.00    +0.013 A 
ATOM      3  C   UNL     1      42.599  21.379   2.557  0.00  0.00    +0.019 A 
ATOM     38  C   UNL     1      42.039  22.223   3.602  0.00  0.00    +0.120 A 
ATOM     39  N   UNL     1      40.662  22.265   3.795  0.00  0.00    -0.263 NA
ATOM     40  C   UNL     1      39.768  21.516   3.014  0.00  0.00    +0.111 A 
ENDBRANCH   4   3
ENDBRANCH  10   9
BRANCH  12  13
ATOM     13  N   UNL     1      50.982  25.189   3.143  0.00  0.00    -0.281 N 
ATOM     14  C   UNL     1      51.604  24.461   4.144  0.00  0.00    +0.248 C 
ATOM     30  O   UNL     1      51.344  23.299   4.417  0.00  0.00    -0.270 OA
ATOM     31  H   UNL     1      51.150  26.195   3.148  0.00  0.00    +0.155 HD
BRANCH  14  15
ATOM     15  C   UNL     1      52.656  25.126   4.972  0.00  0.00    +0.037 A 
ATOM     16  C   UNL     1      54.025  24.607   5.020  0.00  0.00    +0.013 A 
ATOM     17  C   UNL     1      55.017  25.257   5.840  0.00  0.00    +0.005 A 
ATOM     18  C   UNL     1      54.642  26.436   6.617  0.00  0.00    -0.033 A 
ATOM     28  C   UNL     1      53.278  26.933   6.547  0.00  0.00    +0.005 A 
ATOM     29  C   UNL     1      52.303  26.298   5.745  0.00  0.00    +0.013 A 
BRANCH  18  19
ATOM     19  C   UNL     1      55.630  27.181   7.535  0.00  0.00    +0.119 C 
BRANCH  19  20
ATOM     20  N   UNL     1      56.821  27.810   6.891  0.00  0.00    -0.302 NA
ATOM     21  C   UNL     1      57.585  28.718   7.858  0.00  0.00    +0.066 C 
ATOM     22  C   UNL     1      58.841  29.350   7.174  0.00  0.00    -0.064 C 
ATOM     23  N   UNL     1      58.405  30.127   5.932  0.00  0.00    +0.379 N 
ATOM     24  C   UNL     1      59.576  30.771   5.319  0.00  0.00    -0.096 C 
ATOM     25  H   UNL     1      57.711  30.934   6.264  0.00  0.00    -0.082 HD
ATOM     26  C   UNL     1      57.642  29.232   4.965  0.00  0.00    -0.064 C 
ATOM     27  C   UNL     1      56.412  28.587   5.663  0.00  0.00    +0.066 C 
ENDBRANCH  19  20
ENDBRANCH  18  19
ENDBRANCH  14  15
ENDBRANCH  12  13
TORSDOF 6
ENDMDL
MODEL 4
REMARK VINA RESULT:      -7.8      5.016     14.876
REMARK  Name = C:\Users\Docking\Desktop\test protocol\1iep_ligandH.pdb
REMARK  8 active torsions:
REMARK  status: ('A' for Active; 'I' for Inactive)
REMARK    1  A    between atoms: _5  and  _11
REMARK    2  A    between atoms: _19  and  _21
REMARK    3  A    between atoms: _22  and  _66
REMARK    4  A    between atoms: _27  and  _30
REMARK    5  A    between atoms: _32  and  _33
REMARK    6  A    between atoms: _38  and  _43
REMARK    7  A    between atoms: _43  and  _46
REMARK    8  A    between atoms: _53  and  _55
REMARK                            x       y       z     vdW  Elec       q    Type
REMARK                         _______ _______ _______ _____ _____    ______ ____
ROOT
ATOM     10  C   UNL     1      46.919  23.469   1.351  0.00  0.00    +0.038 A 
ATOM     11  C   UNL     1      47.514  24.077   2.486  0.00  0.00    +0.047 A 
ATOM     12  C   UNL     1      48.798  24.754   2.391  0.00  0.00    +0.035 A 
ATOM     32  C   UNL     1      49.448  24.795   1.123  0.00  0.00    +0.024 A 
ATOM     33  C   UNL     1      48.858  24.181  -0.041  0.00  0.00    +0.007 A 
ATOM     34  C   UNL     1      47.593  23.510   0.048  0.00  0.00    -0.029 A 
ATOM     35  C   UNL     1      47.011  22.864  -1.231  0.00  0.00    +0.045 C 
ENDROOT
BRANCH  10   9
ATOM      4  C   UNL     1      44.230  19.662   2.496  0.00  0.00    +0.077 A 
ATOM      5  C   UNL     1      45.384  18.864   2.798  0.00  0.00    +0.048 A 
ATOM      6  C   UNL     1      46.651  19.468   2.639  0.00  0.00    +0.116 A 
ATOM      7  N   UNL     1      46.745  20.775   2.210  0.00  0.00    -0.223 NA
ATOM      8  C   UNL     1      45.613  21.516   1.925  0.00  0.00    +0.220 A 
ATOM      9  N   UNL     1      45.685  22.833   1.500  0.00  0.00    -0.283 N 
ATOM     36  H   UNL     1      44.826  23.343   1.293  0.00  0.00    +0.155 HD
ATOM     37  N   UNL     1      44.392  20.960   2.068  0.00  0.00    -0.214 NA
BRANCH   4   3
ATOM      1  C   UNL     1      41.039  17.406   2.323  0.00  0.00    +0.020 A 
ATOM      2  C   UNL     1      42.411  17.837   2.183  0.00  0.00    +0.013 A 
ATOM      3  C   UNL     1      42.823  19.165   2.617  0.00  0.00    +0.019 A 
ATOM     38  C   UNL     1      41.814  20.040   3.196  0.00  0.00    +0.120 A 
ATOM     39  N   UNL     1      40.501  19.599   3.317  0.00  0.00    -0.263 NA
ATOM     40  C   UNL     1      40.092  18.323   2.901  0.00  0.00    +0.111 A 
ENDBRANCH   4   3
ENDBRANCH  10   9
BRANCH  12  13
ATOM     13  N   UNL     1      49.454  25.382   3.511  0.00  0.00    -0.281 N 
ATOM     14  C   UNL     1      48.938  26.330   4.379  0.00  0.00    +0.248 C 
ATOM     30  O   UNL     1      47.896  26.943   4.193  0.00  0.00    -0.270 OA
ATOM     31  H   UNL     1      50.417  25.093   3.685  0.00  0.00    +0.155 HD
BRANCH  14  15
ATOM     15  C   UNL     1      49.694  26.656   5.626  0.00  0.00    +0.037 A 
ATOM     16  C   UNL     1      50.977  26.015   5.926  0.00  0.00    +0.013 A 
ATOM     17  C   UNL     1      51.677  26.334   7.145  0.00  0.00    +0.005 A 
ATOM     18  C   UNL     1      51.096  27.302   8.072  0.00  0.00    -0.033 A 
ATOM     28  C   UNL     1      49.824  27.927   7.747  0.00  0.00    +0.005 A 
ATOM     29  C   UNL     1      49.134  27.615   6.554  0.00  0.00    +0.013 A 
BRANCH  18  19
ATOM     19  C   UNL     1      51.763  27.687   9.406  0.00  0.00    +0.119 C 
BRANCH  19  20
ATOM     20  N   UNL     1      53.193  28.114   9.357  0.00  0.00    -0.302 NA
ATOM     21  C   UNL     1      53.755  28.404  10.752  0.00  0.00    +0.066 C 
ATOM     22  C   UNL     1      55.258  28.828  10.683  0.00  0.00    -0.064 C 
ATOM     23  N   UNL     1      55.400  30.052   9.777  0.00  0.00    +0.379 N 
ATOM     24  C   UNL     1      56.804  30.488   9.757  0.00  0.00    -0.096 C 
ATOM     25  H   UNL     1      54.796  30.875  10.225  0.00  0.00    -0.082 HD
ATOM     26  C   UNL     1      54.841  29.773   8.389  0.00  0.00    -0.064 C 
ATOM     27  C   UNL     1      53.355  29.324   8.470  0.00  0.00    +0.066 C 
ENDBRANCH  19  20
ENDBRANCH  18  19
ENDBRANCH  14  15
ENDBRANCH  12  13
TORSDOF 6
ENDMDL
MODEL 5
REMARK VINA RESULT:      -7.6      5.156     14.992
REMARK  Name = C:\Users\Docking\Desktop\test protocol\1iep_ligandH.pdb
REMARK  8 active torsions:
REMARK  status: ('A' for Active; 'I' for Inactive)
REMARK    1  A    between atoms: _5  and  _11
REMARK    2  A    between atoms: _19  and  _21
REMARK    3  A    between atoms: _22  and  _66
REMARK    4  A    between atoms: _27  and  _30
REMARK    5  A    between atoms: _32  and  _33
REMARK    6  A    between atoms: _38  and  _43
REMARK    7  A    between atoms: _43  and  _46
REMARK    8  A    between atoms: _53  and  _55
REMARK                            x       y       z     vdW  Elec       q    Type
REMARK                         _______ _______ _______ _____ _____    ______ ____
ROOT
ATOM     10  C   UNL     1      47.484  22.421   1.621  0.00  0.00    +0.038 A 
ATOM     11  C   UNL     1      48.140  23.099   2.679  0.00  0.00    +0.047 A 
ATOM     12  C   UNL     1      48.707  24.425   2.486  0.00  0.00    +0.035 A 
ATOM     32  C   UNL     1      48.586  25.032   1.202  0.00  0.00    +0.024 A 
ATOM     33  C   UNL     1      47.923  24.356   0.115  0.00  0.00    +0.007 A 
ATOM     34  C   UNL     1      47.363  23.047   0.298  0.00  0.00    -0.029 A 
ATOM     35  C   UNL     1      46.669  22.368  -0.905  0.00  0.00    +0.045 C 
ENDROOT
BRANCH  10   9
ATOM      4  C   UNL     1      43.910  19.499   2.936  0.00  0.00    +0.077 A 
ATOM      5  C   UNL     1      43.025  20.600   3.190  0.00  0.00    +0.048 A 
ATOM      6  C   UNL     1      43.531  21.902   2.977  0.00  0.00    +0.116 A 
ATOM      7  N   UNL     1      44.826  22.079   2.541  0.00  0.00    -0.223 NA
ATOM      8  C   UNL     1      45.654  20.996   2.307  0.00  0.00    +0.220 A 
ATOM      9  N   UNL     1      46.957  21.150   1.861  0.00  0.00    -0.283 N 
ATOM     36  H   UNL     1      47.538  20.326   1.707  0.00  0.00    +0.155 HD
ATOM     37  N   UNL     1      45.195  19.742   2.505  0.00  0.00    -0.214 NA
BRANCH   4   3
ATOM      1  C   UNL     1      42.770  15.827   2.221  0.00  0.00    +0.020 A 
ATOM      2  C   UNL     1      43.136  17.206   1.998  0.00  0.00    +0.013 A 
ATOM      3  C   UNL     1      43.521  18.064   3.111  0.00  0.00    +0.019 A 
ATOM     38  C   UNL     1      43.527  17.491   4.448  0.00  0.00    +0.120 A 
ATOM     39  N   UNL     1      43.168  16.159   4.633  0.00  0.00    -0.263 NA
ATOM     40  C   UNL     1      42.793  15.325   3.570  0.00  0.00    +0.111 A 
ENDBRANCH   4   3
ENDBRANCH  10   9
BRANCH  12  13
ATOM     13  N   UNL     1      49.392  25.159   3.522  0.00  0.00    -0.281 N 
ATOM     14  C   UNL     1      48.869  26.117   4.375  0.00  0.00    +0.248 C 
ATOM     30  O   UNL     1      47.776  26.645   4.234  0.00  0.00    -0.270 OA
ATOM     31  H   UNL     1      50.383  24.946   3.640  0.00  0.00    +0.155 HD
BRANCH  14  15
ATOM     15  C   UNL     1      49.684  26.563   5.546  0.00  0.00    +0.037 A 
ATOM     16  C   UNL     1      51.073  26.130   5.714  0.00  0.00    +0.013 A 
ATOM     17  C   UNL     1      51.831  26.561   6.862  0.00  0.00    +0.005 A 
ATOM     18  C   UNL     1      51.201  27.433   7.850  0.00  0.00    -0.033 A 
ATOM     28  C   UNL     1      49.823  27.853   7.655  0.00  0.00    +0.005 A 
ATOM     29  C   UNL     1      49.076  27.431   6.532  0.00  0.00    +0.013 A 
BRANCH  18  19
ATOM     19  C   UNL     1      51.927  27.926   9.116  0.00  0.00    +0.119 C 
BRANCH  19  20
ATOM     20  N   UNL     1      53.396  28.170   9.009  0.00  0.00    -0.302 NA
ATOM     21  C   UNL     1      54.091  28.100  10.372  0.00  0.00    +0.066 C 
ATOM     22  C   UNL     1      55.631  28.336  10.240  0.00  0.00    -0.064 C 
ATOM     23  N   UNL     1      55.881  29.690   9.573  0.00  0.00    +0.379 N 
ATOM     24  C   UNL     1      57.328  29.940   9.500  0.00  0.00    -0.096 C 
ATOM     25  H   UNL     1      55.434  30.475  10.226  0.00  0.00    -0.082 HD
ATOM     26  C   UNL     1      55.192  29.769   8.218  0.00  0.00    -0.064 C 
ATOM     27  C   UNL     1      53.666  29.504   8.358  0.00  0.00    +0.066 C 
ENDBRANCH  19  20
ENDBRANCH  18  19
ENDBRANCH  14  15
ENDBRANCH  12  13
TORSDOF 6
ENDMDL
