MODEL 1
REMARK VINA RESULT:     -10.0      0.000      0.000
REMARK  Name = C:\Users\Docking\Desktop\test protocol\1iep_ligandH.pdb
REMARK  8 active torsions:
REMARK  status: ('A' for Active; 'I' for Inactive)
REMARK    1  A    between atoms: _5  and  _11
REMARK    2  A    between atoms: _19  and  _21
REMARK    3  A    between atoms: _22  and  _66
REMARK    4  A    between atoms: _27  and  _30
REMARK    5  A    between atoms: _32  and  _33
REMARK    6  A    between atoms: _38  and  _43
REMARK    7  A    between atoms: _43  and  _46
REMARK    8  A    between atoms: _53  and  _55
REMARK                            x       y       z     vdW  Elec       q    Type
REMARK                         _______ _______ _______ _____ _____    ______ ____
ROOT
ATOM     10  C   UNL     1      12.764   9.682  24.467  0.00  0.00    +0.038 A 
ATOM     11  C   UNL     1      11.787  10.397  25.206  0.00  0.00    +0.047 A 
ATOM     12  C   UNL     1      11.079  11.525  24.621  0.00  0.00    +0.035 A 
ATOM     32  C   UNL     1      11.390  11.897  23.281  0.00  0.00    +0.024 A 
ATOM     33  C   UNL     1      12.381  11.182  22.516  0.00  0.00    +0.007 A 
ATOM     34  C   UNL     1      13.084  10.070  23.088  0.00  0.00    -0.029 A 
ATOM     35  C   UNL     1      14.142   9.344  22.224  0.00  0.00    +0.045 C 
ENDROOT
BRANCH  10   9
ATOM      4  C   UNL     1      13.258   6.507  28.032  0.00  0.00    +0.077 A 
ATOM      5  C   UNL     1      12.145   7.054  28.753  0.00  0.00    +0.048 A 
ATOM      6  C   UNL     1      11.477   8.157  28.176  0.00  0.00    +0.116 A 
ATOM      7  N   UNL     1      11.899   8.666  26.966  0.00  0.00    -0.223 NA
ATOM      8  C   UNL     1      12.977   8.115  26.298  0.00  0.00    +0.220 A 
ATOM      9  N   UNL     1      13.413   8.606  25.077  0.00  0.00    -0.283 N 
ATOM     36  H   UNL     1      14.217   8.177  24.620  0.00  0.00    +0.155 HD
ATOM     37  N   UNL     1      13.633   7.063  26.830  0.00  0.00    -0.214 NA
BRANCH   4   3
ATOM      1  C   UNL     1      14.983   3.003  28.260  0.00  0.00    +0.020 A 
ATOM      2  C   UNL     1      14.192   4.101  27.753  0.00  0.00    +0.013 A 
ATOM      3  C   UNL     1      14.063   5.339  28.511  0.00  0.00    +0.019 A 
ATOM     38  C   UNL     1      14.753   5.434  29.789  0.00  0.00    +0.120 A 
ATOM     39  N   UNL     1      15.506   4.360  30.253  0.00  0.00    -0.263 NA
ATOM     40  C   UNL     1      15.636   3.163  29.532  0.00  0.00    +0.111 A 
ENDBRANCH   4   3
ENDBRANCH  10   9
BRANCH  12  13
ATOM     13  N   UNL     1      10.083  12.294  25.326  0.00  0.00    -0.281 N 
ATOM     14  C   UNL     1       9.088  11.829  26.170  0.00  0.00    +0.248 C 
ATOM     30  O   UNL     1       8.769  10.654  26.281  0.00  0.00    -0.270 OA
ATOM     31  H   UNL     1      10.115  13.304  25.184  0.00  0.00    +0.155 HD
BRANCH  14  15
ATOM     15  C   UNL     1       8.328  12.812  27.001  0.00  0.00    +0.037 A 
ATOM     16  C   UNL     1       7.270  12.376  27.916  0.00  0.00    +0.013 A 
ATOM     17  C   UNL     1       6.541  13.346  28.693  0.00  0.00    +0.005 A 
ATOM     18  C   UNL     1       6.870  14.764  28.560  0.00  0.00    -0.033 A 
ATOM     28  C   UNL     1       7.927  15.168  27.648  0.00  0.00    +0.005 A 
ATOM     29  C   UNL     1       8.643  14.220  26.884  0.00  0.00    +0.013 A 
BRANCH  18  19
ATOM     19  C   UNL     1       6.130  15.870  29.334  0.00  0.00    +0.119 C 
BRANCH  19  20
ATOM     20  N   UNL     1       5.701  17.075  28.563  0.00  0.00    -0.302 NA
ATOM     21  C   UNL     1       5.169  18.183  29.477  0.00  0.00    +0.066 C 
ATOM     22  C   UNL     1       4.746  19.444  28.655  0.00  0.00    -0.064 C 
ATOM     23  N   UNL     1       3.694  19.045  27.619  0.00  0.00    +0.379 N 
ATOM     24  C   UNL     1       3.252  20.240  26.884  0.00  0.00    -0.096 C 
ATOM     25  H   UNL     1       2.813  18.642  28.171  0.00  0.00    -0.082 HD
ATOM     26  C   UNL     1       4.213  17.942  26.708  0.00  0.00    -0.064 C 
ATOM     27  C   UNL     1       4.658  16.705  27.537  0.00  0.00    +0.066 C 
ENDBRANCH  19  20
ENDBRANCH  18  19
ENDBRANCH  14  15
ENDBRANCH  12  13
TORSDOF 6
ENDMDL
MODEL 2
REMARK VINA RESULT:      -9.6      2.187      3.137
REMARK  Name = C:\Users\Docking\Desktop\test protocol\1iep_ligandH.pdb
REMARK  8 active torsions:
REMARK  status: ('A' for Active; 'I' for Inactive)
REMARK    1  A    between atoms: _5  and  _11
REMARK    2  A    between atoms: _19  and  _21
REMARK    3  A    between atoms: _22  and  _66
REMARK    4  A    between atoms: _27  and  _30
REMARK    5  A    between atoms: _32  and  _33
REMARK    6  A    between atoms: _38  and  _43
REMARK    7  A    between atoms: _43  and  _46
REMARK    8  A    between atoms: _53  and  _55
REMARK                            x       y       z     vdW  Elec       q    Type
REMARK                         _______ _______ _______ _____ _____    ______ ____
ROOT
ATOM     10  C   UNL     1      12.495   9.583  24.315  0.00  0.00    +0.038 A 
ATOM     11  C   UNL     1      11.529  10.253  25.108  0.00  0.00    +0.047 A 
ATOM     12  C   UNL     1      10.966  11.528  24.690  0.00  0.00    +0.035 A 
ATOM     32  C   UNL     1      11.408  12.090  23.457  0.00  0.00    +0.024 A 
ATOM     33  C   UNL     1      12.390  11.423  22.639  0.00  0.00    +0.007 A 
ATOM     34  C   UNL     1      12.951  10.166  23.047  0.00  0.00    -0.029 A 
ATOM     35  C   UNL     1      14.005   9.499  22.133  0.00  0.00    +0.045 C 
ENDROOT
BRANCH  10   9
ATOM      4  C   UNL     1      14.435   6.796  27.707  0.00  0.00    +0.077 A 
ATOM      5  C   UNL     1      14.465   7.871  28.656  0.00  0.00    +0.048 A 
ATOM      6  C   UNL     1      13.978   9.127  28.230  0.00  0.00    +0.116 A 
ATOM      7  N   UNL     1      13.500   9.285  26.947  0.00  0.00    -0.223 NA
ATOM      8  C   UNL     1      13.486   8.228  26.056  0.00  0.00    +0.220 A 
ATOM      9  N   UNL     1      13.002   8.362  24.764  0.00  0.00    -0.283 N 
ATOM     36  H   UNL     1      13.016   7.559  24.134  0.00  0.00    +0.155 HD
ATOM     37  N   UNL     1      13.947   7.018  26.439  0.00  0.00    -0.214 NA
BRANCH   4   3
ATOM      1  C   UNL     1      14.517   2.955  28.444  0.00  0.00    +0.020 A 
ATOM      2  C   UNL     1      14.006   4.275  28.153  0.00  0.00    +0.013 A 
ATOM      3  C   UNL     1      14.910   5.409  28.009  0.00  0.00    +0.019 A 
ATOM     38  C   UNL     1      16.337   5.171  28.166  0.00  0.00    +0.120 A 
ATOM     39  N   UNL     1      16.800   3.890  28.448  0.00  0.00    -0.263 NA
ATOM     40  C   UNL     1      15.940   2.791  28.590  0.00  0.00    +0.111 A 
ENDBRANCH   4   3
ENDBRANCH  10   9
BRANCH  12  13
ATOM     13  N   UNL     1       9.988  12.259  25.457  0.00  0.00    -0.281 N 
ATOM     14  C   UNL     1       8.874  11.760  26.112  0.00  0.00    +0.248 C 
ATOM     30  O   UNL     1       8.429  10.633  25.959  0.00  0.00    -0.270 OA
ATOM     31  H   UNL     1      10.135  13.266  25.526  0.00  0.00    +0.155 HD
BRANCH  14  15
ATOM     15  C   UNL     1       8.139  12.648  27.065  0.00  0.00    +0.037 A 
ATOM     16  C   UNL     1       8.295  14.104  27.021  0.00  0.00    +0.013 A 
ATOM     17  C   UNL     1       7.588  14.935  27.963  0.00  0.00    +0.005 A 
ATOM     18  C   UNL     1       6.717  14.312  28.956  0.00  0.00    -0.033 A 
ATOM     28  C   UNL     1       6.577  12.865  28.974  0.00  0.00    +0.005 A 
ATOM     29  C   UNL     1       7.269  12.047  28.053  0.00  0.00    +0.013 A 
BRANCH  18  19
ATOM     19  C   UNL     1       5.941  15.119  30.013  0.00  0.00    +0.119 C 
BRANCH  19  20
ATOM     20  N   UNL     1       6.683  15.526  31.243  0.00  0.00    -0.302 NA
ATOM     21  C   UNL     1       6.280  14.688  32.460  0.00  0.00    +0.066 C 
ATOM     22  C   UNL     1       7.082  15.112  33.734  0.00  0.00    -0.064 C 
ATOM     23  N   UNL     1       6.857  16.601  34.003  0.00  0.00    +0.379 N 
ATOM     24  C   UNL     1       7.563  16.989  35.233  0.00  0.00    -0.096 C 
ATOM     25  H   UNL     1       5.766  16.751  34.177  0.00  0.00    -0.082 HD
ATOM     26  C   UNL     1       7.252  17.441  32.797  0.00  0.00    -0.064 C 
ATOM     27  C   UNL     1       6.471  16.992  31.530  0.00  0.00    +0.066 C 
ENDBRANCH  19  20
ENDBRANCH  18  19
ENDBRANCH  14  15
ENDBRANCH  12  13
TORSDOF 6
ENDMDL
MODEL 3
REMARK VINA RESULT:      -9.2     24.635     29.670
REMARK  Name = C:\Users\Docking\Desktop\test protocol\1iep_ligandH.pdb
REMARK  8 active torsions:
REMARK  status: ('A' for Active; 'I' for Inactive)
REMARK    1  A    between atoms: _5  and  _11
REMARK    2  A    between atoms: _19  and  _21
REMARK    3  A    between atoms: _22  and  _66
REMARK    4  A    between atoms: _27  and  _30
REMARK    5  A    between atoms: _32  and  _33
REMARK    6  A    between atoms: _38  and  _43
REMARK    7  A    between atoms: _43  and  _46
REMARK    8  A    between atoms: _53  and  _55
REMARK                            x       y       z     vdW  Elec       q    Type
REMARK                         _______ _______ _______ _____ _____    ______ ____
ROOT
ATOM     10  C   UNL     1      18.136 -13.514  11.395  0.00  0.00    +0.038 A 
ATOM     11  C   UNL     1      19.150 -12.818  12.101  0.00  0.00    +0.047 A 
ATOM     12  C   UNL     1      19.828 -13.425  13.236  0.00  0.00    +0.035 A 
ATOM     32  C   UNL     1      19.450 -14.744  13.623  0.00  0.00    +0.024 A 
ATOM     33  C   UNL     1      18.420 -15.465  12.917  0.00  0.00    +0.007 A 
ATOM     34  C   UNL     1      17.746 -14.870  11.798  0.00  0.00    -0.029 A 
ATOM     35  C   UNL     1      16.645 -15.687  11.083  0.00  0.00    +0.045 C 
ENDROOT
BRANCH  10   9
ATOM      4  C   UNL     1      14.492 -11.089   9.426  0.00  0.00    +0.077 A 
ATOM      5  C   UNL     1      13.744 -11.103  10.650  0.00  0.00    +0.048 A 
ATOM      6  C   UNL     1      14.329 -11.750  11.761  0.00  0.00    +0.116 A 
ATOM      7  N   UNL     1      15.571 -12.337  11.645  0.00  0.00    -0.223 NA
ATOM      8  C   UNL     1      16.265 -12.307  10.449  0.00  0.00    +0.220 A 
ATOM      9  N   UNL     1      17.518 -12.883  10.312  0.00  0.00    -0.283 N 
ATOM     36  H   UNL     1      17.995 -12.846   9.412  0.00  0.00    +0.155 HD
ATOM     37  N   UNL     1      15.727 -11.696   9.373  0.00  0.00    -0.214 NA
BRANCH   4   3
ATOM      1  C   UNL     1      12.467  -8.905   6.890  0.00  0.00    +0.020 A 
ATOM      2  C   UNL     1      12.894  -9.503   8.134  0.00  0.00    +0.013 A 
ATOM      3  C   UNL     1      14.009 -10.441   8.165  0.00  0.00    +0.019 A 
ATOM     38  C   UNL     1      14.676 -10.755   6.911  0.00  0.00    +0.120 A 
ATOM     39  N   UNL     1      14.242 -10.165   5.728  0.00  0.00    -0.263 NA
ATOM     40  C   UNL     1      13.169  -9.262   5.685  0.00  0.00    +0.111 A 
ENDBRANCH   4   3
ENDBRANCH  10   9
BRANCH  12  13
ATOM     13  N   UNL     1      20.860 -12.764  13.997  0.00  0.00    -0.281 N 
ATOM     14  C   UNL     1      22.148 -12.452  13.593  0.00  0.00    +0.248 C 
ATOM     30  O   UNL     1      22.680 -12.886  12.582  0.00  0.00    -0.270 OA
ATOM     31  H   UNL     1      20.611 -12.495  14.948  0.00  0.00    +0.155 HD
BRANCH  14  15
ATOM     15  C   UNL     1      22.968 -11.535  14.442  0.00  0.00    +0.037 A 
ATOM     16  C   UNL     1      23.718 -10.422  13.853  0.00  0.00    +0.013 A 
ATOM     17  C   UNL     1      24.515  -9.563  14.693  0.00  0.00    +0.005 A 
ATOM     18  C   UNL     1      24.565  -9.814  16.131  0.00  0.00    -0.033 A 
ATOM     28  C   UNL     1      23.807 -10.922  16.689  0.00  0.00    +0.005 A 
ATOM     29  C   UNL     1      23.026 -11.766  15.869  0.00  0.00    +0.013 A 
BRANCH  18  19
ATOM     19  C   UNL     1      25.406  -8.961  17.100  0.00  0.00    +0.119 C 
BRANCH  19  20
ATOM     20  N   UNL     1      24.870  -8.765  18.480  0.00  0.00    -0.302 NA
ATOM     21  C   UNL     1      24.005  -7.506  18.586  0.00  0.00    +0.066 C 
ATOM     22  C   UNL     1      23.434  -7.328  20.031  0.00  0.00    -0.064 C 
ATOM     23  N   UNL     1      24.590  -7.276  21.031  0.00  0.00    +0.379 N 
ATOM     24  C   UNL     1      24.060  -7.051  22.383  0.00  0.00    -0.096 C 
ATOM     25  H   UNL     1      25.227  -6.400  20.766  0.00  0.00    -0.082 HD
ATOM     26  C   UNL     1      25.457  -8.523  20.930  0.00  0.00    -0.064 C 
ATOM     27  C   UNL     1      25.995  -8.707  19.483  0.00  0.00    +0.066 C 
ENDBRANCH  19  20
ENDBRANCH  18  19
ENDBRANCH  14  15
ENDBRANCH  12  13
TORSDOF 6
ENDMDL
MODEL 4
REMARK VINA RESULT:      -9.1     24.266     28.871
REMARK  Name = C:\Users\Docking\Desktop\test protocol\1iep_ligandH.pdb
REMARK  8 active torsions:
REMARK  status: ('A' for Active; 'I' for Inactive)
REMARK    1  A    between atoms: _5  and  _11
REMARK    2  A    between atoms: _19  and  _21
REMARK    3  A    between atoms: _22  and  _66
REMARK    4  A    between atoms: _27  and  _30
REMARK    5  A    between atoms: _32  and  _33
REMARK    6  A    between atoms: _38  and  _43
REMARK    7  A    between atoms: _43  and  _46
REMARK    8  A    between atoms: _53  and  _55
REMARK                            x       y       z     vdW  Elec       q    Type
REMARK                         _______ _______ _______ _____ _____    ______ ____
ROOT
ATOM     10  C   UNL     1      23.900 -12.296  15.738  0.00  0.00    +0.038 A 
ATOM     11  C   UNL     1      22.647 -12.357  15.075  0.00  0.00    +0.047 A 
ATOM     12  C   UNL     1      22.509 -13.025  13.790  0.00  0.00    +0.035 A 
ATOM     32  C   UNL     1      23.666 -13.622  13.210  0.00  0.00    +0.024 A 
ATOM     33  C   UNL     1      24.947 -13.568  13.871  0.00  0.00    +0.007 A 
ATOM     34  C   UNL     1      25.090 -12.909  15.137  0.00  0.00    -0.029 A 
ATOM     35  C   UNL     1      26.489 -12.876  15.796  0.00  0.00    +0.045 C 
ENDROOT
BRANCH  10   9
ATOM      4  C   UNL     1      24.344  -8.330  18.405  0.00  0.00    +0.077 A 
ATOM      5  C   UNL     1      24.462  -7.492  17.246  0.00  0.00    +0.048 A 
ATOM      6  C   UNL     1      24.410  -8.122  15.982  0.00  0.00    +0.116 A 
ATOM      7  N   UNL     1      24.252  -9.489  15.896  0.00  0.00    -0.223 NA
ATOM      8  C   UNL     1      24.143 -10.267  17.034  0.00  0.00    +0.220 A 
ATOM      9  N   UNL     1      23.976 -11.642  16.970  0.00  0.00    -0.283 N 
ATOM     36  H   UNL     1      23.907 -12.182  17.833  0.00  0.00    +0.155 HD
ATOM     37  N   UNL     1      24.191  -9.690  18.252  0.00  0.00    -0.214 NA
BRANCH   4   3
ATOM      1  C   UNL     1      23.408  -6.495  21.730  0.00  0.00    +0.020 A 
ATOM      2  C   UNL     1      23.328  -6.968  20.367  0.00  0.00    +0.013 A 
ATOM      3  C   UNL     1      24.377  -7.812  19.809  0.00  0.00    +0.019 A 
ATOM     38  C   UNL     1      25.501  -8.163  20.664  0.00  0.00    +0.120 A 
ATOM     39  N   UNL     1      25.552  -7.692  21.972  0.00  0.00    -0.263 NA
ATOM     40  C   UNL     1      24.549  -6.877  22.519  0.00  0.00    +0.111 A 
ENDBRANCH   4   3
ENDBRANCH  10   9
BRANCH  12  13
ATOM     13  N   UNL     1      21.265 -13.112  13.066  0.00  0.00    -0.281 N 
ATOM     14  C   UNL     1      20.263 -14.058  13.205  0.00  0.00    +0.248 C 
ATOM     30  O   UNL     1      20.380 -15.102  13.829  0.00  0.00    -0.270 OA
ATOM     31  H   UNL     1      21.104 -12.388  12.365  0.00  0.00    +0.155 HD
BRANCH  14  15
ATOM     15  C   UNL     1      18.944 -13.816  12.544  0.00  0.00    +0.037 A 
ATOM     16  C   UNL     1      18.682 -12.581  11.801  0.00  0.00    +0.013 A 
ATOM     17  C   UNL     1      17.396 -12.365  11.187  0.00  0.00    +0.005 A 
ATOM     18  C   UNL     1      16.361 -13.389  11.313  0.00  0.00    -0.033 A 
ATOM     28  C   UNL     1      16.650 -14.607  12.052  0.00  0.00    +0.005 A 
ATOM     29  C   UNL     1      17.909 -14.822  12.656  0.00  0.00    +0.013 A 
BRANCH  18  19
ATOM     19  C   UNL     1      14.953 -13.234  10.709  0.00  0.00    +0.119 C 
BRANCH  19  20
ATOM     20  N   UNL     1      14.673 -11.986   9.939  0.00  0.00    -0.302 NA
ATOM     21  C   UNL     1      13.309 -11.386  10.292  0.00  0.00    +0.066 C 
ATOM     22  C   UNL     1      13.042 -10.069   9.494  0.00  0.00    -0.064 C 
ATOM     23  N   UNL     1      13.135 -10.357   7.995  0.00  0.00    +0.379 N 
ATOM     24  C   UNL     1      12.827  -9.133   7.240  0.00  0.00    -0.096 C 
ATOM     25  H   UNL     1      12.354 -11.112   7.747  0.00  0.00    -0.082 HD
ATOM     26  C   UNL     1      14.487 -10.956   7.634  0.00  0.00    -0.064 C 
ATOM     27  C   UNL     1      14.755 -12.248   8.455  0.00  0.00    +0.066 C 
ENDBRANCH  19  20
ENDBRANCH  18  19
ENDBRANCH  14  15
ENDBRANCH  12  13
TORSDOF 6
ENDMDL
MODEL 5
REMARK VINA RESULT:      -9.1     23.535     26.545
REMARK  Name = C:\Users\Docking\Desktop\test protocol\1iep_ligandH.pdb
REMARK  8 active torsions:
REMARK  status: ('A' for Active; 'I' for Inactive)
REMARK    1  A    between atoms: _5  and  _11
REMARK    2  A    between atoms: _19  and  _21
REMARK    3  A    between atoms: _22  and  _66
REMARK    4  A    between atoms: _27  and  _30
REMARK    5  A    between atoms: _32  and  _33
REMARK    6  A    between atoms: _38  and  _43
REMARK    7  A    between atoms: _43  and  _46
REMARK    8  A    between atoms: _53  and  _55
REMARK                            x       y       z     vdW  Elec       q    Type
REMARK                         _______ _______ _______ _____ _____    ______ ____
ROOT
ATOM     10  C   UNL     1      26.468  -6.796  27.578  0.00  0.00    +0.038 A 
ATOM     11  C   UNL     1      25.863  -7.137  26.341  0.00  0.00    +0.047 A 
ATOM     12  C   UNL     1      26.651  -7.259  25.125  0.00  0.00    +0.035 A 
ATOM     32  C   UNL     1      28.056  -7.030  25.205  0.00  0.00    +0.024 A 
ATOM     33  C   UNL     1      28.688  -6.682  26.454  0.00  0.00    +0.007 A 
ATOM     34  C   UNL     1      27.914  -6.557  27.656  0.00  0.00    -0.029 A 
ATOM     35  C   UNL     1      28.644  -6.175  28.965  0.00  0.00    +0.045 C 
ENDROOT
BRANCH  10   9
ATOM      4  C   UNL     1      24.460  -8.646  31.525  0.00  0.00    +0.077 A 
ATOM      5  C   UNL     1      25.042  -9.936  31.289  0.00  0.00    +0.048 A 
ATOM      6  C   UNL     1      25.847 -10.083  30.136  0.00  0.00    +0.116 A 
ATOM      7  N   UNL     1      26.047  -9.014  29.291  0.00  0.00    -0.223 NA
ATOM      8  C   UNL     1      25.469  -7.784  29.547  0.00  0.00    +0.220 A 
ATOM      9  N   UNL     1      25.663  -6.693  28.714  0.00  0.00    -0.283 N 
ATOM     36  H   UNL     1      25.213  -5.805  28.934  0.00  0.00    +0.155 HD
ATOM     37  N   UNL     1      24.695  -7.618  30.640  0.00  0.00    -0.214 NA
BRANCH   4   3
ATOM      1  C   UNL     1      22.013  -6.834  33.980  0.00  0.00    +0.020 A 
ATOM      2  C   UNL     1      22.840  -7.088  32.823  0.00  0.00    +0.013 A 
ATOM      3  C   UNL     1      23.589  -8.333  32.701  0.00  0.00    +0.019 A 
ATOM     38  C   UNL     1      23.476  -9.308  33.776  0.00  0.00    +0.120 A 
ATOM     39  N   UNL     1      22.673  -9.035  34.878  0.00  0.00    -0.263 NA
ATOM     40  C   UNL     1      21.949  -7.840  35.007  0.00  0.00    +0.111 A 
ENDBRANCH   4   3
ENDBRANCH  10   9
BRANCH  12  13
ATOM     13  N   UNL     1      26.091  -7.595  23.840  0.00  0.00    -0.281 N 
ATOM     14  C   UNL     1      25.147  -6.888  23.112  0.00  0.00    +0.248 C 
ATOM     30  O   UNL     1      24.481  -5.965  23.556  0.00  0.00    -0.270 OA
ATOM     31  H   UNL     1      26.431  -8.458  23.415  0.00  0.00    +0.155 HD
BRANCH  14  15
ATOM     15  C   UNL     1      24.897  -7.272  21.689  0.00  0.00    +0.037 A 
ATOM     16  C   UNL     1      25.954  -7.863  20.865  0.00  0.00    +0.013 A 
ATOM     17  C   UNL     1      25.692  -8.209  19.490  0.00  0.00    +0.005 A 
ATOM     18  C   UNL     1      24.364  -7.965  18.932  0.00  0.00    -0.033 A 
ATOM     28  C   UNL     1      23.332  -7.382  19.774  0.00  0.00    +0.005 A 
ATOM     29  C   UNL     1      23.586  -7.041  21.121  0.00  0.00    +0.013 A 
BRANCH  18  19
ATOM     19  C   UNL     1      24.000  -8.282  17.469  0.00  0.00    +0.119 C 
BRANCH  19  20
ATOM     20  N   UNL     1      24.743  -9.396  16.807  0.00  0.00    -0.302 NA
ATOM     21  C   UNL     1      25.011  -9.107  15.327  0.00  0.00    +0.066 C 
ATOM     22  C   UNL     1      25.809 -10.271  14.655  0.00  0.00    -0.064 C 
ATOM     23  N   UNL     1      25.032 -11.579  14.819  0.00  0.00    +0.379 N 
ATOM     24  C   UNL     1      25.750 -12.665  14.138  0.00  0.00    -0.096 C 
ATOM     25  H   UNL     1      24.048 -11.453  14.310  0.00  0.00    -0.082 HD
ATOM     26  C   UNL     1      24.758 -11.872  16.287  0.00  0.00    -0.064 C 
ATOM     27  C   UNL     1      23.991 -10.696  16.953  0.00  0.00    +0.066 C 
ENDBRANCH  19  20
ENDBRANCH  18  19
ENDBRANCH  14  15
ENDBRANCH  12  13
TORSDOF 6
ENDMDL
