MODEL 1
REMARK VINA RESULT:      -8.6      0.000      0.000
REMARK  Name = C:\Users\Docking\Desktop\test protocol\1iep_ligandH.pdb
REMARK  8 active torsions:
REMARK  status: ('A' for Active; 'I' for Inactive)
REMARK    1  A    between atoms: _5  and  _11
REMARK    2  A    between atoms: _19  and  _21
REMARK    3  A    between atoms: _22  and  _66
REMARK    4  A    between atoms: _27  and  _30
REMARK    5  A    between atoms: _32  and  _33
REMARK    6  A    between atoms: _38  and  _43
REMARK    7  A    between atoms: _43  and  _46
REMARK    8  A    between atoms: _53  and  _55
REMARK                            x       y       z     vdW  Elec       q    Type
REMARK                         _______ _______ _______ _____ _____    ______ ____
ROOT
ATOM     10  C   UNL     1     -12.538   5.822  -7.084  0.00  0.00    +0.038 A 
ATOM     11  C   UNL     1     -12.169   6.365  -5.827  0.00  0.00    +0.047 A 
ATOM     12  C   UNL     1     -12.484   7.742  -5.481  0.00  0.00    +0.035 A 
ATOM     32  C   UNL     1     -13.179   8.538  -6.438  0.00  0.00    +0.024 A 
ATOM     33  C   UNL     1     -13.561   8.002  -7.721  0.00  0.00    +0.007 A 
ATOM     34  C   UNL     1     -13.251   6.645  -8.069  0.00  0.00    -0.029 A 
ATOM     35  C   UNL     1     -13.679   6.126  -9.461  0.00  0.00    +0.045 C 
ENDROOT
BRANCH  10   9
ATOM      4  C   UNL     1      -9.743   2.490  -9.114  0.00  0.00    +0.077 A 
ATOM      5  C   UNL     1      -8.877   3.480  -9.687  0.00  0.00    +0.048 A 
ATOM      6  C   UNL     1      -9.191   4.836  -9.442  0.00  0.00    +0.116 A 
ATOM      7  N   UNL     1     -10.290   5.165  -8.679  0.00  0.00    -0.223 NA
ATOM      8  C   UNL     1     -11.105   4.185  -8.142  0.00  0.00    +0.220 A 
ATOM      9  N   UNL     1     -12.210   4.494  -7.365  0.00  0.00    -0.283 N 
ATOM     36  H   UNL     1     -12.791   3.742  -6.993  0.00  0.00    +0.155 HD
ATOM     37  N   UNL     1     -10.828   2.883  -8.363  0.00  0.00    -0.214 NA
BRANCH   4   3
ATOM      1  C   UNL     1      -9.182  -1.047 -10.689  0.00  0.00    +0.020 A 
ATOM      2  C   UNL     1      -9.373   0.381 -10.583  0.00  0.00    +0.013 A 
ATOM      3  C   UNL     1      -9.542   1.016  -9.281  0.00  0.00    +0.019 A 
ATOM     38  C   UNL     1      -9.511   0.170  -8.098  0.00  0.00    +0.120 A 
ATOM     39  N   UNL     1      -9.327  -1.203  -8.231  0.00  0.00    -0.263 NA
ATOM     40  C   UNL     1      -9.165  -1.824  -9.478  0.00  0.00    +0.111 A 
ENDBRANCH   4   3
ENDBRANCH  10   9
BRANCH  12  13
ATOM     13  N   UNL     1     -12.127   8.351  -4.223  0.00  0.00    -0.281 N 
ATOM     14  C   UNL     1     -12.958   9.000  -3.325  0.00  0.00    +0.248 C 
ATOM     30  O   UNL     1     -14.105   9.344  -3.569  0.00  0.00    -0.270 OA
ATOM     31  H   UNL     1     -11.142   8.296  -3.963  0.00  0.00    +0.155 HD
BRANCH  14  15
ATOM     15  C   UNL     1     -12.436   9.326  -1.963  0.00  0.00    +0.037 A 
ATOM     16  C   UNL     1     -12.110   8.270  -1.001  0.00  0.00    +0.013 A 
ATOM     17  C   UNL     1     -11.624   8.613   0.312  0.00  0.00    +0.005 A 
ATOM     18  C   UNL     1     -11.458  10.020   0.669  0.00  0.00    -0.033 A 
ATOM     28  C   UNL     1     -11.783  11.047  -0.307  0.00  0.00    +0.005 A 
ATOM     29  C   UNL     1     -12.261  10.715  -1.594  0.00  0.00    +0.013 A 
BRANCH  18  19
ATOM     19  C   UNL     1     -10.965  10.479   2.055  0.00  0.00    +0.119 C 
BRANCH  19  20
ATOM     20  N   UNL     1     -11.394  11.831   2.520  0.00  0.00    -0.302 NA
ATOM     21  C   UNL     1     -10.511  12.355   3.656  0.00  0.00    +0.066 C 
ATOM     22  C   UNL     1     -10.961  13.780   4.116  0.00  0.00    -0.064 C 
ATOM     23  N   UNL     1     -12.428  13.735   4.547  0.00  0.00    +0.379 N 
ATOM     24  C   UNL     1     -12.837  15.060   5.034  0.00  0.00    -0.096 C 
ATOM     25  H   UNL     1     -12.507  13.021   5.400  0.00  0.00    -0.082 HD
ATOM     26  C   UNL     1     -13.313  13.212   3.424  0.00  0.00    -0.064 C 
ATOM     27  C   UNL     1     -12.839  11.808   2.955  0.00  0.00    +0.066 C 
ENDBRANCH  19  20
ENDBRANCH  18  19
ENDBRANCH  14  15
ENDBRANCH  12  13
TORSDOF 6
ENDMDL
MODEL 2
REMARK VINA RESULT:      -8.3     18.912     21.114
REMARK  Name = C:\Users\Docking\Desktop\test protocol\1iep_ligandH.pdb
REMARK  8 active torsions:
REMARK  status: ('A' for Active; 'I' for Inactive)
REMARK    1  A    between atoms: _5  and  _11
REMARK    2  A    between atoms: _19  and  _21
REMARK    3  A    between atoms: _22  and  _66
REMARK    4  A    between atoms: _27  and  _30
REMARK    5  A    between atoms: _32  and  _33
REMARK    6  A    between atoms: _38  and  _43
REMARK    7  A    between atoms: _43  and  _46
REMARK    8  A    between atoms: _53  and  _55
REMARK                            x       y       z     vdW  Elec       q    Type
REMARK                         _______ _______ _______ _____ _____    ______ ____
ROOT
ATOM     10  C   UNL     1       2.427  -1.896   8.511  0.00  0.00    +0.038 A 
ATOM     11  C   UNL     1       3.454  -0.928   8.376  0.00  0.00    +0.047 A 
ATOM     12  C   UNL     1       3.563   0.188   9.304  0.00  0.00    +0.035 A 
ATOM     32  C   UNL     1       2.610   0.285  10.359  0.00  0.00    +0.024 A 
ATOM     33  C   UNL     1       1.559  -0.691  10.510  0.00  0.00    +0.007 A 
ATOM     34  C   UNL     1       1.445  -1.792   9.597  0.00  0.00    -0.029 A 
ATOM     35  C   UNL     1       0.294  -2.804   9.804  0.00  0.00    +0.045 C 
ENDROOT
BRANCH  10   9
ATOM      4  C   UNL     1       1.182  -3.734   4.256  0.00  0.00    +0.077 A 
ATOM      5  C   UNL     1       0.572  -2.505   3.837  0.00  0.00    +0.048 A 
ATOM      6  C   UNL     1       0.593  -1.427   4.749  0.00  0.00    +0.116 A 
ATOM      7  N   UNL     1       1.184  -1.577   5.985  0.00  0.00    -0.223 NA
ATOM      8  C   UNL     1       1.762  -2.776   6.358  0.00  0.00    +0.220 A 
ATOM      9  N   UNL     1       2.369  -2.947   7.593  0.00  0.00    -0.283 N 
ATOM     36  H   UNL     1       2.778  -3.849   7.833  0.00  0.00    +0.155 HD
ATOM     37  N   UNL     1       1.754  -3.822   5.505  0.00  0.00    -0.214 NA
BRANCH   4   3
ATOM      1  C   UNL     1       2.409  -7.022   2.527  0.00  0.00    +0.020 A 
ATOM      2  C   UNL     1       2.402  -5.847   3.368  0.00  0.00    +0.013 A 
ATOM      3  C   UNL     1       1.243  -4.963   3.403  0.00  0.00    +0.019 A 
ATOM     38  C   UNL     1       0.100  -5.299   2.568  0.00  0.00    +0.120 A 
ATOM     39  N   UNL     1       0.136  -6.436   1.767  0.00  0.00    -0.263 NA
ATOM     40  C   UNL     1       1.246  -7.293   1.724  0.00  0.00    +0.111 A 
ENDBRANCH   4   3
ENDBRANCH  10   9
BRANCH  12  13
ATOM     13  N   UNL     1       4.579   1.206   9.212  0.00  0.00    -0.281 N 
ATOM     14  C   UNL     1       4.602   2.315   8.381  0.00  0.00    +0.248 C 
ATOM     30  O   UNL     1       3.847   2.485   7.435  0.00  0.00    -0.270 OA
ATOM     31  H   UNL     1       5.380   1.096   9.834  0.00  0.00    +0.155 HD
BRANCH  14  15
ATOM     15  C   UNL     1       5.618   3.382   8.629  0.00  0.00    +0.037 A 
ATOM     16  C   UNL     1       6.099   3.674   9.982  0.00  0.00    +0.013 A 
ATOM     17  C   UNL     1       7.067   4.720  10.195  0.00  0.00    +0.005 A 
ATOM     18  C   UNL     1       7.562   5.483   9.051  0.00  0.00    -0.033 A 
ATOM     28  C   UNL     1       7.071   5.169   7.720  0.00  0.00    +0.005 A 
ATOM     29  C   UNL     1       6.122   4.145   7.507  0.00  0.00    +0.013 A 
BRANCH  18  19
ATOM     19  C   UNL     1       8.579   6.631   9.188  0.00  0.00    +0.119 C 
BRANCH  19  20
ATOM     20  N   UNL     1       8.478   7.754   8.210  0.00  0.00    -0.302 NA
ATOM     21  C   UNL     1       9.736   7.878   7.345  0.00  0.00    +0.066 C 
ATOM     22  C   UNL     1       9.604   9.044   6.312  0.00  0.00    -0.064 C 
ATOM     23  N   UNL     1       9.326  10.352   7.056  0.00  0.00    +0.379 N 
ATOM     24  C   UNL     1       9.259  11.460   6.091  0.00  0.00    -0.096 C 
ATOM     25  H   UNL     1      10.190  10.545   7.733  0.00  0.00    -0.082 HD
ATOM     26  C   UNL     1       8.079  10.237   7.920  0.00  0.00    -0.064 C 
ATOM     27  C   UNL     1       8.209   9.056   8.923  0.00  0.00    +0.066 C 
ENDBRANCH  19  20
ENDBRANCH  18  19
ENDBRANCH  14  15
ENDBRANCH  12  13
TORSDOF 6
ENDMDL
MODEL 3
REMARK VINA RESULT:      -8.2     19.481     21.481
REMARK  Name = C:\Users\Docking\Desktop\test protocol\1iep_ligandH.pdb
REMARK  8 active torsions:
REMARK  status: ('A' for Active; 'I' for Inactive)
REMARK    1  A    between atoms: _5  and  _11
REMARK    2  A    between atoms: _19  and  _21
REMARK    3  A    between atoms: _22  and  _66
REMARK    4  A    between atoms: _27  and  _30
REMARK    5  A    between atoms: _32  and  _33
REMARK    6  A    between atoms: _38  and  _43
REMARK    7  A    between atoms: _43  and  _46
REMARK    8  A    between atoms: _53  and  _55
REMARK                            x       y       z     vdW  Elec       q    Type
REMARK                         _______ _______ _______ _____ _____    ______ ____
ROOT
ATOM     10  C   UNL     1       1.248  -5.882   6.155  0.00  0.00    +0.038 A 
ATOM     11  C   UNL     1       1.698  -4.645   6.683  0.00  0.00    +0.047 A 
ATOM     12  C   UNL     1       2.609  -3.794   5.933  0.00  0.00    +0.035 A 
ATOM     32  C   UNL     1       3.040  -4.233   4.647  0.00  0.00    +0.024 A 
ATOM     33  C   UNL     1       2.593  -5.488   4.096  0.00  0.00    +0.007 A 
ATOM     34  C   UNL     1       1.697  -6.333   4.832  0.00  0.00    -0.029 A 
ATOM     35  C   UNL     1       1.256  -7.671   4.195  0.00  0.00    +0.045 C 
ENDROOT
BRANCH  10   9
ATOM      4  C   UNL     1      -3.164  -7.145   7.560  0.00  0.00    +0.077 A 
ATOM      5  C   UNL     1      -3.778  -6.155   6.723  0.00  0.00    +0.048 A 
ATOM      6  C   UNL     1      -2.923  -5.336   5.953  0.00  0.00    +0.116 A 
ATOM      7  N   UNL     1      -1.557  -5.504   6.021  0.00  0.00    -0.223 NA
ATOM      8  C   UNL     1      -0.997  -6.468   6.840  0.00  0.00    +0.220 A 
ATOM      9  N   UNL     1       0.374  -6.659   6.918  0.00  0.00    -0.283 N 
ATOM     36  H   UNL     1       0.748  -7.376   7.539  0.00  0.00    +0.155 HD
ATOM     37  N   UNL     1      -1.792  -7.261   7.587  0.00  0.00    -0.214 NA
BRANCH   4   3
ATOM      1  C   UNL     1      -6.078  -8.959   9.437  0.00  0.00    +0.020 A 
ATOM      2  C   UNL     1      -5.382  -8.023   8.583  0.00  0.00    +0.013 A 
ATOM      3  C   UNL     1      -3.934  -8.089   8.431  0.00  0.00    +0.019 A 
ATOM     38  C   UNL     1      -3.214  -9.121   9.161  0.00  0.00    +0.120 A 
ATOM     39  N   UNL     1      -3.910 -10.007   9.977  0.00  0.00    -0.263 NA
ATOM     40  C   UNL     1      -5.304  -9.953  10.132  0.00  0.00    +0.111 A 
ENDBRANCH   4   3
ENDBRANCH  10   9
BRANCH  12  13
ATOM     13  N   UNL     1       3.107  -2.531   6.421  0.00  0.00    -0.281 N 
ATOM     14  C   UNL     1       2.544  -1.276   6.261  0.00  0.00    +0.248 C 
ATOM     30  O   UNL     1       1.633  -1.020   5.488  0.00  0.00    -0.270 OA
ATOM     31  H   UNL     1       3.979  -2.568   6.948  0.00  0.00    +0.155 HD
BRANCH  14  15
ATOM     15  C   UNL     1       3.080  -0.137   7.067  0.00  0.00    +0.037 A 
ATOM     16  C   UNL     1       4.096   0.768   6.523  0.00  0.00    +0.013 A 
ATOM     17  C   UNL     1       4.608   1.848   7.328  0.00  0.00    +0.005 A 
ATOM     18  C   UNL     1       4.103   2.031   8.686  0.00  0.00    -0.033 A 
ATOM     28  C   UNL     1       3.091   1.122   9.199  0.00  0.00    +0.005 A 
ATOM     29  C   UNL     1       2.588   0.062   8.414  0.00  0.00    +0.013 A 
BRANCH  18  19
ATOM     19  C   UNL     1       4.608   3.144   9.623  0.00  0.00    +0.119 C 
BRANCH  19  20
ATOM     20  N   UNL     1       6.086   3.326   9.735  0.00  0.00    -0.302 NA
ATOM     21  C   UNL     1       6.575   3.179  11.179  0.00  0.00    +0.066 C 
ATOM     22  C   UNL     1       8.127   3.350  11.274  0.00  0.00    -0.064 C 
ATOM     23  N   UNL     1       8.523   4.713  10.703  0.00  0.00    +0.379 N 
ATOM     24  C   UNL     1       9.974   4.900  10.844  0.00  0.00    -0.096 C 
ATOM     25  H   UNL     1       8.019   5.496  11.317  0.00  0.00    -0.082 HD
ATOM     26  C   UNL     1       8.038   4.868   9.269  0.00  0.00    -0.064 C 
ATOM     27  C   UNL     1       6.499   4.667   9.181  0.00  0.00    +0.066 C 
ENDBRANCH  19  20
ENDBRANCH  18  19
ENDBRANCH  14  15
ENDBRANCH  12  13
TORSDOF 6
ENDMDL
MODEL 4
REMARK VINA RESULT:      -8.2     17.050     22.723
REMARK  Name = C:\Users\Docking\Desktop\test protocol\1iep_ligandH.pdb
REMARK  8 active torsions:
REMARK  status: ('A' for Active; 'I' for Inactive)
REMARK    1  A    between atoms: _5  and  _11
REMARK    2  A    between atoms: _19  and  _21
REMARK    3  A    between atoms: _22  and  _66
REMARK    4  A    between atoms: _27  and  _30
REMARK    5  A    between atoms: _32  and  _33
REMARK    6  A    between atoms: _38  and  _43
REMARK    7  A    between atoms: _43  and  _46
REMARK    8  A    between atoms: _53  and  _55
REMARK                            x       y       z     vdW  Elec       q    Type
REMARK                         _______ _______ _______ _____ _____    ______ ____
ROOT
ATOM     10  C   UNL     1       2.663  -4.353   5.355  0.00  0.00    +0.038 A 
ATOM     11  C   UNL     1       2.683  -4.588   3.957  0.00  0.00    +0.047 A 
ATOM     12  C   UNL     1       2.053  -5.767   3.383  0.00  0.00    +0.035 A 
ATOM     32  C   UNL     1       1.408  -6.685   4.263  0.00  0.00    +0.024 A 
ATOM     33  C   UNL     1       1.380  -6.462   5.688  0.00  0.00    +0.007 A 
ATOM     34  C   UNL     1       2.002  -5.302   6.259  0.00  0.00    -0.029 A 
ATOM     35  C   UNL     1       1.946  -5.117   7.794  0.00  0.00    +0.045 C 
ENDROOT
BRANCH  10   9
ATOM      4  C   UNL     1       2.544   0.184   6.916  0.00  0.00    +0.077 A 
ATOM      5  C   UNL     1       1.129   0.284   6.699  0.00  0.00    +0.048 A 
ATOM      6  C   UNL     1       0.471  -0.852   6.177  0.00  0.00    +0.116 A 
ATOM      7  N   UNL     1       1.184  -1.998   5.898  0.00  0.00    -0.223 NA
ATOM      8  C   UNL     1       2.548  -2.060   6.118  0.00  0.00    +0.220 A 
ATOM      9  N   UNL     1       3.284  -3.205   5.852  0.00  0.00    -0.283 N 
ATOM     36  H   UNL     1       4.289  -3.208   6.021  0.00  0.00    +0.155 HD
ATOM     37  N   UNL     1       3.200  -0.988   6.614  0.00  0.00    -0.214 NA
BRANCH   4   3
ATOM      1  C   UNL     1       3.762   3.254   9.012  0.00  0.00    +0.020 A 
ATOM      2  C   UNL     1       2.914   2.194   8.517  0.00  0.00    +0.013 A 
ATOM      3  C   UNL     1       3.380   1.299   7.465  0.00  0.00    +0.019 A 
ATOM     38  C   UNL     1       4.718   1.504   6.933  0.00  0.00    +0.120 A 
ATOM     39  N   UNL     1       5.511   2.535   7.428  0.00  0.00    -0.263 NA
ATOM     40  C   UNL     1       5.073   3.403   8.439  0.00  0.00    +0.111 A 
ENDBRANCH   4   3
ENDBRANCH  10   9
BRANCH  12  13
ATOM     13  N   UNL     1       2.048  -6.063   1.972  0.00  0.00    -0.281 N 
ATOM     14  C   UNL     1       0.965  -6.072   1.107  0.00  0.00    +0.248 C 
ATOM     30  O   UNL     1      -0.203  -6.034   1.462  0.00  0.00    -0.270 OA
ATOM     31  H   UNL     1       2.952  -6.295   1.560  0.00  0.00    +0.155 HD
BRANCH  14  15
ATOM     15  C   UNL     1       1.217  -6.148  -0.364  0.00  0.00    +0.037 A 
ATOM     16  C   UNL     1       0.292  -5.542  -1.326  0.00  0.00    +0.013 A 
ATOM     17  C   UNL     1       0.550  -5.645  -2.740  0.00  0.00    +0.005 A 
ATOM     18  C   UNL     1       1.740  -6.355  -3.202  0.00  0.00    -0.033 A 
ATOM     28  C   UNL     1       2.644  -6.942  -2.226  0.00  0.00    +0.005 A 
ATOM     29  C   UNL     1       2.394  -6.845  -0.839  0.00  0.00    +0.013 A 
BRANCH  18  19
ATOM     19  C   UNL     1       2.083  -6.532  -4.693  0.00  0.00    +0.119 C 
BRANCH  19  20
ATOM     20  N   UNL     1       0.950  -6.798  -5.628  0.00  0.00    -0.302 NA
ATOM     21  C   UNL     1       0.698  -8.297  -5.814  0.00  0.00    +0.066 C 
ATOM     22  C   UNL     1      -0.505  -8.556  -6.778  0.00  0.00    -0.064 C 
ATOM     23  N   UNL     1      -0.232  -7.882  -8.124  0.00  0.00    +0.379 N 
ATOM     24  C   UNL     1      -1.335  -8.173  -9.051  0.00  0.00    -0.096 C 
ATOM     25  H   UNL     1       0.695  -8.335  -8.547  0.00  0.00    -0.082 HD
ATOM     26  C   UNL     1       0.022  -6.392  -7.947  0.00  0.00    -0.064 C 
ATOM     27  C   UNL     1       1.201  -6.144  -6.965  0.00  0.00    +0.066 C 
ENDBRANCH  19  20
ENDBRANCH  18  19
ENDBRANCH  14  15
ENDBRANCH  12  13
TORSDOF 6
ENDMDL
MODEL 5
REMARK VINA RESULT:      -8.1     19.637     22.411
REMARK  Name = C:\Users\Docking\Desktop\test protocol\1iep_ligandH.pdb
REMARK  8 active torsions:
REMARK  status: ('A' for Active; 'I' for Inactive)
REMARK    1  A    between atoms: _5  and  _11
REMARK    2  A    between atoms: _19  and  _21
REMARK    3  A    between atoms: _22  and  _66
REMARK    4  A    between atoms: _27  and  _30
REMARK    5  A    between atoms: _32  and  _33
REMARK    6  A    between atoms: _38  and  _43
REMARK    7  A    between atoms: _43  and  _46
REMARK    8  A    between atoms: _53  and  _55
REMARK                            x       y       z     vdW  Elec       q    Type
REMARK                         _______ _______ _______ _____ _____    ______ ____
ROOT
ATOM     10  C   UNL     1       5.392   4.161  -2.264  0.00  0.00    +0.038 A 
ATOM     11  C   UNL     1       6.408   3.690  -1.394  0.00  0.00    +0.047 A 
ATOM     12  C   UNL     1       7.063   2.411  -1.624  0.00  0.00    +0.035 A 
ATOM     32  C   UNL     1       6.659   1.639  -2.752  0.00  0.00    +0.024 A 
ATOM     33  C   UNL     1       5.627   2.103  -3.646  0.00  0.00    +0.007 A 
ATOM     34  C   UNL     1       4.976   3.362  -3.423  0.00  0.00    -0.029 A 
ATOM     35  C   UNL     1       3.871   3.806  -4.410  0.00  0.00    +0.045 C 
ENDROOT
BRANCH  10   9
ATOM      4  C   UNL     1       1.912   6.856  -0.349  0.00  0.00    +0.077 A 
ATOM      5  C   UNL     1       1.204   5.705   0.133  0.00  0.00    +0.048 A 
ATOM      6  C   UNL     1       1.766   4.437  -0.139  0.00  0.00    +0.116 A 
ATOM      7  N   UNL     1       2.948   4.340  -0.841  0.00  0.00    -0.223 NA
ATOM      8  C   UNL     1       3.604   5.470  -1.294  0.00  0.00    +0.220 A 
ATOM      9  N   UNL     1       4.797   5.396  -1.995  0.00  0.00    -0.283 N 
ATOM     36  H   UNL     1       5.246   6.252  -2.318  0.00  0.00    +0.155 HD
ATOM     37  N   UNL     1       3.087   6.692  -1.048  0.00  0.00    -0.214 NA
BRANCH   4   3
ATOM      1  C   UNL     1       1.138  10.328   1.277  0.00  0.00    +0.020 A 
ATOM      2  C   UNL     1       1.604   8.969   1.127  0.00  0.00    +0.013 A 
ATOM      3  C   UNL     1       1.447   8.263  -0.139  0.00  0.00    +0.019 A 
ATOM     38  C   UNL     1       0.810   8.968  -1.242  0.00  0.00    +0.120 A 
ATOM     39  N   UNL     1       0.370  10.276  -1.067  0.00  0.00    -0.263 NA
ATOM     40  C   UNL     1       0.514  10.964   0.147  0.00  0.00    +0.111 A 
ENDBRANCH   4   3
ENDBRANCH  10   9
BRANCH  12  13
ATOM     13  N   UNL     1       8.095   1.877  -0.771  0.00  0.00    -0.281 N 
ATOM     14  C   UNL     1       7.999   0.828   0.128  0.00  0.00    +0.248 C 
ATOM     30  O   UNL     1       6.946   0.324   0.492  0.00  0.00    -0.270 OA
ATOM     31  H   UNL     1       9.008   2.328  -0.837  0.00  0.00    +0.155 HD
BRANCH  14  15
ATOM     15  C   UNL     1       9.251   0.266   0.719  0.00  0.00    +0.037 A 
ATOM     16  C   UNL     1       9.246  -0.388   2.030  0.00  0.00    +0.013 A 
ATOM     17  C   UNL     1      10.471  -0.906   2.585  0.00  0.00    +0.005 A 
ATOM     18  C   UNL     1      11.713  -0.773   1.827  0.00  0.00    -0.033 A 
ATOM     28  C   UNL     1      11.689  -0.124   0.527  0.00  0.00    +0.005 A 
ATOM     29  C   UNL     1      10.490   0.386  -0.020  0.00  0.00    +0.013 A 
BRANCH  18  19
ATOM     19  C   UNL     1      13.071  -1.277   2.351  0.00  0.00    +0.119 C 
BRANCH  19  20
ATOM     20  N   UNL     1      13.092  -1.897   3.710  0.00  0.00    -0.302 NA
ATOM     21  C   UNL     1      13.369  -0.866   4.807  0.00  0.00    +0.066 C 
ATOM     22  C   UNL     1      13.365  -1.527   6.224  0.00  0.00    -0.064 C 
ATOM     23  N   UNL     1      14.403  -2.651   6.262  0.00  0.00    +0.379 N 
ATOM     24  C   UNL     1      14.443  -3.236   7.610  0.00  0.00    -0.096 C 
ATOM     25  H   UNL     1      15.401  -2.196   6.061  0.00  0.00    -0.082 HD
ATOM     26  C   UNL     1      14.136  -3.679   5.172  0.00  0.00    -0.064 C 
ATOM     27  C   UNL     1      14.113  -3.006   3.771  0.00  0.00    +0.066 C 
ENDBRANCH  19  20
ENDBRANCH  18  19
ENDBRANCH  14  15
ENDBRANCH  12  13
TORSDOF 6
ENDMDL
