MODEL 1
REMARK VINA RESULT:     -10.2      0.000      0.000
REMARK  Name = C:\Users\Docking\Desktop\test protocol\1iep_ligandH.pdb
REMARK  8 active torsions:
REMARK  status: ('A' for Active; 'I' for Inactive)
REMARK    1  A    between atoms: _5  and  _11
REMARK    2  A    between atoms: _19  and  _21
REMARK    3  A    between atoms: _22  and  _66
REMARK    4  A    between atoms: _27  and  _30
REMARK    5  A    between atoms: _32  and  _33
REMARK    6  A    between atoms: _38  and  _43
REMARK    7  A    between atoms: _43  and  _46
REMARK    8  A    between atoms: _53  and  _55
REMARK                            x       y       z     vdW  Elec       q    Type
REMARK                         _______ _______ _______ _____ _____    ______ ____
ROOT
ATOM     10  C   UNL     1     120.618 113.260  29.524  0.00  0.00    +0.038 A 
ATOM     11  C   UNL     1     119.377 112.873  30.090  0.00  0.00    +0.047 A 
ATOM     12  C   UNL     1     118.374 113.863  30.452  0.00  0.00    +0.035 A 
ATOM     32  C   UNL     1     118.667 115.238  30.221  0.00  0.00    +0.024 A 
ATOM     33  C   UNL     1     119.925 115.649  29.647  0.00  0.00    +0.007 A 
ATOM     34  C   UNL     1     120.919 114.678  29.291  0.00  0.00    -0.029 A 
ATOM     35  C   UNL     1     122.252 115.176  28.685  0.00  0.00    +0.045 C 
ENDROOT
BRANCH  10   9
ATOM      4  C   UNL     1     124.510 110.619  30.483  0.00  0.00    +0.077 A 
ATOM      5  C   UNL     1     124.731 111.290  31.731  0.00  0.00    +0.048 A 
ATOM      6  C   UNL     1     123.824 112.315  32.086  0.00  0.00    +0.116 A 
ATOM      7  N   UNL     1     122.778 112.635  31.248  0.00  0.00    -0.223 NA
ATOM      8  C   UNL     1     122.595 111.968  30.050  0.00  0.00    +0.220 A 
ATOM      9  N   UNL     1     121.545 112.268  29.196  0.00  0.00    -0.283 N 
ATOM     36  H   UNL     1     121.448 111.759  28.318  0.00  0.00    +0.155 HD
ATOM     37  N   UNL     1     123.447 110.987  29.688  0.00  0.00    -0.214 NA
BRANCH   4   3
ATOM      1  C   UNL     1     125.884 107.077  29.551  0.00  0.00    +0.020 A 
ATOM      2  C   UNL     1     125.008 108.106  30.062  0.00  0.00    +0.013 A 
ATOM      3  C   UNL     1     125.379 109.513  29.970  0.00  0.00    +0.019 A 
ATOM     38  C   UNL     1     126.652 109.847  29.350  0.00  0.00    +0.120 A 
ATOM     39  N   UNL     1     127.476 108.834  28.868  0.00  0.00    -0.263 NA
ATOM     40  C   UNL     1     127.130 107.477  28.952  0.00  0.00    +0.111 A 
ENDBRANCH   4   3
ENDBRANCH  10   9
BRANCH  12  13
ATOM     13  N   UNL     1     117.099 113.530  31.037  0.00  0.00    -0.281 N 
ATOM     14  C   UNL     1     116.633 113.850  32.302  0.00  0.00    +0.248 C 
ATOM     30  O   UNL     1     117.330 114.290  33.204  0.00  0.00    -0.270 OA
ATOM     31  H   UNL     1     116.462 112.994  30.448  0.00  0.00    +0.155 HD
BRANCH  14  15
ATOM     15  C   UNL     1     115.187 113.637  32.614  0.00  0.00    +0.037 A 
ATOM     16  C   UNL     1     114.631 112.288  32.757  0.00  0.00    +0.013 A 
ATOM     17  C   UNL     1     113.229 112.110  33.042  0.00  0.00    +0.005 A 
ATOM     18  C   UNL     1     112.373 113.285  33.187  0.00  0.00    -0.033 A 
ATOM     28  C   UNL     1     112.952 114.611  33.045  0.00  0.00    +0.005 A 
ATOM     29  C   UNL     1     114.325 114.789  32.765  0.00  0.00    +0.013 A 
BRANCH  18  19
ATOM     19  C   UNL     1     110.862 113.189  33.470  0.00  0.00    +0.119 C 
BRANCH  19  20
ATOM     20  N   UNL     1     109.954 113.050  32.293  0.00  0.00    -0.302 NA
ATOM     21  C   UNL     1     109.481 114.409  31.768  0.00  0.00    +0.066 C 
ATOM     22  C   UNL     1     108.550 114.246  30.523  0.00  0.00    -0.064 C 
ATOM     23  N   UNL     1     107.357 113.364  30.894  0.00  0.00    +0.379 N 
ATOM     24  C   UNL     1     106.449 113.257  29.743  0.00  0.00    -0.096 C 
ATOM     25  H   UNL     1     106.802 113.875  31.716  0.00  0.00    -0.082 HD
ATOM     26  C   UNL     1     107.817 112.012  31.420  0.00  0.00    -0.064 C 
ATOM     27  C   UNL     1     108.766 112.186  32.638  0.00  0.00    +0.066 C 
ENDBRANCH  19  20
ENDBRANCH  18  19
ENDBRANCH  14  15
ENDBRANCH  12  13
TORSDOF 6
ENDMDL
MODEL 2
REMARK VINA RESULT:      -9.9      1.488      1.995
REMARK  Name = C:\Users\Docking\Desktop\test protocol\1iep_ligandH.pdb
REMARK  8 active torsions:
REMARK  status: ('A' for Active; 'I' for Inactive)
REMARK    1  A    between atoms: _5  and  _11
REMARK    2  A    between atoms: _19  and  _21
REMARK    3  A    between atoms: _22  and  _66
REMARK    4  A    between atoms: _27  and  _30
REMARK    5  A    between atoms: _32  and  _33
REMARK    6  A    between atoms: _38  and  _43
REMARK    7  A    between atoms: _43  and  _46
REMARK    8  A    between atoms: _53  and  _55
REMARK                            x       y       z     vdW  Elec       q    Type
REMARK                         _______ _______ _______ _____ _____    ______ ____
ROOT
ATOM     10  C   UNL     1     119.942 113.080  29.927  0.00  0.00    +0.038 A 
ATOM     11  C   UNL     1     118.628 112.817  30.390  0.00  0.00    +0.047 A 
ATOM     12  C   UNL     1     117.701 113.900  30.678  0.00  0.00    +0.035 A 
ATOM     32  C   UNL     1     118.145 115.240  30.479  0.00  0.00    +0.024 A 
ATOM     33  C   UNL     1     119.478 115.525  30.009  0.00  0.00    +0.007 A 
ATOM     34  C   UNL     1     120.398 114.461  29.726  0.00  0.00    -0.029 A 
ATOM     35  C   UNL     1     121.816 114.826  29.231  0.00  0.00    +0.045 C 
ENDROOT
BRANCH  10   9
ATOM      4  C   UNL     1     123.143 109.782  31.312  0.00  0.00    +0.077 A 
ATOM      5  C   UNL     1     123.145 110.265  32.662  0.00  0.00    +0.048 A 
ATOM      6  C   UNL     1     122.314 111.369  32.958  0.00  0.00    +0.116 A 
ATOM      7  N   UNL     1     121.542 111.939  31.968  0.00  0.00    -0.223 NA
ATOM      8  C   UNL     1     121.565 111.449  30.675  0.00  0.00    +0.220 A 
ATOM      9  N   UNL     1     120.791 112.001  29.666  0.00  0.00    -0.283 N 
ATOM     36  H   UNL     1     120.842 111.616  28.724  0.00  0.00    +0.155 HD
ATOM     37  N   UNL     1     122.351 110.397  30.367  0.00  0.00    -0.214 NA
BRANCH   4   3
ATOM      1  C   UNL     1     125.723 107.578  29.366  0.00  0.00    +0.020 A 
ATOM      2  C   UNL     1     124.954 108.729  29.779  0.00  0.00    +0.013 A 
ATOM      3  C   UNL     1     123.966 108.622  30.845  0.00  0.00    +0.019 A 
ATOM     38  C   UNL     1     123.778 107.325  31.477  0.00  0.00    +0.120 A 
ATOM     39  N   UNL     1     124.532 106.233  31.057  0.00  0.00    -0.263 NA
ATOM     40  C   UNL     1     125.485 106.324  30.032  0.00  0.00    +0.111 A 
ENDBRANCH   4   3
ENDBRANCH  10   9
BRANCH  12  13
ATOM     13  N   UNL     1     116.357 113.695  31.159  0.00  0.00    -0.281 N 
ATOM     14  C   UNL     1     115.958 113.085  32.337  0.00  0.00    +0.248 C 
ATOM     30  O   UNL     1     116.694 112.430  33.059  0.00  0.00    -0.270 OA
ATOM     31  H   UNL     1     115.609 114.041  30.557  0.00  0.00    +0.155 HD
BRANCH  14  15
ATOM     15  C   UNL     1     114.532 113.209  32.767  0.00  0.00    +0.037 A 
ATOM     16  C   UNL     1     113.868 114.514  32.829  0.00  0.00    +0.013 A 
ATOM     17  C   UNL     1     112.497 114.607  33.264  0.00  0.00    +0.005 A 
ATOM     18  C   UNL     1     111.780 113.391  33.639  0.00  0.00    -0.033 A 
ATOM     28  C   UNL     1     112.462 112.109  33.563  0.00  0.00    +0.005 A 
ATOM     29  C   UNL     1     113.806 112.014  33.138  0.00  0.00    +0.013 A 
BRANCH  18  19
ATOM     19  C   UNL     1     110.322 113.398  34.135  0.00  0.00    +0.119 C 
BRANCH  19  20
ATOM     20  N   UNL     1     109.273 113.839  33.167  0.00  0.00    -0.302 NA
ATOM     21  C   UNL     1     109.660 113.528  31.719  0.00  0.00    +0.066 C 
ATOM     22  C   UNL     1     108.542 113.976  30.722  0.00  0.00    -0.064 C 
ATOM     23  N   UNL     1     108.271 115.470  30.901  0.00  0.00    +0.379 N 
ATOM     24  C   UNL     1     107.262 115.906  29.926  0.00  0.00    -0.096 C 
ATOM     25  H   UNL     1     109.218 116.015  30.675  0.00  0.00    -0.082 HD
ATOM     26  C   UNL     1     107.888 115.789  32.339  0.00  0.00    -0.064 C 
ATOM     27  C   UNL     1     108.993 115.314  33.324  0.00  0.00    +0.066 C 
ENDBRANCH  19  20
ENDBRANCH  18  19
ENDBRANCH  14  15
ENDBRANCH  12  13
TORSDOF 6
ENDMDL
MODEL 3
REMARK VINA RESULT:      -9.4      2.260      3.097
REMARK  Name = C:\Users\Docking\Desktop\test protocol\1iep_ligandH.pdb
REMARK  8 active torsions:
REMARK  status: ('A' for Active; 'I' for Inactive)
REMARK    1  A    between atoms: _5  and  _11
REMARK    2  A    between atoms: _19  and  _21
REMARK    3  A    between atoms: _22  and  _66
REMARK    4  A    between atoms: _27  and  _30
REMARK    5  A    between atoms: _32  and  _33
REMARK    6  A    between atoms: _38  and  _43
REMARK    7  A    between atoms: _43  and  _46
REMARK    8  A    between atoms: _53  and  _55
REMARK                            x       y       z     vdW  Elec       q    Type
REMARK                         _______ _______ _______ _____ _____    ______ ____
ROOT
ATOM     10  C   UNL     1     119.631 113.011  30.113  0.00  0.00    +0.038 A 
ATOM     11  C   UNL     1     118.356 112.607  30.586  0.00  0.00    +0.047 A 
ATOM     12  C   UNL     1     117.348 113.585  30.962  0.00  0.00    +0.035 A 
ATOM     32  C   UNL     1     117.671 114.968  30.842  0.00  0.00    +0.024 A 
ATOM     33  C   UNL     1     118.962 115.397  30.364  0.00  0.00    +0.007 A 
ATOM     34  C   UNL     1     119.961 114.436  29.994  0.00  0.00    -0.029 A 
ATOM     35  C   UNL     1     121.331 114.953  29.495  0.00  0.00    +0.045 C 
ENDROOT
BRANCH  10   9
ATOM      4  C   UNL     1     123.200 109.990  31.196  0.00  0.00    +0.077 A 
ATOM      5  C   UNL     1     123.233 110.425  32.562  0.00  0.00    +0.048 A 
ATOM      6  C   UNL     1     122.319 111.433  32.945  0.00  0.00    +0.116 A 
ATOM      7  N   UNL     1     121.443 111.959  32.021  0.00  0.00    -0.223 NA
ATOM      8  C   UNL     1     121.439 111.519  30.710  0.00  0.00    +0.220 A 
ATOM      9  N   UNL     1     120.561 112.029  29.766  0.00  0.00    -0.283 N 
ATOM     36  H   UNL     1     120.595 111.683  28.807  0.00  0.00    +0.155 HD
ATOM     37  N   UNL     1     122.302 110.559  30.320  0.00  0.00    -0.214 NA
BRANCH   4   3
ATOM      1  C   UNL     1     124.890 106.543  30.447  0.00  0.00    +0.020 A 
ATOM      2  C   UNL     1     123.996 107.526  31.014  0.00  0.00    +0.013 A 
ATOM      3  C   UNL     1     124.101 108.931  30.640  0.00  0.00    +0.019 A 
ATOM     38  C   UNL     1     125.129 109.311  29.683  0.00  0.00    +0.120 A 
ATOM     39  N   UNL     1     125.977 108.342  29.155  0.00  0.00    -0.263 NA
ATOM     40  C   UNL     1     125.887 106.988  29.509  0.00  0.00    +0.111 A 
ENDBRANCH   4   3
ENDBRANCH  10   9
BRANCH  12  13
ATOM     13  N   UNL     1     116.039 113.234  31.455  0.00  0.00    -0.281 N 
ATOM     14  C   UNL     1     115.636 113.094  32.773  0.00  0.00    +0.248 C 
ATOM     30  O   UNL     1     116.397 113.041  33.727  0.00  0.00    -0.270 OA
ATOM     31  H   UNL     1     115.324 113.069  30.747  0.00  0.00    +0.155 HD
BRANCH  14  15
ATOM     15  C   UNL     1     114.176 112.983  33.073  0.00  0.00    +0.037 A 
ATOM     16  C   UNL     1     113.296 114.153  33.013  0.00  0.00    +0.013 A 
ATOM     17  C   UNL     1     111.895 114.021  33.324  0.00  0.00    +0.005 A 
ATOM     18  C   UNL     1     111.364 112.712  33.696  0.00  0.00    -0.033 A 
ATOM     28  C   UNL     1     112.258 111.567  33.743  0.00  0.00    +0.005 A 
ATOM     29  C   UNL     1     113.632 111.692  33.440  0.00  0.00    +0.013 A 
BRANCH  18  19
ATOM     19  C   UNL     1     109.886 112.482  34.064  0.00  0.00    +0.119 C 
BRANCH  19  20
ATOM     20  N   UNL     1     109.564 111.276  34.883  0.00  0.00    -0.302 NA
ATOM     21  C   UNL     1     108.178 110.713  34.558  0.00  0.00    +0.066 C 
ATOM     22  C   UNL     1     107.867 109.438  35.408  0.00  0.00    -0.064 C 
ATOM     23  N   UNL     1     107.978 109.780  36.895  0.00  0.00    +0.379 N 
ATOM     24  C   UNL     1     107.630 108.599  37.697  0.00  0.00    -0.096 C 
ATOM     25  H   UNL     1     107.226 110.573  37.116  0.00  0.00    -0.082 HD
ATOM     26  C   UNL     1     109.353 110.343  37.226  0.00  0.00    -0.064 C 
ATOM     27  C   UNL     1     109.664 111.592  36.355  0.00  0.00    +0.066 C 
ENDBRANCH  19  20
ENDBRANCH  18  19
ENDBRANCH  14  15
ENDBRANCH  12  13
TORSDOF 6
ENDMDL
MODEL 4
REMARK VINA RESULT:      -9.3      7.385      9.965
REMARK  Name = C:\Users\Docking\Desktop\test protocol\1iep_ligandH.pdb
REMARK  8 active torsions:
REMARK  status: ('A' for Active; 'I' for Inactive)
REMARK    1  A    between atoms: _5  and  _11
REMARK    2  A    between atoms: _19  and  _21
REMARK    3  A    between atoms: _22  and  _66
REMARK    4  A    between atoms: _27  and  _30
REMARK    5  A    between atoms: _32  and  _33
REMARK    6  A    between atoms: _38  and  _43
REMARK    7  A    between atoms: _43  and  _46
REMARK    8  A    between atoms: _53  and  _55
REMARK                            x       y       z     vdW  Elec       q    Type
REMARK                         _______ _______ _______ _____ _____    ______ ____
ROOT
ATOM     10  C   UNL     1     122.475 110.788  32.314  0.00  0.00    +0.038 A 
ATOM     11  C   UNL     1     122.402 110.292  33.641  0.00  0.00    +0.047 A 
ATOM     12  C   UNL     1     121.121 110.095  34.301  0.00  0.00    +0.035 A 
ATOM     32  C   UNL     1     119.933 110.411  33.579  0.00  0.00    +0.024 A 
ATOM     33  C   UNL     1     119.989 110.917  32.230  0.00  0.00    +0.007 A 
ATOM     34  C   UNL     1     121.250 111.115  31.575  0.00  0.00    -0.029 A 
ATOM     35  C   UNL     1     121.251 111.666  30.130  0.00  0.00    +0.045 C 
ENDROOT
BRANCH  10   9
ATOM      4  C   UNL     1     126.095 109.276  29.548  0.00  0.00    +0.077 A 
ATOM      5  C   UNL     1     125.438 108.032  29.267  0.00  0.00    +0.048 A 
ATOM      6  C   UNL     1     124.174 107.817  29.859  0.00  0.00    +0.116 A 
ATOM      7  N   UNL     1     123.617 108.782  30.670  0.00  0.00    -0.223 NA
ATOM      8  C   UNL     1     124.277 109.970  30.923  0.00  0.00    +0.220 A 
ATOM      9  N   UNL     1     123.732 110.957  31.729  0.00  0.00    -0.283 N 
ATOM     36  H   UNL     1     124.254 111.817  31.897  0.00  0.00    +0.155 HD
ATOM     37  N   UNL     1     125.487 110.199  30.370  0.00  0.00    -0.214 NA
BRANCH   4   3
ATOM      1  C   UNL     1     129.785 109.103  28.261  0.00  0.00    +0.020 A 
ATOM      2  C   UNL     1     128.510 108.688  28.801  0.00  0.00    +0.013 A 
ATOM      3  C   UNL     1     127.434 109.652  28.994  0.00  0.00    +0.019 A 
ATOM     38  C   UNL     1     127.682 111.038  28.627  0.00  0.00    +0.120 A 
ATOM     39  N   UNL     1     128.920 111.409  28.111  0.00  0.00    -0.263 NA
ATOM     40  C   UNL     1     129.963 110.490  27.923  0.00  0.00    +0.111 A 
ENDBRANCH   4   3
ENDBRANCH  10   9
BRANCH  12  13
ATOM     13  N   UNL     1     120.985 109.603  35.650  0.00  0.00    -0.281 N 
ATOM     14  C   UNL     1     121.684 108.571  36.254  0.00  0.00    +0.248 C 
ATOM     30  O   UNL     1     122.389 107.771  35.657  0.00  0.00    -0.270 OA
ATOM     31  H   UNL     1     120.287 110.071  36.229  0.00  0.00    +0.155 HD
BRANCH  14  15
ATOM     15  C   UNL     1     121.575 108.395  37.735  0.00  0.00    +0.037 A 
ATOM     16  C   UNL     1     120.575 107.498  38.321  0.00  0.00    +0.013 A 
ATOM     17  C   UNL     1     120.479 107.359  39.752  0.00  0.00    +0.005 A 
ATOM     18  C   UNL     1     121.388 108.119  40.608  0.00  0.00    -0.033 A 
ATOM     28  C   UNL     1     122.373 108.997  40.000  0.00  0.00    +0.005 A 
ATOM     29  C   UNL     1     122.470 109.137  38.597  0.00  0.00    +0.013 A 
BRANCH  18  19
ATOM     19  C   UNL     1     121.343 108.049  42.146  0.00  0.00    +0.119 C 
BRANCH  19  20
ATOM     20  N   UNL     1     120.313 108.879  42.839  0.00  0.00    -0.302 NA
ATOM     21  C   UNL     1     120.836 110.277  43.179  0.00  0.00    +0.066 C 
ATOM     22  C   UNL     1     119.738 111.140  43.882  0.00  0.00    -0.064 C 
ATOM     23  N   UNL     1     119.258 110.420  45.144  0.00  0.00    +0.379 N 
ATOM     24  C   UNL     1     118.268 111.255  45.839  0.00  0.00    -0.096 C 
ATOM     25  H   UNL     1     120.137 110.302  45.820  0.00  0.00    -0.082 HD
ATOM     26  C   UNL     1     118.739 109.027  44.815  0.00  0.00    -0.064 C 
ATOM     27  C   UNL     1     119.828 108.188  44.090  0.00  0.00    +0.066 C 
ENDBRANCH  19  20
ENDBRANCH  18  19
ENDBRANCH  14  15
ENDBRANCH  12  13
TORSDOF 6
ENDMDL
MODEL 5
REMARK VINA RESULT:      -8.9     10.646     12.421
REMARK  Name = C:\Users\Docking\Desktop\test protocol\1iep_ligandH.pdb
REMARK  8 active torsions:
REMARK  status: ('A' for Active; 'I' for Inactive)
REMARK    1  A    between atoms: _5  and  _11
REMARK    2  A    between atoms: _19  and  _21
REMARK    3  A    between atoms: _22  and  _66
REMARK    4  A    between atoms: _27  and  _30
REMARK    5  A    between atoms: _32  and  _33
REMARK    6  A    between atoms: _38  and  _43
REMARK    7  A    between atoms: _43  and  _46
REMARK    8  A    between atoms: _53  and  _55
REMARK                            x       y       z     vdW  Elec       q    Type
REMARK                         _______ _______ _______ _____ _____    ______ ____
ROOT
ATOM     10  C   UNL     1     120.629 109.197  36.024  0.00  0.00    +0.038 A 
ATOM     11  C   UNL     1     120.833 108.157  36.966  0.00  0.00    +0.047 A 
ATOM     12  C   UNL     1     119.854 107.879  38.005  0.00  0.00    +0.035 A 
ATOM     32  C   UNL     1     118.675 108.679  38.053  0.00  0.00    +0.024 A 
ATOM     33  C   UNL     1     118.451 109.741  37.103  0.00  0.00    +0.007 A 
ATOM     34  C   UNL     1     119.415 110.021  36.078  0.00  0.00    -0.029 A 
ATOM     35  C   UNL     1     119.126 111.176  35.091  0.00  0.00    +0.045 C 
ENDROOT
BRANCH  10   9
ATOM      4  C   UNL     1     122.928 107.993  31.987  0.00  0.00    +0.077 A 
ATOM      5  C   UNL     1     122.141 106.805  31.823  0.00  0.00    +0.048 A 
ATOM      6  C   UNL     1     121.160 106.536  32.803  0.00  0.00    +0.116 A 
ATOM      7  N   UNL     1     120.987 107.399  33.864  0.00  0.00    -0.223 NA
ATOM      8  C   UNL     1     121.765 108.535  33.993  0.00  0.00    +0.220 A 
ATOM      9  N   UNL     1     121.603 109.420  35.048  0.00  0.00    -0.283 N 
ATOM     36  H   UNL     1     122.201 110.244  35.111  0.00  0.00    +0.155 HD
ATOM     37  N   UNL     1     122.709 108.813  33.071  0.00  0.00    -0.214 NA
BRANCH   4   3
ATOM      1  C   UNL     1     125.425 110.162  29.898  0.00  0.00    +0.020 A 
ATOM      2  C   UNL     1     124.380 109.808  30.831  0.00  0.00    +0.013 A 
ATOM      3  C   UNL     1     124.002 108.415  31.033  0.00  0.00    +0.019 A 
ATOM     38  C   UNL     1     124.707 107.396  30.269  0.00  0.00    +0.120 A 
ATOM     39  N   UNL     1     125.707 107.768  29.376  0.00  0.00    -0.263 NA
ATOM     40  C   UNL     1     126.078 109.105  29.172  0.00  0.00    +0.111 A 
ENDBRANCH   4   3
ENDBRANCH  10   9
BRANCH  12  13
ATOM     13  N   UNL     1     120.011 106.842  38.994  0.00  0.00    -0.281 N 
ATOM     14  C   UNL     1     120.394 106.979  40.318  0.00  0.00    +0.248 C 
ATOM     30  O   UNL     1     120.869 107.997  40.798  0.00  0.00    -0.270 OA
ATOM     31  H   UNL     1     119.816 105.891  38.680  0.00  0.00    +0.155 HD
BRANCH  14  15
ATOM     15  C   UNL     1     120.241 105.811  41.238  0.00  0.00    +0.037 A 
ATOM     16  C   UNL     1     119.801 105.989  42.625  0.00  0.00    +0.013 A 
ATOM     17  C   UNL     1     119.678 104.847  43.496  0.00  0.00    +0.005 A 
ATOM     18  C   UNL     1     119.994 103.517  42.982  0.00  0.00    -0.033 A 
ATOM     28  C   UNL     1     120.423 103.368  41.602  0.00  0.00    +0.005 A 
ATOM     29  C   UNL     1     120.546 104.485  40.745  0.00  0.00    +0.013 A 
BRANCH  18  19
ATOM     19  C   UNL     1     119.911 102.245  43.847  0.00  0.00    +0.119 C 
BRANCH  19  20
ATOM     20  N   UNL     1     118.764 101.322  43.597  0.00  0.00    -0.302 NA
ATOM     21  C   UNL     1     118.095 100.871  44.899  0.00  0.00    +0.066 C 
ATOM     22  C   UNL     1     116.884  99.924  44.618  0.00  0.00    -0.064 C 
ATOM     23  N   UNL     1     117.361  98.717  43.808  0.00  0.00    +0.379 N 
ATOM     24  C   UNL     1     116.235  97.795  43.592  0.00  0.00    -0.096 C 
ATOM     25  H   UNL     1     118.124  98.181  44.418  0.00  0.00    -0.082 HD
ATOM     26  C   UNL     1     118.029  99.156  42.513  0.00  0.00    -0.064 C 
ATOM     27  C   UNL     1     119.214 100.120  42.802  0.00  0.00    +0.066 C 
ENDBRANCH  19  20
ENDBRANCH  18  19
ENDBRANCH  14  15
ENDBRANCH  12  13
TORSDOF 6
ENDMDL
