MODEL 1
REMARK VINA RESULT:      -8.3      0.000      0.000
REMARK  Name = C:\Users\Docking\Desktop\test protocol\1iep_ligandH.pdb
REMARK  8 active torsions:
REMARK  status: ('A' for Active; 'I' for Inactive)
REMARK    1  A    between atoms: _5  and  _11
REMARK    2  A    between atoms: _19  and  _21
REMARK    3  A    between atoms: _22  and  _66
REMARK    4  A    between atoms: _27  and  _30
REMARK    5  A    between atoms: _32  and  _33
REMARK    6  A    between atoms: _38  and  _43
REMARK    7  A    between atoms: _43  and  _46
REMARK    8  A    between atoms: _53  and  _55
REMARK                            x       y       z     vdW  Elec       q    Type
REMARK                         _______ _______ _______ _____ _____    ______ ____
ROOT
ATOM     10  C   UNL     1     127.804  90.056  48.508  0.00  0.00    +0.038 A 
ATOM     11  C   UNL     1     127.912  89.359  47.278  0.00  0.00    +0.047 A 
ATOM     12  C   UNL     1     126.735  89.064  46.475  0.00  0.00    +0.035 A 
ATOM     32  C   UNL     1     125.464  89.496  46.955  0.00  0.00    +0.024 A 
ATOM     33  C   UNL     1     125.337  90.205  48.204  0.00  0.00    +0.007 A 
ATOM     34  C   UNL     1     126.494  90.497  49.001  0.00  0.00    -0.029 A 
ATOM     35  C   UNL     1     126.297  91.254  50.335  0.00  0.00    +0.045 C 
ENDROOT
BRANCH  10   9
ATOM      4  C   UNL     1     131.729  92.657  49.440  0.00  0.00    +0.077 A 
ATOM      5  C   UNL     1     131.454  93.566  48.365  0.00  0.00    +0.048 A 
ATOM      6  C   UNL     1     130.297  93.325  47.592  0.00  0.00    +0.116 A 
ATOM      7  N   UNL     1     129.482  92.252  47.881  0.00  0.00    -0.223 NA
ATOM      8  C   UNL     1     129.777  91.394  48.924  0.00  0.00    +0.220 A 
ATOM      9  N   UNL     1     128.967  90.313  49.238  0.00  0.00    -0.283 N 
ATOM     36  H   UNL     1     129.223  89.699  50.011  0.00  0.00    +0.155 HD
ATOM     37  N   UNL     1     130.877  91.602  49.677  0.00  0.00    -0.214 NA
BRANCH   4   3
ATOM      1  C   UNL     1     135.059  91.918  51.356  0.00  0.00    +0.020 A 
ATOM      2  C   UNL     1     133.936  91.749  50.463  0.00  0.00    +0.013 A 
ATOM      3  C   UNL     1     132.912  92.781  50.349  0.00  0.00    +0.019 A 
ATOM     38  C   UNL     1     133.057  93.981  51.159  0.00  0.00    +0.120 A 
ATOM     39  N   UNL     1     134.148  94.116  52.011  0.00  0.00    -0.263 NA
ATOM     40  C   UNL     1     135.139  93.129  52.130  0.00  0.00    +0.111 A 
ENDBRANCH   4   3
ENDBRANCH  10   9
BRANCH  12  13
ATOM     13  N   UNL     1     126.781  88.353  45.222  0.00  0.00    -0.281 N 
ATOM     14  C   UNL     1     126.237  87.114  44.925  0.00  0.00    +0.248 C 
ATOM     30  O   UNL     1     125.808  86.330  45.759  0.00  0.00    -0.270 OA
ATOM     31  H   UNL     1     127.275  88.819  44.461  0.00  0.00    +0.155 HD
BRANCH  14  15
ATOM     15  C   UNL     1     126.172  86.677  43.497  0.00  0.00    +0.037 A 
ATOM     16  C   UNL     1     125.091  87.123  42.614  0.00  0.00    +0.013 A 
ATOM     17  C   UNL     1     125.043  86.673  41.246  0.00  0.00    +0.005 A 
ATOM     18  C   UNL     1     126.081  85.771  40.752  0.00  0.00    -0.033 A 
ATOM     28  C   UNL     1     127.145  85.348  41.648  0.00  0.00    +0.005 A 
ATOM     29  C   UNL     1     127.194  85.787  42.990  0.00  0.00    +0.013 A 
BRANCH  18  19
ATOM     19  C   UNL     1     126.097  85.224  39.312  0.00  0.00    +0.119 C 
BRANCH  19  20
ATOM     20  N   UNL     1     126.430  86.185  38.219  0.00  0.00    -0.302 NA
ATOM     21  C   UNL     1     125.441  86.093  37.053  0.00  0.00    +0.066 C 
ATOM     22  C   UNL     1     125.790  87.121  35.928  0.00  0.00    -0.064 C 
ATOM     23  N   UNL     1     127.221  86.878  35.445  0.00  0.00    +0.379 N 
ATOM     24  C   UNL     1     127.533  87.805  34.347  0.00  0.00    -0.096 C 
ATOM     25  H   UNL     1     127.269  85.842  35.037  0.00  0.00    -0.082 HD
ATOM     26  C   UNL     1     128.210  86.965  36.599  0.00  0.00    -0.064 C 
ATOM     27  C   UNL     1     127.837  85.960  37.724  0.00  0.00    +0.066 C 
ENDBRANCH  19  20
ENDBRANCH  18  19
ENDBRANCH  14  15
ENDBRANCH  12  13
TORSDOF 6
ENDMDL
MODEL 2
REMARK VINA RESULT:      -8.3     33.195     35.284
REMARK  Name = C:\Users\Docking\Desktop\test protocol\1iep_ligandH.pdb
REMARK  8 active torsions:
REMARK  status: ('A' for Active; 'I' for Inactive)
REMARK    1  A    between atoms: _5  and  _11
REMARK    2  A    between atoms: _19  and  _21
REMARK    3  A    between atoms: _22  and  _66
REMARK    4  A    between atoms: _27  and  _30
REMARK    5  A    between atoms: _32  and  _33
REMARK    6  A    between atoms: _38  and  _43
REMARK    7  A    between atoms: _43  and  _46
REMARK    8  A    between atoms: _53  and  _55
REMARK                            x       y       z     vdW  Elec       q    Type
REMARK                         _______ _______ _______ _____ _____    ______ ____
ROOT
ATOM     10  C   UNL     1     112.951 112.933  32.412  0.00  0.00    +0.038 A 
ATOM     11  C   UNL     1     112.008 113.642  31.625  0.00  0.00    +0.047 A 
ATOM     12  C   UNL     1     110.625 113.785  32.054  0.00  0.00    +0.035 A 
ATOM     32  C   UNL     1     110.238 113.194  33.292  0.00  0.00    +0.024 A 
ATOM     33  C   UNL     1     111.183 112.469  34.104  0.00  0.00    +0.007 A 
ATOM     34  C   UNL     1     112.547 112.323  33.684  0.00  0.00    -0.029 A 
ATOM     35  C   UNL     1     113.516 111.529  34.592  0.00  0.00    +0.045 C 
ENDROOT
BRANCH  10   9
ATOM      4  C   UNL     1     117.369 114.699  31.779  0.00  0.00    +0.077 A 
ATOM      5  C   UNL     1     117.021 115.948  32.393  0.00  0.00    +0.048 A 
ATOM      6  C   UNL     1     115.693 116.099  32.851  0.00  0.00    +0.116 A 
ATOM      7  N   UNL     1     114.789 115.069  32.703  0.00  0.00    -0.223 NA
ATOM      8  C   UNL     1     115.156 113.878  32.105  0.00  0.00    +0.220 A 
ATOM      9  N   UNL     1     114.265 112.827  31.952  0.00  0.00    -0.283 N 
ATOM     36  H   UNL     1     114.573 111.967  31.499  0.00  0.00    +0.155 HD
ATOM     37  N   UNL     1     116.418 113.710  31.657  0.00  0.00    -0.214 NA
BRANCH   4   3
ATOM      1  C   UNL     1     120.605 114.681  29.582  0.00  0.00    +0.020 A 
ATOM      2  C   UNL     1     119.282 115.018  30.054  0.00  0.00    +0.013 A 
ATOM      3  C   UNL     1     118.733 114.387  31.247  0.00  0.00    +0.019 A 
ATOM     38  C   UNL     1     119.557 113.412  31.947  0.00  0.00    +0.120 A 
ATOM     39  N   UNL     1     120.827 113.107  31.469  0.00  0.00    -0.263 NA
ATOM     40  C   UNL     1     121.365 113.707  30.320  0.00  0.00    +0.111 A 
ENDBRANCH   4   3
ENDBRANCH  10   9
BRANCH  12  13
ATOM     13  N   UNL     1     109.622 114.487  31.293  0.00  0.00    -0.281 N 
ATOM     14  C   UNL     1     108.715 113.959  30.388  0.00  0.00    +0.248 C 
ATOM     30  O   UNL     1     108.771 112.826  29.934  0.00  0.00    -0.270 OA
ATOM     31  H   UNL     1     109.574 115.495  31.439  0.00  0.00    +0.155 HD
BRANCH  14  15
ATOM     15  C   UNL     1     107.591 114.819  29.908  0.00  0.00    +0.037 A 
ATOM     16  C   UNL     1     107.356 116.150  30.474  0.00  0.00    +0.013 A 
ATOM     17  C   UNL     1     106.254 116.952  30.004  0.00  0.00    +0.005 A 
ATOM     18  C   UNL     1     105.379 116.425  28.960  0.00  0.00    -0.033 A 
ATOM     28  C   UNL     1     105.638 115.103  28.412  0.00  0.00    +0.005 A 
ATOM     29  C   UNL     1     106.716 114.314  28.871  0.00  0.00    +0.013 A 
BRANCH  18  19
ATOM     19  C   UNL     1     104.167 117.202  28.414  0.00  0.00    +0.119 C 
BRANCH  19  20
ATOM     20  N   UNL     1     104.413 118.587  27.913  0.00  0.00    -0.302 NA
ATOM     21  C   UNL     1     104.115 119.645  28.979  0.00  0.00    +0.066 C 
ATOM     22  C   UNL     1     104.399 121.087  28.446  0.00  0.00    -0.064 C 
ATOM     23  N   UNL     1     103.564 121.336  27.189  0.00  0.00    +0.379 N 
ATOM     24  C   UNL     1     103.785 122.711  26.718  0.00  0.00    -0.096 C 
ATOM     25  H   UNL     1     102.490 121.244  27.473  0.00  0.00    -0.082 HD
ATOM     26  C   UNL     1     103.852 120.287  26.124  0.00  0.00    -0.064 C 
ATOM     27  C   UNL     1     103.595 118.856  26.674  0.00  0.00    +0.066 C 
ENDBRANCH  19  20
ENDBRANCH  18  19
ENDBRANCH  14  15
ENDBRANCH  12  13
TORSDOF 6
ENDMDL
MODEL 3
REMARK VINA RESULT:      -7.9     23.924     25.932
REMARK  Name = C:\Users\Docking\Desktop\test protocol\1iep_ligandH.pdb
REMARK  8 active torsions:
REMARK  status: ('A' for Active; 'I' for Inactive)
REMARK    1  A    between atoms: _5  and  _11
REMARK    2  A    between atoms: _19  and  _21
REMARK    3  A    between atoms: _22  and  _66
REMARK    4  A    between atoms: _27  and  _30
REMARK    5  A    between atoms: _32  and  _33
REMARK    6  A    between atoms: _38  and  _43
REMARK    7  A    between atoms: _43  and  _46
REMARK    8  A    between atoms: _53  and  _55
REMARK                            x       y       z     vdW  Elec       q    Type
REMARK                         _______ _______ _______ _____ _____    ______ ____
ROOT
ATOM     10  C   UNL     1     118.943 113.341  41.849  0.00  0.00    +0.038 A 
ATOM     11  C   UNL     1     119.921 113.280  40.824  0.00  0.00    +0.047 A 
ATOM     12  C   UNL     1     119.604 113.663  39.457  0.00  0.00    +0.035 A 
ATOM     32  C   UNL     1     118.280 114.107  39.170  0.00  0.00    +0.024 A 
ATOM     33  C   UNL     1     117.273 114.175  40.200  0.00  0.00    +0.007 A 
ATOM     34  C   UNL     1     117.580 113.796  41.549  0.00  0.00    -0.029 A 
ATOM     35  C   UNL     1     116.459 113.882  42.611  0.00  0.00    +0.045 C 
ENDROOT
BRANCH  10   9
ATOM      4  C   UNL     1     120.283 110.051  45.076  0.00  0.00    +0.077 A 
ATOM      5  C   UNL     1     120.237 108.995  44.106  0.00  0.00    +0.048 A 
ATOM      6  C   UNL     1     119.857 109.339  42.789  0.00  0.00    +0.116 A 
ATOM      7  N   UNL     1     119.549 110.645  42.477  0.00  0.00    -0.223 NA
ATOM      8  C   UNL     1     119.601 111.639  43.437  0.00  0.00    +0.220 A 
ATOM      9  N   UNL     1     119.302 112.961  43.144  0.00  0.00    -0.283 N 
ATOM     36  H   UNL     1     119.346 113.663  43.882  0.00  0.00    +0.155 HD
ATOM     37  N   UNL     1     119.960 111.336  44.702  0.00  0.00    -0.214 NA
BRANCH   4   3
ATOM      1  C   UNL     1     120.154 109.789  48.977  0.00  0.00    +0.020 A 
ATOM      2  C   UNL     1     119.730 109.998  47.612  0.00  0.00    +0.013 A 
ATOM      3  C   UNL     1     120.669 109.846  46.508  0.00  0.00    +0.019 A 
ATOM     38  C   UNL     1     122.041 109.476  46.822  0.00  0.00    +0.120 A 
ATOM     39  N   UNL     1     122.422 109.282  48.146  0.00  0.00    -0.263 NA
ATOM     40  C   UNL     1     121.527 109.428  49.217  0.00  0.00    +0.111 A 
ENDBRANCH   4   3
ENDBRANCH  10   9
BRANCH  12  13
ATOM     13  N   UNL     1     120.553 113.614  38.373  0.00  0.00    -0.281 N 
ATOM     14  C   UNL     1     121.110 114.676  37.680  0.00  0.00    +0.248 C 
ATOM     30  O   UNL     1     120.712 115.830  37.746  0.00  0.00    -0.270 OA
ATOM     31  H   UNL     1     120.851 112.683  38.081  0.00  0.00    +0.155 HD
BRANCH  14  15
ATOM     15  C   UNL     1     122.268 114.418  36.771  0.00  0.00    +0.037 A 
ATOM     16  C   UNL     1     123.476 115.246  36.824  0.00  0.00    +0.013 A 
ATOM     17  C   UNL     1     124.571 114.985  35.924  0.00  0.00    +0.005 A 
ATOM     18  C   UNL     1     124.464 113.889  34.964  0.00  0.00    -0.033 A 
ATOM     28  C   UNL     1     123.257 113.080  34.936  0.00  0.00    +0.005 A 
ATOM     29  C   UNL     1     122.181 113.333  35.816  0.00  0.00    +0.013 A 
BRANCH  18  19
ATOM     19  C   UNL     1     125.576 113.553  33.952  0.00  0.00    +0.119 C 
BRANCH  19  20
ATOM     20  N   UNL     1     125.200 113.530  32.506  0.00  0.00    -0.302 NA
ATOM     21  C   UNL     1     126.429 113.493  31.594  0.00  0.00    +0.066 C 
ATOM     22  C   UNL     1     126.018 113.446  30.086  0.00  0.00    -0.064 C 
ATOM     23  N   UNL     1     125.138 114.655  29.763  0.00  0.00    +0.379 N 
ATOM     24  C   UNL     1     124.797 114.645  28.333  0.00  0.00    -0.096 C 
ATOM     25  H   UNL     1     125.740 115.573  29.961  0.00  0.00    -0.082 HD
ATOM     26  C   UNL     1     123.915 114.701  30.667  0.00  0.00    -0.064 C 
ATOM     27  C   UNL     1     124.335 114.717  32.164  0.00  0.00    +0.066 C 
ENDBRANCH  19  20
ENDBRANCH  18  19
ENDBRANCH  14  15
ENDBRANCH  12  13
TORSDOF 6
ENDMDL
MODEL 4
REMARK VINA RESULT:      -7.8     17.401     20.750
REMARK  Name = C:\Users\Docking\Desktop\test protocol\1iep_ligandH.pdb
REMARK  8 active torsions:
REMARK  status: ('A' for Active; 'I' for Inactive)
REMARK    1  A    between atoms: _5  and  _11
REMARK    2  A    between atoms: _19  and  _21
REMARK    3  A    between atoms: _22  and  _66
REMARK    4  A    between atoms: _27  and  _30
REMARK    5  A    between atoms: _32  and  _33
REMARK    6  A    between atoms: _38  and  _43
REMARK    7  A    between atoms: _43  and  _46
REMARK    8  A    between atoms: _53  and  _55
REMARK                            x       y       z     vdW  Elec       q    Type
REMARK                         _______ _______ _______ _____ _____    ______ ____
ROOT
ATOM     10  C   UNL     1     117.142  99.640  43.412  0.00  0.00    +0.038 A 
ATOM     11  C   UNL     1     117.775 100.811  42.921  0.00  0.00    +0.047 A 
ATOM     12  C   UNL     1     119.018 101.294  43.503  0.00  0.00    +0.035 A 
ATOM     32  C   UNL     1     119.590 100.558  44.582  0.00  0.00    +0.024 A 
ATOM     33  C   UNL     1     118.958  99.367  45.094  0.00  0.00    +0.007 A 
ATOM     34  C   UNL     1     117.731  98.887  44.525  0.00  0.00    -0.029 A 
ATOM     35  C   UNL     1     117.095  97.608  45.118  0.00  0.00    +0.045 C 
ENDROOT
BRANCH  10   9
ATOM      4  C   UNL     1     112.360  99.711  43.006  0.00  0.00    +0.077 A 
ATOM      5  C   UNL     1     112.222 100.640  44.091  0.00  0.00    +0.048 A 
ATOM      6  C   UNL     1     113.406 101.069  44.731  0.00  0.00    +0.116 A 
ATOM      7  N   UNL     1     114.631 100.599  44.310  0.00  0.00    -0.223 NA
ATOM      8  C   UNL     1     114.728  99.702  43.261  0.00  0.00    +0.220 A 
ATOM      9  N   UNL     1     115.950  99.222  42.816  0.00  0.00    -0.283 N 
ATOM     36  H   UNL     1     115.979  98.556  42.044  0.00  0.00    +0.155 HD
ATOM     37  N   UNL     1     113.612  99.276  42.634  0.00  0.00    -0.214 NA
BRANCH   4   3
ATOM      1  C   UNL     1     110.210  97.740  40.399  0.00  0.00    +0.020 A 
ATOM      2  C   UNL     1     111.361  98.236  41.117  0.00  0.00    +0.013 A 
ATOM      3  C   UNL     1     111.202  99.167  42.227  0.00  0.00    +0.019 A 
ATOM     38  C   UNL     1     109.854  99.579  42.588  0.00  0.00    +0.120 A 
ATOM     39  N   UNL     1     108.765  99.086  41.877  0.00  0.00    -0.263 NA
ATOM     40  C   UNL     1     108.906  98.191  40.806  0.00  0.00    +0.111 A 
ENDBRANCH   4   3
ENDBRANCH  10   9
BRANCH  12  13
ATOM     13  N   UNL     1     119.703 102.480  43.053  0.00  0.00    -0.281 N 
ATOM     14  C   UNL     1     120.147 102.773  41.773  0.00  0.00    +0.248 C 
ATOM     30  O   UNL     1     120.212 101.962  40.862  0.00  0.00    -0.270 OA
ATOM     31  H   UNL     1     119.882 103.190  43.763  0.00  0.00    +0.155 HD
BRANCH  14  15
ATOM     15  C   UNL     1     120.597 104.165  41.467  0.00  0.00    +0.037 A 
ATOM     16  C   UNL     1     120.141 105.305  42.267  0.00  0.00    +0.013 A 
ATOM     17  C   UNL     1     120.577 106.639  41.939  0.00  0.00    +0.005 A 
ATOM     18  C   UNL     1     121.476 106.840  40.804  0.00  0.00    -0.033 A 
ATOM     28  C   UNL     1     121.916 105.691  40.031  0.00  0.00    +0.005 A 
ATOM     29  C   UNL     1     121.490 104.382  40.349  0.00  0.00    +0.013 A 
BRANCH  18  19
ATOM     19  C   UNL     1     121.975 108.231  40.369  0.00  0.00    +0.119 C 
BRANCH  19  20
ATOM     20  N   UNL     1     121.682 108.654  38.967  0.00  0.00    -0.302 NA
ATOM     21  C   UNL     1     122.945 109.106  38.228  0.00  0.00    +0.066 C 
ATOM     22  C   UNL     1     122.625 109.524  36.756  0.00  0.00    -0.064 C 
ATOM     23  N   UNL     1     121.574 110.635  36.762  0.00  0.00    +0.379 N 
ATOM     24  C   UNL     1     121.313 111.071  35.382  0.00  0.00    -0.096 C 
ATOM     25  H   UNL     1     122.003 111.503  37.315  0.00  0.00    -0.082 HD
ATOM     26  C   UNL     1     120.316 110.195  37.497  0.00  0.00    -0.064 C 
ATOM     27  C   UNL     1     120.650 109.754  38.950  0.00  0.00    +0.066 C 
ENDBRANCH  19  20
ENDBRANCH  18  19
ENDBRANCH  14  15
ENDBRANCH  12  13
TORSDOF 6
ENDMDL
MODEL 5
REMARK VINA RESULT:      -7.8     21.221     27.669
REMARK  Name = C:\Users\Docking\Desktop\test protocol\1iep_ligandH.pdb
REMARK  8 active torsions:
REMARK  status: ('A' for Active; 'I' for Inactive)
REMARK    1  A    between atoms: _5  and  _11
REMARK    2  A    between atoms: _19  and  _21
REMARK    3  A    between atoms: _22  and  _66
REMARK    4  A    between atoms: _27  and  _30
REMARK    5  A    between atoms: _32  and  _33
REMARK    6  A    between atoms: _38  and  _43
REMARK    7  A    between atoms: _43  and  _46
REMARK    8  A    between atoms: _53  and  _55
REMARK                            x       y       z     vdW  Elec       q    Type
REMARK                         _______ _______ _______ _____ _____    ______ ____
ROOT
ATOM     10  C   UNL     1     137.401 106.356  56.336  0.00  0.00    +0.038 A 
ATOM     11  C   UNL     1     137.256 107.736  56.043  0.00  0.00    +0.047 A 
ATOM     12  C   UNL     1     138.406 108.557  55.700  0.00  0.00    +0.035 A 
ATOM     32  C   UNL     1     139.690 107.940  55.663  0.00  0.00    +0.024 A 
ATOM     33  C   UNL     1     139.856 106.539  55.959  0.00  0.00    +0.007 A 
ATOM     34  C   UNL     1     138.725 105.724  56.300  0.00  0.00    -0.029 A 
ATOM     35  C   UNL     1     138.963 104.228  56.615  0.00  0.00    +0.045 C 
ENDROOT
BRANCH  10   9
ATOM      4  C   UNL     1     134.153 104.739  59.478  0.00  0.00    +0.077 A 
ATOM      5  C   UNL     1     134.793 105.406  60.574  0.00  0.00    +0.048 A 
ATOM      6  C   UNL     1     135.961 106.150  60.288  0.00  0.00    +0.116 A 
ATOM      7  N   UNL     1     136.442 106.214  58.998  0.00  0.00    -0.223 NA
ATOM      8  C   UNL     1     135.800 105.557  57.965  0.00  0.00    +0.220 A 
ATOM      9  N   UNL     1     136.262 105.614  56.659  0.00  0.00    -0.283 N 
ATOM     36  H   UNL     1     135.765 105.109  55.925  0.00  0.00    +0.155 HD
ATOM     37  N   UNL     1     134.685 104.839  58.212  0.00  0.00    -0.214 NA
BRANCH   4   3
ATOM      1  C   UNL     1     130.432 103.540  59.322  0.00  0.00    +0.020 A 
ATOM      2  C   UNL     1     131.602 104.373  59.162  0.00  0.00    +0.013 A 
ATOM      3  C   UNL     1     132.909 103.917  59.620  0.00  0.00    +0.019 A 
ATOM     38  C   UNL     1     132.998 102.604  60.240  0.00  0.00    +0.120 A 
ATOM     39  N   UNL     1     131.854 101.825  60.382  0.00  0.00    -0.263 NA
ATOM     40  C   UNL     1     130.591 102.253  59.946  0.00  0.00    +0.111 A 
ENDBRANCH   4   3
ENDBRANCH  10   9
BRANCH  12  13
ATOM     13  N   UNL     1     138.321 109.965  55.401  0.00  0.00    -0.281 N 
ATOM     14  C   UNL     1     138.602 111.032  56.239  0.00  0.00    +0.248 C 
ATOM     30  O   UNL     1     138.766 110.939  57.446  0.00  0.00    -0.270 OA
ATOM     31  H   UNL     1     138.016 110.204  54.458  0.00  0.00    +0.155 HD
BRANCH  14  15
ATOM     15  C   UNL     1     138.702 112.404  55.652  0.00  0.00    +0.037 A 
ATOM     16  C   UNL     1     139.888 112.825  54.902  0.00  0.00    +0.013 A 
ATOM     17  C   UNL     1     139.965 114.159  54.361  0.00  0.00    +0.005 A 
ATOM     18  C   UNL     1     138.852 115.081  54.569  0.00  0.00    -0.033 A 
ATOM     28  C   UNL     1     137.685 114.636  55.312  0.00  0.00    +0.005 A 
ATOM     29  C   UNL     1     137.606 113.329  55.844  0.00  0.00    +0.013 A 
BRANCH  18  19
ATOM     19  C   UNL     1     138.857 116.530  54.046  0.00  0.00    +0.119 C 
BRANCH  19  20
ATOM     20  N   UNL     1     139.020 117.620  55.054  0.00  0.00    -0.302 NA
ATOM     21  C   UNL     1     137.854 118.612  55.020  0.00  0.00    +0.066 C 
ATOM     22  C   UNL     1     138.030 119.733  56.096  0.00  0.00    -0.064 C 
ATOM     23  N   UNL     1     139.360 120.453  55.867  0.00  0.00    +0.379 N 
ATOM     24  C   UNL     1     139.502 121.545  56.840  0.00  0.00    -0.096 C 
ATOM     25  H   UNL     1     139.327 120.908  54.850  0.00  0.00    -0.082 HD
ATOM     26  C   UNL     1     140.525 119.473  55.895  0.00  0.00    -0.064 C 
ATOM     27  C   UNL     1     140.326 118.347  54.842  0.00  0.00    +0.066 C 
ENDBRANCH  19  20
ENDBRANCH  18  19
ENDBRANCH  14  15
ENDBRANCH  12  13
TORSDOF 6
ENDMDL
