MODEL 1
REMARK VINA RESULT:     -11.3      0.000      0.000
REMARK  Name = C:\Users\Docking\Desktop\test protocol\1iep_ligandH.pdb
REMARK  8 active torsions:
REMARK  status: ('A' for Active; 'I' for Inactive)
REMARK    1  A    between atoms: _5  and  _11
REMARK    2  A    between atoms: _19  and  _21
REMARK    3  A    between atoms: _22  and  _66
REMARK    4  A    between atoms: _27  and  _30
REMARK    5  A    between atoms: _32  and  _33
REMARK    6  A    between atoms: _38  and  _43
REMARK    7  A    between atoms: _43  and  _46
REMARK    8  A    between atoms: _53  and  _55
REMARK                            x       y       z     vdW  Elec       q    Type
REMARK                         _______ _______ _______ _____ _____    ______ ____
ROOT
ATOM     10  C   UNL     1      14.558   2.240  24.862  0.00  0.00    +0.038 A 
ATOM     11  C   UNL     1      14.105   3.474  25.394  0.00  0.00    +0.047 A 
ATOM     12  C   UNL     1      12.794   4.004  25.054  0.00  0.00    +0.035 A 
ATOM     32  C   UNL     1      11.969   3.249  24.170  0.00  0.00    +0.024 A 
ATOM     33  C   UNL     1      12.414   1.993  23.620  0.00  0.00    +0.007 A 
ATOM     34  C   UNL     1      13.707   1.467  23.950  0.00  0.00    -0.029 A 
ATOM     35  C   UNL     1      14.135   0.119  23.325  0.00  0.00    +0.045 C 
ENDROOT
BRANCH  10   9
ATOM      4  C   UNL     1      19.230   1.575  23.982  0.00  0.00    +0.077 A 
ATOM      5  C   UNL     1      19.130   2.175  22.682  0.00  0.00    +0.048 A 
ATOM      6  C   UNL     1      17.858   2.635  22.275  0.00  0.00    +0.116 A 
ATOM      7  N   UNL     1      16.773   2.501  23.114  0.00  0.00    -0.223 NA
ATOM      8  C   UNL     1      16.903   1.916  24.360  0.00  0.00    +0.220 A 
ATOM      9  N   UNL     1      15.826   1.778  25.223  0.00  0.00    -0.283 N 
ATOM     36  H   UNL     1      15.962   1.335  26.131  0.00  0.00    +0.155 HD
ATOM     37  N   UNL     1      18.107   1.468  24.771  0.00  0.00    -0.214 NA
BRANCH   4   3
ATOM      1  C   UNL     1      23.022   0.870  24.630  0.00  0.00    +0.020 A 
ATOM      2  C   UNL     1      21.820   1.411  24.040  0.00  0.00    +0.013 A 
ATOM      3  C   UNL     1      20.507   1.044  24.555  0.00  0.00    +0.019 A 
ATOM     38  C   UNL     1      20.445   0.120  25.678  0.00  0.00    +0.120 A 
ATOM     39  N   UNL     1      21.620  -0.386  26.225  0.00  0.00    -0.263 NA
ATOM     40  C   UNL     1      22.889  -0.041  25.736  0.00  0.00    +0.111 A 
ENDBRANCH   4   3
ENDBRANCH  10   9
BRANCH  12  13
ATOM     13  N   UNL     1      12.284   5.256  25.557  0.00  0.00    -0.281 N 
ATOM     14  C   UNL     1      12.278   6.489  24.925  0.00  0.00    +0.248 C 
ATOM     30  O   UNL     1      12.908   6.748  23.911  0.00  0.00    -0.270 OA
ATOM     31  H   UNL     1      11.877   5.229  26.492  0.00  0.00    +0.155 HD
BRANCH  14  15
ATOM     15  C   UNL     1      11.467   7.598  25.513  0.00  0.00    +0.037 A 
ATOM     16  C   UNL     1      10.321   7.322  26.383  0.00  0.00    +0.013 A 
ATOM     17  C   UNL     1       9.545   8.410  26.923  0.00  0.00    +0.005 A 
ATOM     18  C   UNL     1       9.914   9.785  26.596  0.00  0.00    -0.033 A 
ATOM     28  C   UNL     1      11.059  10.030  25.735  0.00  0.00    +0.005 A 
ATOM     29  C   UNL     1      11.822   8.966  25.203  0.00  0.00    +0.013 A 
BRANCH  18  19
ATOM     19  C   UNL     1       9.130  11.007  27.111  0.00  0.00    +0.119 C 
BRANCH  19  20
ATOM     20  N   UNL     1       9.704  11.746  28.274  0.00  0.00    -0.302 NA
ATOM     21  C   UNL     1       8.689  11.907  29.410  0.00  0.00    +0.066 C 
ATOM     22  C   UNL     1       9.313  12.663  30.628  0.00  0.00    -0.064 C 
ATOM     23  N   UNL     1       9.831  14.027  30.167  0.00  0.00    +0.379 N 
ATOM     24  C   UNL     1      10.365  14.764  31.321  0.00  0.00    -0.096 C 
ATOM     25  H   UNL     1       8.962  14.602  29.771  0.00  0.00    -0.082 HD
ATOM     26  C   UNL     1      10.839  13.876  29.036  0.00  0.00    -0.064 C 
ATOM     27  C   UNL     1      10.218  13.098  27.843  0.00  0.00    +0.066 C 
ENDBRANCH  19  20
ENDBRANCH  18  19
ENDBRANCH  14  15
ENDBRANCH  12  13
TORSDOF 6
ENDMDL
MODEL 2
REMARK VINA RESULT:     -10.9      2.503     13.798
REMARK  Name = C:\Users\Docking\Desktop\test protocol\1iep_ligandH.pdb
REMARK  8 active torsions:
REMARK  status: ('A' for Active; 'I' for Inactive)
REMARK    1  A    between atoms: _5  and  _11
REMARK    2  A    between atoms: _19  and  _21
REMARK    3  A    between atoms: _22  and  _66
REMARK    4  A    between atoms: _27  and  _30
REMARK    5  A    between atoms: _32  and  _33
REMARK    6  A    between atoms: _38  and  _43
REMARK    7  A    between atoms: _43  and  _46
REMARK    8  A    between atoms: _53  and  _55
REMARK                            x       y       z     vdW  Elec       q    Type
REMARK                         _______ _______ _______ _____ _____    ______ ____
ROOT
ATOM     10  C   UNL     1      11.250  12.260  28.210  0.00  0.00    +0.038 A 
ATOM     11  C   UNL     1      11.450  10.880  27.953  0.00  0.00    +0.047 A 
ATOM     12  C   UNL     1      11.742  10.398  26.612  0.00  0.00    +0.035 A 
ATOM     32  C   UNL     1      11.826  11.351  25.555  0.00  0.00    +0.024 A 
ATOM     33  C   UNL     1      11.625  12.758  25.798  0.00  0.00    +0.007 A 
ATOM     34  C   UNL     1      11.334  13.239  27.118  0.00  0.00    -0.029 A 
ATOM     35  C   UNL     1      11.121  14.757  27.319  0.00  0.00    +0.045 C 
ENDROOT
BRANCH  10   9
ATOM      4  C   UNL     1       8.200  13.161  31.805  0.00  0.00    +0.077 A 
ATOM      5  C   UNL     1       7.061  12.817  31.003  0.00  0.00    +0.048 A 
ATOM      6  C   UNL     1       7.303  12.420  29.669  0.00  0.00    +0.116 A 
ATOM      7  N   UNL     1       8.591  12.374  29.183  0.00  0.00    -0.223 NA
ATOM      8  C   UNL     1       9.667  12.714  29.982  0.00  0.00    +0.220 A 
ATOM      9  N   UNL     1      10.973  12.667  29.516  0.00  0.00    -0.283 N 
ATOM     36  H   UNL     1      11.738  12.933  30.135  0.00  0.00    +0.155 HD
ATOM     37  N   UNL     1       9.463  13.097  31.259  0.00  0.00    -0.214 NA
BRANCH   4   3
ATOM      1  C   UNL     1       7.352  13.287  35.621  0.00  0.00    +0.020 A 
ATOM      2  C   UNL     1       7.412  12.822  34.254  0.00  0.00    +0.013 A 
ATOM      3  C   UNL     1       8.108  13.596  33.234  0.00  0.00    +0.019 A 
ATOM     38  C   UNL     1       8.739  14.845  33.633  0.00  0.00    +0.120 A 
ATOM     39  N   UNL     1       8.664  15.268  34.957  0.00  0.00    -0.263 NA
ATOM     40  C   UNL     1       7.995  14.532  35.947  0.00  0.00    +0.111 A 
ENDBRANCH   4   3
ENDBRANCH  10   9
BRANCH  12  13
ATOM     13  N   UNL     1      11.947   9.008  26.290  0.00  0.00    -0.281 N 
ATOM     14  C   UNL     1      10.993   8.066  25.938  0.00  0.00    +0.248 C 
ATOM     30  O   UNL     1       9.788   8.226  26.056  0.00  0.00    -0.270 OA
ATOM     31  H   UNL     1      12.911   8.678  26.325  0.00  0.00    +0.155 HD
BRANCH  14  15
ATOM     15  C   UNL     1      11.445   6.751  25.390  0.00  0.00    +0.037 A 
ATOM     16  C   UNL     1      10.482   5.717  25.003  0.00  0.00    +0.013 A 
ATOM     17  C   UNL     1      10.945   4.451  24.493  0.00  0.00    +0.005 A 
ATOM     18  C   UNL     1      12.381   4.212  24.366  0.00  0.00    -0.033 A 
ATOM     28  C   UNL     1      13.315   5.257  24.753  0.00  0.00    +0.005 A 
ATOM     29  C   UNL     1      12.864   6.499  25.254  0.00  0.00    +0.013 A 
BRANCH  18  19
ATOM     19  C   UNL     1      12.965   2.883  23.852  0.00  0.00    +0.119 C 
BRANCH  19  20
ATOM     20  N   UNL     1      14.440   2.828  23.624  0.00  0.00    -0.302 NA
ATOM     21  C   UNL     1      14.785   2.523  22.164  0.00  0.00    +0.066 C 
ATOM     22  C   UNL     1      16.332   2.490  21.939  0.00  0.00    -0.064 C 
ATOM     23  N   UNL     1      16.958   1.452  22.871  0.00  0.00    +0.379 N 
ATOM     24  C   UNL     1      18.405   1.378  22.621  0.00  0.00    -0.096 C 
ATOM     25  H   UNL     1      16.520   0.460  22.616  0.00  0.00    -0.082 HD
ATOM     26  C   UNL     1      16.618   1.747  24.325  0.00  0.00    -0.064 C 
ATOM     27  C   UNL     1      15.079   1.806  24.532  0.00  0.00    +0.066 C 
ENDBRANCH  19  20
ENDBRANCH  18  19
ENDBRANCH  14  15
ENDBRANCH  12  13
TORSDOF 6
ENDMDL
MODEL 3
REMARK VINA RESULT:     -10.6      5.889      8.690
REMARK  Name = C:\Users\Docking\Desktop\test protocol\1iep_ligandH.pdb
REMARK  8 active torsions:
REMARK  status: ('A' for Active; 'I' for Inactive)
REMARK    1  A    between atoms: _5  and  _11
REMARK    2  A    between atoms: _19  and  _21
REMARK    3  A    between atoms: _22  and  _66
REMARK    4  A    between atoms: _27  and  _30
REMARK    5  A    between atoms: _32  and  _33
REMARK    6  A    between atoms: _38  and  _43
REMARK    7  A    between atoms: _43  and  _46
REMARK    8  A    between atoms: _53  and  _55
REMARK                            x       y       z     vdW  Elec       q    Type
REMARK                         _______ _______ _______ _____ _____    ______ ____
ROOT
ATOM     10  C   UNL     1      10.365   8.344  25.889  0.00  0.00    +0.038 A 
ATOM     11  C   UNL     1       9.884   9.080  27.003  0.00  0.00    +0.047 A 
ATOM     12  C   UNL     1      10.380  10.416  27.293  0.00  0.00    +0.035 A 
ATOM     32  C   UNL     1      11.364  10.974  26.426  0.00  0.00    +0.024 A 
ATOM     33  C   UNL     1      11.865  10.240  25.291  0.00  0.00    +0.007 A 
ATOM     34  C   UNL     1      11.381   8.921  25.001  0.00  0.00    -0.029 A 
ATOM     35  C   UNL     1      11.958   8.178  23.773  0.00  0.00    +0.045 C 
ENDROOT
BRANCH  10   9
ATOM      4  C   UNL     1      10.555   3.568  26.321  0.00  0.00    +0.077 A 
ATOM      5  C   UNL     1      11.792   3.623  27.046  0.00  0.00    +0.048 A 
ATOM      6  C   UNL     1      12.350   4.900  27.281  0.00  0.00    +0.116 A 
ATOM      7  N   UNL     1      11.709   6.030  26.820  0.00  0.00    -0.223 NA
ATOM      8  C   UNL     1      10.519   5.941  26.123  0.00  0.00    +0.220 A 
ATOM      9  N   UNL     1       9.854   7.065  25.658  0.00  0.00    -0.283 N 
ATOM     36  H   UNL     1       8.981   6.957  25.141  0.00  0.00    +0.155 HD
ATOM     37  N   UNL     1       9.967   4.734  25.884  0.00  0.00    -0.214 NA
BRANCH   4   3
ATOM      1  C   UNL     1       9.513   0.198  24.629  0.00  0.00    +0.020 A 
ATOM      2  C   UNL     1      10.237   1.419  24.900  0.00  0.00    +0.013 A 
ATOM      3  C   UNL     1       9.840   2.293  25.997  0.00  0.00    +0.019 A 
ATOM     38  C   UNL     1       8.698   1.900  26.807  0.00  0.00    +0.120 A 
ATOM     39  N   UNL     1       8.018   0.719  26.522  0.00  0.00    -0.263 NA
ATOM     40  C   UNL     1       8.390  -0.129  25.469  0.00  0.00    +0.111 A 
ENDBRANCH   4   3
ENDBRANCH  10   9
BRANCH  12  13
ATOM     13  N   UNL     1       9.935  11.207  28.414  0.00  0.00    -0.281 N 
ATOM     14  C   UNL     1       8.708  11.826  28.585  0.00  0.00    +0.248 C 
ATOM     30  O   UNL     1       7.878  11.972  27.700  0.00  0.00    -0.270 OA
ATOM     31  H   UNL     1      10.607  11.324  29.173  0.00  0.00    +0.155 HD
BRANCH  14  15
ATOM     15  C   UNL     1       8.359  12.375  29.931  0.00  0.00    +0.037 A 
ATOM     16  C   UNL     1       6.965  12.617  30.314  0.00  0.00    +0.013 A 
ATOM     17  C   UNL     1       6.657  13.164  31.612  0.00  0.00    +0.005 A 
ATOM     18  C   UNL     1       7.745  13.471  32.537  0.00  0.00    -0.033 A 
ATOM     28  C   UNL     1       9.118  13.217  32.132  0.00  0.00    +0.005 A 
ATOM     29  C   UNL     1       9.424  12.682  30.861  0.00  0.00    +0.013 A 
BRANCH  18  19
ATOM     19  C   UNL     1       7.510  14.076  33.933  0.00  0.00    +0.119 C 
BRANCH  19  20
ATOM     20  N   UNL     1       8.660  14.066  34.885  0.00  0.00    -0.302 NA
ATOM     21  C   UNL     1       8.612  12.864  35.833  0.00  0.00    +0.066 C 
ATOM     22  C   UNL     1       9.835  12.858  36.807  0.00  0.00    -0.064 C 
ATOM     23  N   UNL     1       9.862  14.168  37.595  0.00  0.00    +0.379 N 
ATOM     24  C   UNL     1      10.977  14.141  38.553  0.00  0.00    -0.096 C 
ATOM     25  H   UNL     1       8.915  14.231  38.180  0.00  0.00    -0.082 HD
ATOM     26  C   UNL     1       9.908  15.369  36.661  0.00  0.00    -0.064 C 
ATOM     27  C   UNL     1       8.704  15.350  35.678  0.00  0.00    +0.066 C 
ENDBRANCH  19  20
ENDBRANCH  18  19
ENDBRANCH  14  15
ENDBRANCH  12  13
TORSDOF 6
ENDMDL
MODEL 4
REMARK VINA RESULT:     -10.4      6.165     13.398
REMARK  Name = C:\Users\Docking\Desktop\test protocol\1iep_ligandH.pdb
REMARK  8 active torsions:
REMARK  status: ('A' for Active; 'I' for Inactive)
REMARK    1  A    between atoms: _5  and  _11
REMARK    2  A    between atoms: _19  and  _21
REMARK    3  A    between atoms: _22  and  _66
REMARK    4  A    between atoms: _27  and  _30
REMARK    5  A    between atoms: _32  and  _33
REMARK    6  A    between atoms: _38  and  _43
REMARK    7  A    between atoms: _43  and  _46
REMARK    8  A    between atoms: _53  and  _55
REMARK                            x       y       z     vdW  Elec       q    Type
REMARK                         _______ _______ _______ _____ _____    ______ ____
ROOT
ATOM     10  C   UNL     1      11.475  11.550  27.548  0.00  0.00    +0.038 A 
ATOM     11  C   UNL     1      11.197  10.160  27.520  0.00  0.00    +0.047 A 
ATOM     12  C   UNL     1      11.331   9.390  26.293  0.00  0.00    +0.035 A 
ATOM     32  C   UNL     1      11.755  10.068  25.113  0.00  0.00    +0.024 A 
ATOM     33  C   UNL     1      12.041  11.481  25.123  0.00  0.00    +0.007 A 
ATOM     34  C   UNL     1      11.908  12.246  26.330  0.00  0.00    -0.029 A 
ATOM     35  C   UNL     1      12.222  13.760  26.281  0.00  0.00    +0.045 C 
ENDROOT
BRANCH  10   9
ATOM      4  C   UNL     1       8.801  13.268  31.144  0.00  0.00    +0.077 A 
ATOM      5  C   UNL     1       7.589  12.773  30.559  0.00  0.00    +0.048 A 
ATOM      6  C   UNL     1       7.696  12.087  29.328  0.00  0.00    +0.116 A 
ATOM      7  N   UNL     1       8.929  11.916  28.736  0.00  0.00    -0.223 NA
ATOM      8  C   UNL     1      10.078  12.408  29.327  0.00  0.00    +0.220 A 
ATOM      9  N   UNL     1      11.329  12.240  28.754  0.00  0.00    -0.283 N 
ATOM     36  H   UNL     1      12.152  12.625  29.217  0.00  0.00    +0.155 HD
ATOM     37  N   UNL     1      10.002  13.067  30.502  0.00  0.00    -0.214 NA
BRANCH   4   3
ATOM      1  C   UNL     1       9.485  16.000  33.860  0.00  0.00    +0.020 A 
ATOM      2  C   UNL     1       9.463  15.326  32.582  0.00  0.00    +0.013 A 
ATOM      3  C   UNL     1       8.852  14.010  32.444  0.00  0.00    +0.019 A 
ATOM     38  C   UNL     1       8.266  13.399  33.628  0.00  0.00    +0.120 A 
ATOM     39  N   UNL     1       8.303  14.071  34.845  0.00  0.00    -0.263 NA
ATOM     40  C   UNL     1       8.891  15.337  34.991  0.00  0.00    +0.111 A 
ENDBRANCH   4   3
ENDBRANCH  10   9
BRANCH  12  13
ATOM     13  N   UNL     1      11.055   7.978  26.202  0.00  0.00    -0.281 N 
ATOM     14  C   UNL     1       9.821   7.349  26.220  0.00  0.00    +0.248 C 
ATOM     30  O   UNL     1       8.773   7.893  26.534  0.00  0.00    -0.270 OA
ATOM     31  H   UNL     1      11.868   7.368  26.113  0.00  0.00    +0.155 HD
BRANCH  14  15
ATOM     15  C   UNL     1       9.742   5.903  25.850  0.00  0.00    +0.037 A 
ATOM     16  C   UNL     1       8.530   5.119  26.103  0.00  0.00    +0.013 A 
ATOM     17  C   UNL     1       8.487   3.721  25.752  0.00  0.00    +0.005 A 
ATOM     18  C   UNL     1       9.660   3.099  25.142  0.00  0.00    -0.033 A 
ATOM     28  C   UNL     1      10.847   3.902  24.898  0.00  0.00    +0.005 A 
ATOM     29  C   UNL     1      10.893   5.271  25.241  0.00  0.00    +0.013 A 
BRANCH  18  19
ATOM     19  C   UNL     1       9.710   1.609  24.755  0.00  0.00    +0.119 C 
BRANCH  19  20
ATOM     20  N   UNL     1       9.122   0.632  25.719  0.00  0.00    -0.302 NA
ATOM     21  C   UNL     1       9.849   0.646  27.066  0.00  0.00    +0.066 C 
ATOM     22  C   UNL     1       9.207  -0.366  28.070  0.00  0.00    -0.064 C 
ATOM     23  N   UNL     1       9.226  -1.768  27.459  0.00  0.00    +0.379 N 
ATOM     24  C   UNL     1       8.676  -2.732  28.423  0.00  0.00    -0.096 C 
ATOM     25  H   UNL     1      10.291  -2.043  27.276  0.00  0.00    -0.082 HD
ATOM     26  C   UNL     1       8.508  -1.791  26.117  0.00  0.00    -0.064 C 
ATOM     27  C   UNL     1       9.135  -0.760  25.137  0.00  0.00    +0.066 C 
ENDBRANCH  19  20
ENDBRANCH  18  19
ENDBRANCH  14  15
ENDBRANCH  12  13
TORSDOF 6
ENDMDL
MODEL 5
REMARK VINA RESULT:     -10.4      4.481      6.378
REMARK  Name = C:\Users\Docking\Desktop\test protocol\1iep_ligandH.pdb
REMARK  8 active torsions:
REMARK  status: ('A' for Active; 'I' for Inactive)
REMARK    1  A    between atoms: _5  and  _11
REMARK    2  A    between atoms: _19  and  _21
REMARK    3  A    between atoms: _22  and  _66
REMARK    4  A    between atoms: _27  and  _30
REMARK    5  A    between atoms: _32  and  _33
REMARK    6  A    between atoms: _38  and  _43
REMARK    7  A    between atoms: _43  and  _46
REMARK    8  A    between atoms: _53  and  _55
REMARK                            x       y       z     vdW  Elec       q    Type
REMARK                         _______ _______ _______ _____ _____    ______ ____
ROOT
ATOM     10  C   UNL     1      11.725   4.676  26.103  0.00  0.00    +0.038 A 
ATOM     11  C   UNL     1      11.402   5.935  26.670  0.00  0.00    +0.047 A 
ATOM     12  C   UNL     1      11.697   7.175  25.968  0.00  0.00    +0.035 A 
ATOM     32  C   UNL     1      12.319   7.095  24.688  0.00  0.00    +0.024 A 
ATOM     33  C   UNL     1      12.655   5.823  24.097  0.00  0.00    +0.007 A 
ATOM     34  C   UNL     1      12.369   4.597  24.786  0.00  0.00    -0.029 A 
ATOM     35  C   UNL     1      12.757   3.263  24.107  0.00  0.00    +0.045 C 
ENDROOT
BRANCH  10   9
ATOM      4  C   UNL     1      12.887   1.157  29.152  0.00  0.00    +0.077 A 
ATOM      5  C   UNL     1      14.224   1.652  29.307  0.00  0.00    +0.048 A 
ATOM      6  C   UNL     1      14.575   2.811  28.579  0.00  0.00    +0.116 A 
ATOM      7  N   UNL     1      13.650   3.421  27.761  0.00  0.00    -0.223 NA
ATOM      8  C   UNL     1      12.369   2.916  27.632  0.00  0.00    +0.220 A 
ATOM      9  N   UNL     1      11.420   3.518  26.821  0.00  0.00    -0.283 N 
ATOM     36  H   UNL     1      10.488   3.110  26.747  0.00  0.00    +0.155 HD
ATOM     37  N   UNL     1      12.010   1.810  28.316  0.00  0.00    -0.214 NA
BRANCH   4   3
ATOM      1  C   UNL     1      12.586  -1.953  31.506  0.00  0.00    +0.020 A 
ATOM      2  C   UNL     1      13.137  -0.787  30.854  0.00  0.00    +0.013 A 
ATOM      3  C   UNL     1      12.365  -0.056  29.857  0.00  0.00    +0.019 A 
ATOM     38  C   UNL     1      11.027  -0.534  29.542  0.00  0.00    +0.120 A 
ATOM     39  N   UNL     1      10.523  -1.660  30.185  0.00  0.00    -0.263 NA
ATOM     40  C   UNL     1      11.258  -2.373  31.145  0.00  0.00    +0.111 A 
ENDBRANCH   4   3
ENDBRANCH  10   9
BRANCH  12  13
ATOM     13  N   UNL     1      11.400   8.483  26.498  0.00  0.00    -0.281 N 
ATOM     14  C   UNL     1      10.157   9.020  26.792  0.00  0.00    +0.248 C 
ATOM     30  O   UNL     1       9.093   8.533  26.441  0.00  0.00    -0.270 OA
ATOM     31  H   UNL     1      12.203   9.085  26.678  0.00  0.00    +0.155 HD
BRANCH  14  15
ATOM     15  C   UNL     1      10.087  10.291  27.576  0.00  0.00    +0.037 A 
ATOM     16  C   UNL     1       8.805  10.835  28.028  0.00  0.00    +0.013 A 
ATOM     17  C   UNL     1       8.764  12.071  28.768  0.00  0.00    +0.005 A 
ATOM     18  C   UNL     1      10.012  12.771  29.063  0.00  0.00    -0.033 A 
ATOM     28  C   UNL     1      11.271  12.206  28.607  0.00  0.00    +0.005 A 
ATOM     29  C   UNL     1      11.315  10.995  27.880  0.00  0.00    +0.013 A 
BRANCH  18  19
ATOM     19  C   UNL     1      10.062  14.106  29.828  0.00  0.00    +0.119 C 
BRANCH  19  20
ATOM     20  N   UNL     1       9.333  14.176  31.130  0.00  0.00    -0.302 NA
ATOM     21  C   UNL     1       9.829  15.330  32.006  0.00  0.00    +0.066 C 
ATOM     22  C   UNL     1       9.040  15.402  33.353  0.00  0.00    -0.064 C 
ATOM     23  N   UNL     1       9.171  14.067  34.090  0.00  0.00    +0.379 N 
ATOM     24  C   UNL     1       8.478  14.151  35.384  0.00  0.00    -0.096 C 
ATOM     25  H   UNL     1      10.254  13.900  34.295  0.00  0.00    -0.082 HD
ATOM     26  C   UNL     1       8.682  12.914  33.225  0.00  0.00    -0.064 C 
ATOM     27  C   UNL     1       9.452  12.870  31.876  0.00  0.00    +0.066 C 
ENDBRANCH  19  20
ENDBRANCH  18  19
ENDBRANCH  14  15
ENDBRANCH  12  13
TORSDOF 6
ENDMDL
