MODEL 1
REMARK VINA RESULT:      -8.4      0.000      0.000
REMARK  Name = C:\Users\Docking\Desktop\test protocol\1iep_ligandH.pdb
REMARK  8 active torsions:
REMARK  status: ('A' for Active; 'I' for Inactive)
REMARK    1  A    between atoms: _5  and  _11
REMARK    2  A    between atoms: _19  and  _21
REMARK    3  A    between atoms: _22  and  _66
REMARK    4  A    between atoms: _27  and  _30
REMARK    5  A    between atoms: _32  and  _33
REMARK    6  A    between atoms: _38  and  _43
REMARK    7  A    between atoms: _43  and  _46
REMARK    8  A    between atoms: _53  and  _55
REMARK                            x       y       z     vdW  Elec       q    Type
REMARK                         _______ _______ _______ _____ _____    ______ ____
ROOT
ATOM     10  C   UNL     1       9.764  -2.033  12.006  0.00  0.00    +0.038 A 
ATOM     11  C   UNL     1       8.901  -0.944  12.290  0.00  0.00    +0.047 A 
ATOM     12  C   UNL     1       8.513  -0.629  13.656  0.00  0.00    +0.035 A 
ATOM     32  C   UNL     1       9.025  -1.443  14.709  0.00  0.00    +0.024 A 
ATOM     33  C   UNL     1       9.902  -2.554  14.437  0.00  0.00    +0.007 A 
ATOM     34  C   UNL     1      10.286  -2.872  13.092  0.00  0.00    -0.029 A 
ATOM     35  C   UNL     1      11.223  -4.079  12.859  0.00  0.00    +0.045 C 
ENDROOT
BRANCH  10   9
ATOM      4  C   UNL     1       9.030  -4.219   7.796  0.00  0.00    +0.077 A 
ATOM      5  C   UNL     1       7.888  -4.929   8.296  0.00  0.00    +0.048 A 
ATOM      6  C   UNL     1       7.527  -4.709   9.645  0.00  0.00    +0.116 A 
ATOM      7  N   UNL     1       8.260  -3.841  10.425  0.00  0.00    -0.223 NA
ATOM      8  C   UNL     1       9.357  -3.174   9.911  0.00  0.00    +0.220 A 
ATOM      9  N   UNL     1      10.104  -2.291  10.676  0.00  0.00    -0.283 N 
ATOM     36  H   UNL     1      10.911  -1.824  10.262  0.00  0.00    +0.155 HD
ATOM     37  N   UNL     1       9.723  -3.368   8.627  0.00  0.00    -0.214 NA
BRANCH   4   3
ATOM      1  C   UNL     1       9.449  -5.310   4.063  0.00  0.00    +0.020 A 
ATOM      2  C   UNL     1       8.924  -5.227   5.406  0.00  0.00    +0.013 A 
ATOM      3  C   UNL     1       9.534  -4.343   6.392  0.00  0.00    +0.019 A 
ATOM     38  C   UNL     1      10.683  -3.550   5.983  0.00  0.00    +0.120 A 
ATOM     39  N   UNL     1      11.168  -3.652   4.682  0.00  0.00    -0.263 NA
ATOM     40  C   UNL     1      10.590  -4.500   3.726  0.00  0.00    +0.111 A 
ENDBRANCH   4   3
ENDBRANCH  10   9
BRANCH  12  13
ATOM     13  N   UNL     1       7.634   0.460  14.006  0.00  0.00    -0.281 N 
ATOM     14  C   UNL     1       6.249   0.472  13.995  0.00  0.00    +0.248 C 
ATOM     30  O   UNL     1       5.554  -0.388  13.476  0.00  0.00    -0.270 OA
ATOM     31  H   UNL     1       8.088   1.326  14.296  0.00  0.00    +0.155 HD
BRANCH  14  15
ATOM     15  C   UNL     1       5.533   1.613  14.642  0.00  0.00    +0.037 A 
ATOM     16  C   UNL     1       4.412   1.386  15.558  0.00  0.00    +0.013 A 
ATOM     17  C   UNL     1       3.727   2.505  16.156  0.00  0.00    +0.005 A 
ATOM     18  C   UNL     1       4.163   3.863  15.840  0.00  0.00    -0.033 A 
ATOM     28  C   UNL     1       5.281   4.060  14.932  0.00  0.00    +0.005 A 
ATOM     29  C   UNL     1       5.954   2.966  14.343  0.00  0.00    +0.013 A 
BRANCH  18  19
ATOM     19  C   UNL     1       3.477   5.116  16.415  0.00  0.00    +0.119 C 
BRANCH  19  20
ATOM     20  N   UNL     1       3.639   5.374  17.877  0.00  0.00    -0.302 NA
ATOM     21  C   UNL     1       3.578   6.868  18.206  0.00  0.00    +0.066 C 
ATOM     22  C   UNL     1       3.727   7.119  19.743  0.00  0.00    -0.064 C 
ATOM     23  N   UNL     1       5.042   6.509  20.231  0.00  0.00    +0.379 N 
ATOM     24  C   UNL     1       5.212   6.793  21.664  0.00  0.00    -0.096 C 
ATOM     25  H   UNL     1       5.872   7.014  19.685  0.00  0.00    -0.082 HD
ATOM     26  C   UNL     1       5.112   5.024  19.905  0.00  0.00    -0.064 C 
ATOM     27  C   UNL     1       4.934   4.784  18.380  0.00  0.00    +0.066 C 
ENDBRANCH  19  20
ENDBRANCH  18  19
ENDBRANCH  14  15
ENDBRANCH  12  13
TORSDOF 6
ENDMDL
MODEL 2
REMARK VINA RESULT:      -8.4      6.634      8.871
REMARK  Name = C:\Users\Docking\Desktop\test protocol\1iep_ligandH.pdb
REMARK  8 active torsions:
REMARK  status: ('A' for Active; 'I' for Inactive)
REMARK    1  A    between atoms: _5  and  _11
REMARK    2  A    between atoms: _19  and  _21
REMARK    3  A    between atoms: _22  and  _66
REMARK    4  A    between atoms: _27  and  _30
REMARK    5  A    between atoms: _32  and  _33
REMARK    6  A    between atoms: _38  and  _43
REMARK    7  A    between atoms: _43  and  _46
REMARK    8  A    between atoms: _53  and  _55
REMARK                            x       y       z     vdW  Elec       q    Type
REMARK                         _______ _______ _______ _____ _____    ______ ____
ROOT
ATOM     10  C   UNL     1       8.206  -4.255   6.926  0.00  0.00    +0.038 A 
ATOM     11  C   UNL     1       8.317  -4.459   8.325  0.00  0.00    +0.047 A 
ATOM     12  C   UNL     1       9.598  -4.340   9.004  0.00  0.00    +0.035 A 
ATOM     32  C   UNL     1      10.746  -4.008   8.227  0.00  0.00    +0.024 A 
ATOM     33  C   UNL     1      10.651  -3.797   6.804  0.00  0.00    +0.007 A 
ATOM     34  C   UNL     1       9.391  -3.917   6.128  0.00  0.00    -0.029 A 
ATOM     35  C   UNL     1       9.350  -3.687   4.599  0.00  0.00    +0.045 C 
ENDROOT
BRANCH  10   9
ATOM      4  C   UNL     1       3.866  -2.551   5.788  0.00  0.00    +0.077 A 
ATOM      5  C   UNL     1       4.108  -1.312   6.469  0.00  0.00    +0.048 A 
ATOM      6  C   UNL     1       5.360  -1.156   7.105  0.00  0.00    +0.116 A 
ATOM      7  N   UNL     1       6.292  -2.170   7.058  0.00  0.00    -0.223 NA
ATOM      8  C   UNL     1       6.025  -3.353   6.393  0.00  0.00    +0.220 A 
ATOM      9  N   UNL     1       6.951  -4.383   6.326  0.00  0.00    -0.283 N 
ATOM     36  H   UNL     1       6.713  -5.243   5.833  0.00  0.00    +0.155 HD
ATOM     37  N   UNL     1       4.837  -3.527   5.779  0.00  0.00    -0.214 NA
BRANCH   4   3
ATOM      1  C   UNL     1       0.341  -3.987   4.887  0.00  0.00    +0.020 A 
ATOM      2  C   UNL     1       1.552  -3.716   5.627  0.00  0.00    +0.013 A 
ATOM      3  C   UNL     1       2.593  -2.865   5.065  0.00  0.00    +0.019 A 
ATOM     38  C   UNL     1       2.375  -2.299   3.742  0.00  0.00    +0.120 A 
ATOM     39  N   UNL     1       1.200  -2.579   3.052  0.00  0.00    -0.263 NA
ATOM     40  C   UNL     1       0.192  -3.398   3.582  0.00  0.00    +0.111 A 
ENDBRANCH   4   3
ENDBRANCH  10   9
BRANCH  12  13
ATOM     13  N   UNL     1       9.773  -4.544  10.420  0.00  0.00    -0.281 N 
ATOM     14  C   UNL     1      10.025  -3.591  11.394  0.00  0.00    +0.248 C 
ATOM     30  O   UNL     1      10.352  -2.436  11.162  0.00  0.00    -0.270 OA
ATOM     31  H   UNL     1       9.703  -5.508  10.745  0.00  0.00    +0.155 HD
BRANCH  14  15
ATOM     15  C   UNL     1       9.912  -3.980  12.832  0.00  0.00    +0.037 A 
ATOM     16  C   UNL     1       9.563  -5.348  13.224  0.00  0.00    +0.013 A 
ATOM     17  C   UNL     1       9.444  -5.693  14.619  0.00  0.00    +0.005 A 
ATOM     18  C   UNL     1       9.675  -4.666  15.632  0.00  0.00    -0.033 A 
ATOM     28  C   UNL     1      10.025  -3.318  15.216  0.00  0.00    +0.005 A 
ATOM     29  C   UNL     1      10.142  -2.977  13.850  0.00  0.00    +0.013 A 
BRANCH  18  19
ATOM     19  C   UNL     1       9.549  -4.939  17.143  0.00  0.00    +0.119 C 
BRANCH  19  20
ATOM     20  N   UNL     1       8.233  -5.440  17.640  0.00  0.00    -0.302 NA
ATOM     21  C   UNL     1       8.109  -6.960  17.505  0.00  0.00    +0.066 C 
ATOM     22  C   UNL     1       6.735  -7.470  18.050  0.00  0.00    -0.064 C 
ATOM     23  N   UNL     1       5.600  -6.765  17.304  0.00  0.00    +0.379 N 
ATOM     24  C   UNL     1       4.307  -7.284  17.773  0.00  0.00    -0.096 C 
ATOM     25  H   UNL     1       5.696  -7.023  16.223  0.00  0.00    -0.082 HD
ATOM     26  C   UNL     1       5.718  -5.253  17.430  0.00  0.00    -0.064 C 
ATOM     27  C   UNL     1       7.098  -4.761  16.913  0.00  0.00    +0.066 C 
ENDBRANCH  19  20
ENDBRANCH  18  19
ENDBRANCH  14  15
ENDBRANCH  12  13
TORSDOF 6
ENDMDL
MODEL 3
REMARK VINA RESULT:      -8.4      6.438     13.807
REMARK  Name = C:\Users\Docking\Desktop\test protocol\1iep_ligandH.pdb
REMARK  8 active torsions:
REMARK  status: ('A' for Active; 'I' for Inactive)
REMARK    1  A    between atoms: _5  and  _11
REMARK    2  A    between atoms: _19  and  _21
REMARK    3  A    between atoms: _22  and  _66
REMARK    4  A    between atoms: _27  and  _30
REMARK    5  A    between atoms: _32  and  _33
REMARK    6  A    between atoms: _38  and  _43
REMARK    7  A    between atoms: _43  and  _46
REMARK    8  A    between atoms: _53  and  _55
REMARK                            x       y       z     vdW  Elec       q    Type
REMARK                         _______ _______ _______ _____ _____    ______ ____
ROOT
ATOM     10  C   UNL     1       9.730  -4.398   7.710  0.00  0.00    +0.038 A 
ATOM     11  C   UNL     1      10.859  -3.919   6.999  0.00  0.00    +0.047 A 
ATOM     12  C   UNL     1      10.787  -3.637   5.574  0.00  0.00    +0.035 A 
ATOM     32  C   UNL     1       9.547  -3.852   4.904  0.00  0.00    +0.024 A 
ATOM     33  C   UNL     1       8.389  -4.340   5.612  0.00  0.00    +0.007 A 
ATOM     34  C   UNL     1       8.455  -4.622   7.017  0.00  0.00    -0.029 A 
ATOM     35  C   UNL     1       7.184  -5.149   7.723  0.00  0.00    +0.045 C 
ENDROOT
BRANCH  10   9
ATOM      4  C   UNL     1       9.746  -2.978  12.295  0.00  0.00    +0.077 A 
ATOM      5  C   UNL     1       9.512  -1.610  11.934  0.00  0.00    +0.048 A 
ATOM      6  C   UNL     1       9.400  -1.312  10.557  0.00  0.00    +0.116 A 
ATOM      7  N   UNL     1       9.516  -2.316   9.620  0.00  0.00    -0.223 NA
ATOM      8  C   UNL     1       9.743  -3.625  10.002  0.00  0.00    +0.220 A 
ATOM      9  N   UNL     1       9.855  -4.652   9.078  0.00  0.00    -0.283 N 
ATOM     36  H   UNL     1      10.031  -5.604   9.400  0.00  0.00    +0.155 HD
ATOM     37  N   UNL     1       9.855  -3.935  11.311  0.00  0.00    -0.214 NA
BRANCH   4   3
ATOM      1  C   UNL     1       9.847  -5.248  15.479  0.00  0.00    +0.020 A 
ATOM      2  C   UNL     1       9.702  -4.843  14.100  0.00  0.00    +0.013 A 
ATOM      3  C   UNL     1       9.884  -3.451  13.709  0.00  0.00    +0.019 A 
ATOM     38  C   UNL     1      10.216  -2.486  14.746  0.00  0.00    +0.120 A 
ATOM     39  N   UNL     1      10.347  -2.904  16.066  0.00  0.00    -0.263 NA
ATOM     40  C   UNL     1      10.173  -4.241  16.455  0.00  0.00    +0.111 A 
ENDBRANCH   4   3
ENDBRANCH  10   9
BRANCH  12  13
ATOM     13  N   UNL     1      11.903  -3.157   4.798  0.00  0.00    -0.281 N 
ATOM     14  C   UNL     1      12.118  -1.875   4.318  0.00  0.00    +0.248 C 
ATOM     30  O   UNL     1      11.273  -0.992   4.302  0.00  0.00    -0.270 OA
ATOM     31  H   UNL     1      12.622  -3.845   4.575  0.00  0.00    +0.155 HD
BRANCH  14  15
ATOM     15  C   UNL     1      13.461  -1.528   3.762  0.00  0.00    +0.037 A 
ATOM     16  C   UNL     1      13.866  -1.965   2.423  0.00  0.00    +0.013 A 
ATOM     17  C   UNL     1      15.174  -1.631   1.918  0.00  0.00    +0.005 A 
ATOM     18  C   UNL     1      16.087  -0.853   2.752  0.00  0.00    -0.033 A 
ATOM     28  C   UNL     1      15.658  -0.428   4.074  0.00  0.00    +0.005 A 
ATOM     29  C   UNL     1      14.377  -0.754   4.573  0.00  0.00    +0.013 A 
BRANCH  18  19
ATOM     19  C   UNL     1      17.509  -0.469   2.302  0.00  0.00    +0.119 C 
BRANCH  19  20
ATOM     20  N   UNL     1      18.427   0.088   3.340  0.00  0.00    -0.302 NA
ATOM     21  C   UNL     1      18.689   1.582   3.134  0.00  0.00    +0.066 C 
ATOM     22  C   UNL     1      19.633   2.153   4.241  0.00  0.00    -0.064 C 
ATOM     23  N   UNL     1      20.946   1.369   4.242  0.00  0.00    +0.379 N 
ATOM     24  C   UNL     1      21.859   1.940   5.243  0.00  0.00    -0.096 C 
ATOM     25  H   UNL     1      21.418   1.499   3.240  0.00  0.00    -0.082 HD
ATOM     26  C   UNL     1      20.695  -0.119   4.444  0.00  0.00    -0.064 C 
ATOM     27  C   UNL     1      19.732  -0.670   3.355  0.00  0.00    +0.066 C 
ENDBRANCH  19  20
ENDBRANCH  18  19
ENDBRANCH  14  15
ENDBRANCH  12  13
TORSDOF 6
ENDMDL
MODEL 4
REMARK VINA RESULT:      -8.3      6.730     10.532
REMARK  Name = C:\Users\Docking\Desktop\test protocol\1iep_ligandH.pdb
REMARK  8 active torsions:
REMARK  status: ('A' for Active; 'I' for Inactive)
REMARK    1  A    between atoms: _5  and  _11
REMARK    2  A    between atoms: _19  and  _21
REMARK    3  A    between atoms: _22  and  _66
REMARK    4  A    between atoms: _27  and  _30
REMARK    5  A    between atoms: _32  and  _33
REMARK    6  A    between atoms: _38  and  _43
REMARK    7  A    between atoms: _43  and  _46
REMARK    8  A    between atoms: _53  and  _55
REMARK                            x       y       z     vdW  Elec       q    Type
REMARK                         _______ _______ _______ _____ _____    ______ ____
ROOT
ATOM     10  C   UNL     1      10.081  -4.382  13.379  0.00  0.00    +0.038 A 
ATOM     11  C   UNL     1       9.417  -5.359  14.163  0.00  0.00    +0.047 A 
ATOM     12  C   UNL     1       9.158  -5.141  15.578  0.00  0.00    +0.035 A 
ATOM     32  C   UNL     1       9.588  -3.913  16.161  0.00  0.00    +0.024 A 
ATOM     33  C   UNL     1      10.266  -2.909  15.379  0.00  0.00    +0.007 A 
ATOM     34  C   UNL     1      10.525  -3.120  13.983  0.00  0.00    -0.029 A 
ATOM     35  C   UNL     1      11.261  -2.012  13.195  0.00  0.00    +0.045 C 
ENDROOT
BRANCH  10   9
ATOM      4  C   UNL     1       8.729  -4.298   8.774  0.00  0.00    +0.077 A 
ATOM      5  C   UNL     1       7.462  -3.707   9.095  0.00  0.00    +0.048 A 
ATOM      6  C   UNL     1       7.195  -3.446  10.458  0.00  0.00    +0.116 A 
ATOM      7  N   UNL     1       8.131  -3.758  11.419  0.00  0.00    -0.223 NA
ATOM      8  C   UNL     1       9.343  -4.330  11.076  0.00  0.00    +0.220 A 
ATOM      9  N   UNL     1      10.303  -4.644  12.025  0.00  0.00    -0.283 N 
ATOM     36  H   UNL     1      11.181  -5.072  11.732  0.00  0.00    +0.155 HD
ATOM     37  N   UNL     1       9.622  -4.590   9.781  0.00  0.00    -0.214 NA
BRANCH   4   3
ATOM      1  C   UNL     1      10.764  -4.477   5.438  0.00  0.00    +0.020 A 
ATOM      2  C   UNL     1      10.394  -4.126   6.790  0.00  0.00    +0.013 A 
ATOM      3  C   UNL     1       9.160  -4.630   7.379  0.00  0.00    +0.019 A 
ATOM     38  C   UNL     1       8.317  -5.495   6.568  0.00  0.00    +0.120 A 
ATOM     39  N   UNL     1       8.698  -5.815   5.269  0.00  0.00    -0.263 NA
ATOM     40  C   UNL     1       9.882  -5.335   4.690  0.00  0.00    +0.111 A 
ENDBRANCH   4   3
ENDBRANCH  10   9
BRANCH  12  13
ATOM     13  N   UNL     1       8.496  -6.100  16.426  0.00  0.00    -0.281 N 
ATOM     14  C   UNL     1       7.233  -6.011  16.988  0.00  0.00    +0.248 C 
ATOM     30  O   UNL     1       6.562  -4.990  17.021  0.00  0.00    -0.270 OA
ATOM     31  H   UNL     1       9.021  -6.948  16.637  0.00  0.00    +0.155 HD
BRANCH  14  15
ATOM     15  C   UNL     1       6.635  -7.227  17.618  0.00  0.00    +0.037 A 
ATOM     16  C   UNL     1       7.471  -8.355  18.036  0.00  0.00    +0.013 A 
ATOM     17  C   UNL     1       6.867  -9.524  18.626  0.00  0.00    +0.005 A 
ATOM     18  C   UNL     1       5.417  -9.569  18.802  0.00  0.00    -0.033 A 
ATOM     28  C   UNL     1       4.612  -8.433  18.383  0.00  0.00    +0.005 A 
ATOM     29  C   UNL     1       5.201  -7.287  17.804  0.00  0.00    +0.013 A 
BRANCH  18  19
ATOM     19  C   UNL     1       4.685 -10.783  19.403  0.00  0.00    +0.119 C 
BRANCH  19  20
ATOM     20  N   UNL     1       4.903 -12.107  18.746  0.00  0.00    -0.302 NA
ATOM     21  C   UNL     1       6.184 -12.788  19.237  0.00  0.00    +0.066 C 
ATOM     22  C   UNL     1       6.385 -14.181  18.556  0.00  0.00    -0.064 C 
ATOM     23  N   UNL     1       6.414 -14.004  17.037  0.00  0.00    +0.379 N 
ATOM     24  C   UNL     1       6.661 -15.303  16.396  0.00  0.00    -0.096 C 
ATOM     25  H   UNL     1       7.273 -13.337  16.791  0.00  0.00    -0.082 HD
ATOM     26  C   UNL     1       5.146 -13.324  16.540  0.00  0.00    -0.064 C 
ATOM     27  C   UNL     1       4.940 -11.954  17.245  0.00  0.00    +0.066 C 
ENDBRANCH  19  20
ENDBRANCH  18  19
ENDBRANCH  14  15
ENDBRANCH  12  13
TORSDOF 6
ENDMDL
MODEL 5
REMARK VINA RESULT:      -8.3      6.862     14.574
REMARK  Name = C:\Users\Docking\Desktop\test protocol\1iep_ligandH.pdb
REMARK  8 active torsions:
REMARK  status: ('A' for Active; 'I' for Inactive)
REMARK    1  A    between atoms: _5  and  _11
REMARK    2  A    between atoms: _19  and  _21
REMARK    3  A    between atoms: _22  and  _66
REMARK    4  A    between atoms: _27  and  _30
REMARK    5  A    between atoms: _32  and  _33
REMARK    6  A    between atoms: _38  and  _43
REMARK    7  A    between atoms: _43  and  _46
REMARK    8  A    between atoms: _53  and  _55
REMARK                            x       y       z     vdW  Elec       q    Type
REMARK                         _______ _______ _______ _____ _____    ______ ____
ROOT
ATOM     10  C   UNL     1       8.648  -3.887   9.506  0.00  0.00    +0.038 A 
ATOM     11  C   UNL     1       9.701  -4.289   8.644  0.00  0.00    +0.047 A 
ATOM     12  C   UNL     1       9.836  -3.728   7.309  0.00  0.00    +0.035 A 
ATOM     32  C   UNL     1       8.883  -2.758   6.884  0.00  0.00    +0.024 A 
ATOM     33  C   UNL     1       7.806  -2.339   7.746  0.00  0.00    +0.007 A 
ATOM     34  C   UNL     1       7.666  -2.890   9.063  0.00  0.00    -0.029 A 
ATOM     35  C   UNL     1       6.488  -2.408   9.942  0.00  0.00    +0.045 C 
ENDROOT
BRANCH  10   9
ATOM      4  C   UNL     1       9.705  -3.963  14.187  0.00  0.00    +0.077 A 
ATOM      5  C   UNL     1      10.511  -2.780  14.085  0.00  0.00    +0.048 A 
ATOM      6  C   UNL     1      10.634  -2.187  12.808  0.00  0.00    +0.116 A 
ATOM      7  N   UNL     1       9.993  -2.744  11.722  0.00  0.00    -0.223 NA
ATOM      8  C   UNL     1       9.225  -3.886  11.855  0.00  0.00    +0.220 A 
ATOM      9  N   UNL     1       8.566  -4.458  10.778  0.00  0.00    -0.283 N 
ATOM     36  H   UNL     1       8.015  -5.304  10.916  0.00  0.00    +0.155 HD
ATOM     37  N   UNL     1       9.093  -4.472  13.063  0.00  0.00    -0.214 NA
BRANCH   4   3
ATOM      1  C   UNL     1      10.251  -5.635  17.681  0.00  0.00    +0.020 A 
ATOM      2  C   UNL     1      10.524  -4.914  16.459  0.00  0.00    +0.013 A 
ATOM      3  C   UNL     1       9.476  -4.703  15.468  0.00  0.00    +0.019 A 
ATOM     38  C   UNL     1       8.152  -5.237  15.747  0.00  0.00    +0.120 A 
ATOM     39  N   UNL     1       7.918  -5.928  16.932  0.00  0.00    -0.263 NA
ATOM     40  C   UNL     1       8.919  -6.140  17.891  0.00  0.00    +0.111 A 
ENDBRANCH   4   3
ENDBRANCH  10   9
BRANCH  12  13
ATOM     13  N   UNL     1      10.880  -4.104   6.387  0.00  0.00    -0.281 N 
ATOM     14  C   UNL     1      10.780  -4.927   5.278  0.00  0.00    +0.248 C 
ATOM     30  O   UNL     1       9.819  -5.641   5.031  0.00  0.00    -0.270 OA
ATOM     31  H   UNL     1      11.804  -3.716   6.576  0.00  0.00    +0.155 HD
BRANCH  14  15
ATOM     15  C   UNL     1      11.918  -4.976   4.310  0.00  0.00    +0.037 A 
ATOM     16  C   UNL     1      12.569  -6.243   3.965  0.00  0.00    +0.013 A 
ATOM     17  C   UNL     1      13.676  -6.259   3.042  0.00  0.00    +0.005 A 
ATOM     18  C   UNL     1      14.138  -5.004   2.456  0.00  0.00    -0.033 A 
ATOM     28  C   UNL     1      13.471  -3.762   2.811  0.00  0.00    +0.005 A 
ATOM     29  C   UNL     1      12.387  -3.742   3.717  0.00  0.00    +0.013 A 
BRANCH  18  19
ATOM     19  C   UNL     1      15.326  -4.924   1.478  0.00  0.00    +0.119 C 
BRANCH  19  20
ATOM     20  N   UNL     1      16.526  -4.155   1.921  0.00  0.00    -0.302 NA
ATOM     21  C   UNL     1      16.750  -2.900   1.073  0.00  0.00    +0.066 C 
ATOM     22  C   UNL     1      17.997  -2.095   1.565  0.00  0.00    -0.064 C 
ATOM     23  N   UNL     1      19.230  -3.000   1.530  0.00  0.00    +0.379 N 
ATOM     24  C   UNL     1      20.415  -2.230   1.937  0.00  0.00    -0.096 C 
ATOM     25  H   UNL     1      19.382  -3.323   0.474  0.00  0.00    -0.082 HD
ATOM     26  C   UNL     1      19.015  -4.252   2.369  0.00  0.00    -0.064 C 
ATOM     27  C   UNL     1      17.757  -5.028   1.890  0.00  0.00    +0.066 C 
ENDBRANCH  19  20
ENDBRANCH  18  19
ENDBRANCH  14  15
ENDBRANCH  12  13
TORSDOF 6
ENDMDL
