MODEL 1
REMARK VINA RESULT:      -8.5      0.000      0.000
REMARK  Name = C:\Users\Docking\Desktop\test protocol\1iep_ligandH.pdb
REMARK  8 active torsions:
REMARK  status: ('A' for Active; 'I' for Inactive)
REMARK    1  A    between atoms: _5  and  _11
REMARK    2  A    between atoms: _19  and  _21
REMARK    3  A    between atoms: _22  and  _66
REMARK    4  A    between atoms: _27  and  _30
REMARK    5  A    between atoms: _32  and  _33
REMARK    6  A    between atoms: _38  and  _43
REMARK    7  A    between atoms: _43  and  _46
REMARK    8  A    between atoms: _53  and  _55
REMARK                            x       y       z     vdW  Elec       q    Type
REMARK                         _______ _______ _______ _____ _____    ______ ____
ROOT
ATOM     10  C   UNL     1       8.030  -3.736   7.606  0.00  0.00    +0.038 A 
ATOM     11  C   UNL     1       8.236  -3.890   9.001  0.00  0.00    +0.047 A 
ATOM     12  C   UNL     1       9.577  -3.959   9.561  0.00  0.00    +0.035 A 
ATOM     32  C   UNL     1      10.686  -3.866   8.671  0.00  0.00    +0.024 A 
ATOM     33  C   UNL     1      10.495  -3.711   7.250  0.00  0.00    +0.007 A 
ATOM     34  C   UNL     1       9.175  -3.645   6.692  0.00  0.00    -0.029 A 
ATOM     35  C   UNL     1       9.030  -3.484   5.161  0.00  0.00    +0.045 C 
ENDROOT
BRANCH  10   9
ATOM      4  C   UNL     1       3.860  -1.451   6.958  0.00  0.00    +0.077 A 
ATOM      5  C   UNL     1       4.318  -0.291   7.665  0.00  0.00    +0.048 A 
ATOM      6  C   UNL     1       5.630  -0.325   8.187  0.00  0.00    +0.116 A 
ATOM      7  N   UNL     1       6.418  -1.441   8.008  0.00  0.00    -0.223 NA
ATOM      8  C   UNL     1       5.944  -2.545   7.322  0.00  0.00    +0.220 A 
ATOM      9  N   UNL     1       6.721  -3.676   7.123  0.00  0.00    -0.283 N 
ATOM     36  H   UNL     1       6.333  -4.472   6.618  0.00  0.00    +0.155 HD
ATOM     37  N   UNL     1       4.694  -2.538   6.815  0.00  0.00    -0.214 NA
BRANCH   4   3
ATOM      1  C   UNL     1       0.189  -0.682   5.847  0.00  0.00    +0.020 A 
ATOM      2  C   UNL     1       1.489  -0.521   6.457  0.00  0.00    +0.013 A 
ATOM      3  C   UNL     1       2.498  -1.566   6.346  0.00  0.00    +0.019 A 
ATOM     38  C   UNL     1       2.158  -2.771   5.604  0.00  0.00    +0.120 A 
ATOM     39  N   UNL     1       0.898  -2.899   5.028  0.00  0.00    -0.263 NA
ATOM     40  C   UNL     1      -0.082  -1.900   5.130  0.00  0.00    +0.111 A 
ENDBRANCH   4   3
ENDBRANCH  10   9
BRANCH  12  13
ATOM     13  N   UNL     1       9.847  -4.122  10.968  0.00  0.00    -0.281 N 
ATOM     14  C   UNL     1       9.922  -3.138  11.941  0.00  0.00    +0.248 C 
ATOM     30  O   UNL     1       9.979  -1.940  11.708  0.00  0.00    -0.270 OA
ATOM     31  H   UNL     1      10.002  -5.079  11.286  0.00  0.00    +0.155 HD
BRANCH  14  15
ATOM     15  C   UNL     1       9.952  -3.545  13.378  0.00  0.00    +0.037 A 
ATOM     16  C   UNL     1       9.946  -2.547  14.451  0.00  0.00    +0.013 A 
ATOM     17  C   UNL     1       9.993  -2.966  15.829  0.00  0.00    +0.005 A 
ATOM     18  C   UNL     1      10.045  -4.392  16.143  0.00  0.00    -0.033 A 
ATOM     28  C   UNL     1      10.046  -5.361  15.059  0.00  0.00    +0.005 A 
ATOM     29  C   UNL     1      10.001  -4.954  13.707  0.00  0.00    +0.013 A 
BRANCH  18  19
ATOM     19  C   UNL     1      10.119  -4.929  17.584  0.00  0.00    +0.119 C 
BRANCH  19  20
ATOM     20  N   UNL     1       8.965  -5.743  18.071  0.00  0.00    -0.302 NA
ATOM     21  C   UNL     1       9.107  -7.222  17.697  0.00  0.00    +0.066 C 
ATOM     22  C   UNL     1       7.903  -8.062  18.233  0.00  0.00    -0.064 C 
ATOM     23  N   UNL     1       6.597  -7.487  17.681  0.00  0.00    +0.379 N 
ATOM     24  C   UNL     1       5.467  -8.310  18.136  0.00  0.00    -0.096 C 
ATOM     25  H   UNL     1       6.641  -7.557  16.569  0.00  0.00    -0.082 HD
ATOM     26  C   UNL     1       6.449  -6.017  18.045  0.00  0.00    -0.064 C 
ATOM     27  C   UNL     1       7.666  -5.195  17.534  0.00  0.00    +0.066 C 
ENDBRANCH  19  20
ENDBRANCH  18  19
ENDBRANCH  14  15
ENDBRANCH  12  13
TORSDOF 6
ENDMDL
MODEL 2
REMARK VINA RESULT:      -8.4      6.543      9.033
REMARK  Name = C:\Users\Docking\Desktop\test protocol\1iep_ligandH.pdb
REMARK  8 active torsions:
REMARK  status: ('A' for Active; 'I' for Inactive)
REMARK    1  A    between atoms: _5  and  _11
REMARK    2  A    between atoms: _19  and  _21
REMARK    3  A    between atoms: _22  and  _66
REMARK    4  A    between atoms: _27  and  _30
REMARK    5  A    between atoms: _32  and  _33
REMARK    6  A    between atoms: _38  and  _43
REMARK    7  A    between atoms: _43  and  _46
REMARK    8  A    between atoms: _53  and  _55
REMARK                            x       y       z     vdW  Elec       q    Type
REMARK                         _______ _______ _______ _____ _____    ______ ____
ROOT
ATOM     10  C   UNL     1       9.839  -2.023  12.094  0.00  0.00    +0.038 A 
ATOM     11  C   UNL     1       8.971  -0.947  12.413  0.00  0.00    +0.047 A 
ATOM     12  C   UNL     1       8.581  -0.678  13.788  0.00  0.00    +0.035 A 
ATOM     32  C   UNL     1       9.096  -1.523  14.814  0.00  0.00    +0.024 A 
ATOM     33  C   UNL     1       9.978  -2.621  14.508  0.00  0.00    +0.007 A 
ATOM     34  C   UNL     1      10.364  -2.893  13.152  0.00  0.00    -0.029 A 
ATOM     35  C   UNL     1      11.308  -4.088  12.881  0.00  0.00    +0.045 C 
ENDROOT
BRANCH  10   9
ATOM      4  C   UNL     1       9.243  -4.227   7.872  0.00  0.00    +0.077 A 
ATOM      5  C   UNL     1       8.179  -5.042   8.381  0.00  0.00    +0.048 A 
ATOM      6  C   UNL     1       7.819  -4.869   9.736  0.00  0.00    +0.116 A 
ATOM      7  N   UNL     1       8.482  -3.945  10.515  0.00  0.00    -0.223 NA
ATOM      8  C   UNL     1       9.506  -3.176   9.993  0.00  0.00    +0.220 A 
ATOM      9  N   UNL     1      10.181  -2.235  10.756  0.00  0.00    -0.283 N 
ATOM     36  H   UNL     1      10.935  -1.693  10.337  0.00  0.00    +0.155 HD
ATOM     37  N   UNL     1       9.869  -3.324   8.702  0.00  0.00    -0.214 NA
BRANCH   4   3
ATOM      1  C   UNL     1       9.816  -5.337   4.165  0.00  0.00    +0.020 A 
ATOM      2  C   UNL     1       9.311  -5.320   5.519  0.00  0.00    +0.013 A 
ATOM      3  C   UNL     1       9.735  -4.291   6.459  0.00  0.00    +0.019 A 
ATOM     38  C   UNL     1      10.679  -3.285   5.995  0.00  0.00    +0.120 A 
ATOM     39  N   UNL     1      11.149  -3.328   4.686  0.00  0.00    -0.263 NA
ATOM     40  C   UNL     1      10.749  -4.314   3.772  0.00  0.00    +0.111 A 
ENDBRANCH   4   3
ENDBRANCH  10   9
BRANCH  12  13
ATOM     13  N   UNL     1       7.697   0.394  14.172  0.00  0.00    -0.281 N 
ATOM     14  C   UNL     1       6.319   0.452  14.036  0.00  0.00    +0.248 C 
ATOM     30  O   UNL     1       5.658  -0.325  13.364  0.00  0.00    -0.270 OA
ATOM     31  H   UNL     1       8.140   1.209  14.596  0.00  0.00    +0.155 HD
BRANCH  14  15
ATOM     15  C   UNL     1       5.570   1.540  14.735  0.00  0.00    +0.037 A 
ATOM     16  C   UNL     1       4.516   1.234  15.706  0.00  0.00    +0.013 A 
ATOM     17  C   UNL     1       3.797   2.302  16.354  0.00  0.00    +0.005 A 
ATOM     18  C   UNL     1       4.130   3.687  16.033  0.00  0.00    -0.033 A 
ATOM     28  C   UNL     1       5.184   3.963  15.070  0.00  0.00    +0.005 A 
ATOM     29  C   UNL     1       5.890   2.919  14.432  0.00  0.00    +0.013 A 
BRANCH  18  19
ATOM     19  C   UNL     1       3.401   4.890  16.660  0.00  0.00    +0.119 C 
BRANCH  19  20
ATOM     20  N   UNL     1       3.446   5.018  18.147  0.00  0.00    -0.302 NA
ATOM     21  C   UNL     1       2.838   6.338  18.629  0.00  0.00    +0.066 C 
ATOM     22  C   UNL     1       2.874   6.446  20.188  0.00  0.00    -0.064 C 
ATOM     23  N   UNL     1       4.318   6.306  20.674  0.00  0.00    +0.379 N 
ATOM     24  C   UNL     1       4.362   6.464  22.135  0.00  0.00    -0.096 C 
ATOM     25  H   UNL     1       4.908   7.138  20.225  0.00  0.00    -0.082 HD
ATOM     26  C   UNL     1       4.931   4.997  20.197  0.00  0.00    -0.064 C 
ATOM     27  C   UNL     1       4.864   4.887  18.648  0.00  0.00    +0.066 C 
ENDBRANCH  19  20
ENDBRANCH  18  19
ENDBRANCH  14  15
ENDBRANCH  12  13
TORSDOF 6
ENDMDL
MODEL 3
REMARK VINA RESULT:      -8.2      7.282     11.272
REMARK  Name = C:\Users\Docking\Desktop\test protocol\1iep_ligandH.pdb
REMARK  8 active torsions:
REMARK  status: ('A' for Active; 'I' for Inactive)
REMARK    1  A    between atoms: _5  and  _11
REMARK    2  A    between atoms: _19  and  _21
REMARK    3  A    between atoms: _22  and  _66
REMARK    4  A    between atoms: _27  and  _30
REMARK    5  A    between atoms: _32  and  _33
REMARK    6  A    between atoms: _38  and  _43
REMARK    7  A    between atoms: _43  and  _46
REMARK    8  A    between atoms: _53  and  _55
REMARK                            x       y       z     vdW  Elec       q    Type
REMARK                         _______ _______ _______ _____ _____    ______ ____
ROOT
ATOM     10  C   UNL     1       8.282  -1.951  13.579  0.00  0.00    +0.038 A 
ATOM     11  C   UNL     1       7.688  -0.795  14.148  0.00  0.00    +0.047 A 
ATOM     12  C   UNL     1       7.950   0.529  13.607  0.00  0.00    +0.035 A 
ATOM     32  C   UNL     1       8.820   0.640  12.483  0.00  0.00    +0.024 A 
ATOM     33  C   UNL     1       9.433  -0.524  11.893  0.00  0.00    +0.007 A 
ATOM     34  C   UNL     1       9.180  -1.833  12.425  0.00  0.00    -0.029 A 
ATOM     35  C   UNL     1       9.870  -3.045  11.756  0.00  0.00    +0.045 C 
ENDROOT
BRANCH  10   9
ATOM      4  C   UNL     1       9.082  -5.440  16.777  0.00  0.00    +0.077 A 
ATOM      5  C   UNL     1      10.181  -4.730  17.365  0.00  0.00    +0.048 A 
ATOM      6  C   UNL     1      10.513  -3.473  16.810  0.00  0.00    +0.116 A 
ATOM      7  N   UNL     1       9.792  -2.974  15.747  0.00  0.00    -0.223 NA
ATOM      8  C   UNL     1       8.739  -3.685  15.203  0.00  0.00    +0.220 A 
ATOM      9  N   UNL     1       7.995  -3.198  14.139  0.00  0.00    -0.283 N 
ATOM     36  H   UNL     1       7.230  -3.756  13.762  0.00  0.00    +0.155 HD
ATOM     37  N   UNL     1       8.403  -4.888  15.714  0.00  0.00    -0.214 NA
BRANCH   4   3
ATOM      1  C   UNL     1       8.888  -9.263  17.578  0.00  0.00    +0.020 A 
ATOM      2  C   UNL     1       9.392  -7.997  17.099  0.00  0.00    +0.013 A 
ATOM      3  C   UNL     1       8.608  -6.777  17.254  0.00  0.00    +0.019 A 
ATOM     38  C   UNL     1       7.310  -6.875  17.904  0.00  0.00    +0.120 A 
ATOM     39  N   UNL     1       6.850  -8.109  18.354  0.00  0.00    -0.263 NA
ATOM     40  C   UNL     1       7.595  -9.289  18.208  0.00  0.00    +0.111 A 
ENDBRANCH   4   3
ENDBRANCH  10   9
BRANCH  12  13
ATOM     13  N   UNL     1       7.382   1.740  14.147  0.00  0.00    -0.281 N 
ATOM     14  C   UNL     1       6.168   2.326  13.831  0.00  0.00    +0.248 C 
ATOM     30  O   UNL     1       5.477   2.010  12.873  0.00  0.00    -0.270 OA
ATOM     31  H   UNL     1       7.944   2.223  14.848  0.00  0.00    +0.155 HD
BRANCH  14  15
ATOM     15  C   UNL     1       5.653   3.432  14.694  0.00  0.00    +0.037 A 
ATOM     16  C   UNL     1       5.550   4.804  14.190  0.00  0.00    +0.013 A 
ATOM     17  C   UNL     1       5.067   5.856  15.050  0.00  0.00    +0.005 A 
ATOM     18  C   UNL     1       4.680   5.538  16.422  0.00  0.00    -0.033 A 
ATOM     28  C   UNL     1       4.787   4.167  16.894  0.00  0.00    +0.005 A 
ATOM     29  C   UNL     1       5.262   3.134  16.055  0.00  0.00    +0.013 A 
BRANCH  18  19
ATOM     19  C   UNL     1       4.173   6.600  17.415  0.00  0.00    +0.119 C 
BRANCH  19  20
ATOM     20  N   UNL     1       3.657   6.116  18.730  0.00  0.00    -0.302 NA
ATOM     21  C   UNL     1       2.139   6.276  18.846  0.00  0.00    +0.066 C 
ATOM     22  C   UNL     1       1.613   5.743  20.218  0.00  0.00    -0.064 C 
ATOM     23  N   UNL     1       2.323   6.482  21.354  0.00  0.00    +0.379 N 
ATOM     24  C   UNL     1       1.789   6.024  22.646  0.00  0.00    -0.096 C 
ATOM     25  H   UNL     1       2.084   7.566  21.254  0.00  0.00    -0.082 HD
ATOM     26  C   UNL     1       3.833   6.330  21.246  0.00  0.00    -0.064 C 
ATOM     27  C   UNL     1       4.342   6.835  19.867  0.00  0.00    +0.066 C 
ENDBRANCH  19  20
ENDBRANCH  18  19
ENDBRANCH  14  15
ENDBRANCH  12  13
TORSDOF 6
ENDMDL
MODEL 4
REMARK VINA RESULT:      -8.2      6.499     11.211
REMARK  Name = C:\Users\Docking\Desktop\test protocol\1iep_ligandH.pdb
REMARK  8 active torsions:
REMARK  status: ('A' for Active; 'I' for Inactive)
REMARK    1  A    between atoms: _5  and  _11
REMARK    2  A    between atoms: _19  and  _21
REMARK    3  A    between atoms: _22  and  _66
REMARK    4  A    between atoms: _27  and  _30
REMARK    5  A    between atoms: _32  and  _33
REMARK    6  A    between atoms: _38  and  _43
REMARK    7  A    between atoms: _43  and  _46
REMARK    8  A    between atoms: _53  and  _55
REMARK                            x       y       z     vdW  Elec       q    Type
REMARK                         _______ _______ _______ _____ _____    ______ ____
ROOT
ATOM     10  C   UNL     1       8.814  -3.423  13.981  0.00  0.00    +0.038 A 
ATOM     11  C   UNL     1       7.977  -2.334  14.335  0.00  0.00    +0.047 A 
ATOM     12  C   UNL     1       8.262  -0.985  13.872  0.00  0.00    +0.035 A 
ATOM     32  C   UNL     1       9.407  -0.781  13.047  0.00  0.00    +0.024 A 
ATOM     33  C   UNL     1      10.269  -1.877  12.678  0.00  0.00    +0.007 A 
ATOM     34  C   UNL     1       9.994  -3.210  13.134  0.00  0.00    -0.029 A 
ATOM     35  C   UNL     1      10.956  -4.345  12.713  0.00  0.00    +0.045 C 
ENDROOT
BRANCH  10   9
ATOM      4  C   UNL     1       8.987  -6.867  17.319  0.00  0.00    +0.077 A 
ATOM      5  C   UNL     1       9.809  -6.070  18.184  0.00  0.00    +0.048 A 
ATOM      6  C   UNL     1      10.170  -4.782  17.729  0.00  0.00    +0.116 A 
ATOM      7  N   UNL     1       9.737  -4.335  16.500  0.00  0.00    -0.223 NA
ATOM      8  C   UNL     1       8.947  -5.130  15.690  0.00  0.00    +0.220 A 
ATOM      9  N   UNL     1       8.493  -4.698  14.453  0.00  0.00    -0.283 N 
ATOM     36  H   UNL     1       7.919  -5.317  13.882  0.00  0.00    +0.155 HD
ATOM     37  N   UNL     1       8.589  -6.365  16.101  0.00  0.00    -0.214 NA
BRANCH   4   3
ATOM      1  C   UNL     1       8.823 -10.750  17.763  0.00  0.00    +0.020 A 
ATOM      2  C   UNL     1       9.321  -9.440  17.414  0.00  0.00    +0.013 A 
ATOM      3  C   UNL     1       8.519  -8.248  17.661  0.00  0.00    +0.019 A 
ATOM     38  C   UNL     1       7.207  -8.418  18.267  0.00  0.00    +0.120 A 
ATOM     39  N   UNL     1       6.753  -9.692  18.591  0.00  0.00    -0.263 NA
ATOM     40  C   UNL     1       7.515 -10.847  18.357  0.00  0.00    +0.111 A 
ENDBRANCH   4   3
ENDBRANCH  10   9
BRANCH  12  13
ATOM     13  N   UNL     1       7.454   0.161  14.205  0.00  0.00    -0.281 N 
ATOM     14  C   UNL     1       6.084   0.307  14.063  0.00  0.00    +0.248 C 
ATOM     30  O   UNL     1       5.370  -0.452  13.424  0.00  0.00    -0.270 OA
ATOM     31  H   UNL     1       7.952   0.962  14.594  0.00  0.00    +0.155 HD
BRANCH  14  15
ATOM     15  C   UNL     1       5.410   1.474  14.711  0.00  0.00    +0.037 A 
ATOM     16  C   UNL     1       4.261   1.289  15.601  0.00  0.00    +0.013 A 
ATOM     17  C   UNL     1       3.620   2.433  16.200  0.00  0.00    +0.005 A 
ATOM     18  C   UNL     1       4.128   3.772  15.912  0.00  0.00    -0.033 A 
ATOM     28  C   UNL     1       5.273   3.925  15.030  0.00  0.00    +0.005 A 
ATOM     29  C   UNL     1       5.904   2.807  14.440  0.00  0.00    +0.013 A 
BRANCH  18  19
ATOM     19  C   UNL     1       3.493   5.050  16.491  0.00  0.00    +0.119 C 
BRANCH  19  20
ATOM     20  N   UNL     1       3.604   5.262  17.965  0.00  0.00    -0.302 NA
ATOM     21  C   UNL     1       3.527   6.745  18.340  0.00  0.00    +0.066 C 
ATOM     22  C   UNL     1       3.622   6.947  19.887  0.00  0.00    -0.064 C 
ATOM     23  N   UNL     1       4.922   6.325  20.400  0.00  0.00    +0.379 N 
ATOM     24  C   UNL     1       5.042   6.564  21.846  0.00  0.00    -0.096 C 
ATOM     25  H   UNL     1       5.768   6.850  19.899  0.00  0.00    -0.082 HD
ATOM     26  C   UNL     1       5.008   4.851  20.030  0.00  0.00    -0.064 C 
ATOM     27  C   UNL     1       4.883   4.660  18.493  0.00  0.00    +0.066 C 
ENDBRANCH  19  20
ENDBRANCH  18  19
ENDBRANCH  14  15
ENDBRANCH  12  13
TORSDOF 6
ENDMDL
MODEL 5
REMARK VINA RESULT:      -8.1      4.846      8.289
REMARK  Name = C:\Users\Docking\Desktop\test protocol\1iep_ligandH.pdb
REMARK  8 active torsions:
REMARK  status: ('A' for Active; 'I' for Inactive)
REMARK    1  A    between atoms: _5  and  _11
REMARK    2  A    between atoms: _19  and  _21
REMARK    3  A    between atoms: _22  and  _66
REMARK    4  A    between atoms: _27  and  _30
REMARK    5  A    between atoms: _32  and  _33
REMARK    6  A    between atoms: _38  and  _43
REMARK    7  A    between atoms: _43  and  _46
REMARK    8  A    between atoms: _53  and  _55
REMARK                            x       y       z     vdW  Elec       q    Type
REMARK                         _______ _______ _______ _____ _____    ______ ____
ROOT
ATOM     10  C   UNL     1       9.491  -4.874  15.060  0.00  0.00    +0.038 A 
ATOM     11  C   UNL     1       9.274  -6.240  15.373  0.00  0.00    +0.047 A 
ATOM     12  C   UNL     1       9.542  -6.759  16.705  0.00  0.00    +0.035 A 
ATOM     32  C   UNL     1      10.029  -5.858  17.696  0.00  0.00    +0.024 A 
ATOM     33  C   UNL     1      10.257  -4.466  17.395  0.00  0.00    +0.007 A 
ATOM     34  C   UNL     1       9.996  -3.949  16.082  0.00  0.00    -0.029 A 
ATOM     35  C   UNL     1      10.264  -2.450  15.814  0.00  0.00    +0.045 C 
ENDROOT
BRANCH  10   9
ATOM      4  C   UNL     1       6.710  -2.629  11.856  0.00  0.00    +0.077 A 
ATOM      5  C   UNL     1       5.707  -2.341  12.841  0.00  0.00    +0.048 A 
ATOM      6  C   UNL     1       5.942  -2.794  14.158  0.00  0.00    +0.116 A 
ATOM      7  N   UNL     1       7.097  -3.483  14.458  0.00  0.00    -0.223 NA
ATOM      8  C   UNL     1       8.043  -3.746  13.484  0.00  0.00    +0.220 A 
ATOM      9  N   UNL     1       9.216  -4.430  13.765  0.00  0.00    -0.283 N 
ATOM     36  H   UNL     1       9.885  -4.610  13.017  0.00  0.00    +0.155 HD
ATOM     37  N   UNL     1       7.842  -3.325  12.218  0.00  0.00    -0.214 NA
BRANCH   4   3
ATOM      1  C   UNL     1       5.318  -1.371   8.424  0.00  0.00    +0.020 A 
ATOM      2  C   UNL     1       5.362  -1.762   9.814  0.00  0.00    +0.013 A 
ATOM      3  C   UNL     1       6.608  -2.214  10.422  0.00  0.00    +0.019 A 
ATOM     38  C   UNL     1       7.800  -2.258   9.588  0.00  0.00    +0.120 A 
ATOM     39  N   UNL     1       7.726  -1.878   8.252  0.00  0.00    -0.263 NA
ATOM     40  C   UNL     1       6.533  -1.443   7.656  0.00  0.00    +0.111 A 
ENDBRANCH   4   3
ENDBRANCH  10   9
BRANCH  12  13
ATOM     13  N   UNL     1       9.348  -8.138  17.079  0.00  0.00    -0.281 N 
ATOM     14  C   UNL     1       8.227  -8.716  17.651  0.00  0.00    +0.248 C 
ATOM     30  O   UNL     1       7.293  -8.088  18.128  0.00  0.00    -0.270 OA
ATOM     31  H   UNL     1      10.133  -8.765  16.899  0.00  0.00    +0.155 HD
BRANCH  14  15
ATOM     15  C   UNL     1       8.136 -10.206  17.717  0.00  0.00    +0.037 A 
ATOM     16  C   UNL     1       7.253 -10.954  16.818  0.00  0.00    +0.013 A 
ATOM     17  C   UNL     1       7.172 -12.390  16.914  0.00  0.00    +0.005 A 
ATOM     18  C   UNL     1       7.978 -13.088  17.913  0.00  0.00    -0.033 A 
ATOM     28  C   UNL     1       8.850 -12.322  18.788  0.00  0.00    +0.005 A 
ATOM     29  C   UNL     1       8.931 -10.914  18.698  0.00  0.00    +0.013 A 
BRANCH  18  19
ATOM     19  C   UNL     1       7.939 -14.616  18.100  0.00  0.00    +0.119 C 
BRANCH  19  20
ATOM     20  N   UNL     1       9.039 -15.410  17.476  0.00  0.00    -0.302 NA
ATOM     21  C   UNL     1      10.383 -15.177  18.171  0.00  0.00    +0.066 C 
ATOM     22  C   UNL     1      11.517 -16.032  17.519  0.00  0.00    -0.064 C 
ATOM     23  N   UNL     1      11.613 -15.697  16.030  0.00  0.00    +0.379 N 
ATOM     24  C   UNL     1      12.717 -16.457  15.426  0.00  0.00    -0.096 C 
ATOM     25  H   UNL     1      11.860 -14.614  15.942  0.00  0.00    -0.082 HD
ATOM     26  C   UNL     1      10.280 -15.924  15.331  0.00  0.00    -0.064 C 
ATOM     27  C   UNL     1       9.154 -15.092  16.005  0.00  0.00    +0.066 C 
ENDBRANCH  19  20
ENDBRANCH  18  19
ENDBRANCH  14  15
ENDBRANCH  12  13
TORSDOF 6
ENDMDL
