MODEL 1
REMARK VINA RESULT:      -8.3      0.000      0.000
REMARK  Name = C:\Users\Docking\Desktop\test protocol\1iep_ligandH.pdb
REMARK  8 active torsions:
REMARK  status: ('A' for Active; 'I' for Inactive)
REMARK    1  A    between atoms: _5  and  _11
REMARK    2  A    between atoms: _19  and  _21
REMARK    3  A    between atoms: _22  and  _66
REMARK    4  A    between atoms: _27  and  _30
REMARK    5  A    between atoms: _32  and  _33
REMARK    6  A    between atoms: _38  and  _43
REMARK    7  A    between atoms: _43  and  _46
REMARK    8  A    between atoms: _53  and  _55
REMARK                            x       y       z     vdW  Elec       q    Type
REMARK                         _______ _______ _______ _____ _____    ______ ____
ROOT
ATOM     10  C   UNL     1       5.335   5.401  16.742  0.00  0.00    +0.038 A 
ATOM     11  C   UNL     1       5.648   4.053  16.430  0.00  0.00    +0.047 A 
ATOM     12  C   UNL     1       5.136   3.422  15.223  0.00  0.00    +0.035 A 
ATOM     32  C   UNL     1       4.311   4.194  14.355  0.00  0.00    +0.024 A 
ATOM     33  C   UNL     1       3.982   5.565  14.657  0.00  0.00    +0.007 A 
ATOM     34  C   UNL     1       4.482   6.192  15.847  0.00  0.00    -0.029 A 
ATOM     35  C   UNL     1       4.093   7.663  16.124  0.00  0.00    +0.045 C 
ENDROOT
BRANCH  10   9
ATOM      4  C   UNL     1       4.970   6.624  21.368  0.00  0.00    +0.077 A 
ATOM      5  C   UNL     1       3.622   6.139  21.451  0.00  0.00    +0.048 A 
ATOM      6  C   UNL     1       3.057   5.589  20.279  0.00  0.00    +0.116 A 
ATOM      7  N   UNL     1       3.795   5.532  19.116  0.00  0.00    -0.223 NA
ATOM      8  C   UNL     1       5.091   6.011  19.070  0.00  0.00    +0.220 A 
ATOM      9  N   UNL     1       5.854   5.957  17.913  0.00  0.00    -0.283 N 
ATOM     36  H   UNL     1       6.804   6.327  17.918  0.00  0.00    +0.155 HD
ATOM     37  N   UNL     1       5.653   6.542  20.176  0.00  0.00    -0.214 NA
BRANCH   4   3
ATOM      1  C   UNL     1       5.829   8.683  24.581  0.00  0.00    +0.020 A 
ATOM      2  C   UNL     1       5.073   8.125  23.484  0.00  0.00    +0.013 A 
ATOM      3  C   UNL     1       5.706   7.230  22.523  0.00  0.00    +0.019 A 
ATOM     38  C   UNL     1       7.115   6.917  22.703  0.00  0.00    +0.120 A 
ATOM     39  N   UNL     1       7.818   7.470  23.769  0.00  0.00    -0.263 NA
ATOM     40  C   UNL     1       7.221   8.334  24.698  0.00  0.00    +0.111 A 
ENDBRANCH   4   3
ENDBRANCH  10   9
BRANCH  12  13
ATOM     13  N   UNL     1       5.413   2.055  14.858  0.00  0.00    -0.281 N 
ATOM     14  C   UNL     1       4.504   1.052  14.561  0.00  0.00    +0.248 C 
ATOM     30  O   UNL     1       3.303   1.123  14.772  0.00  0.00    -0.270 OA
ATOM     31  H   UNL     1       6.398   1.794  14.814  0.00  0.00    +0.155 HD
BRANCH  14  15
ATOM     15  C   UNL     1       5.005  -0.219  13.954  0.00  0.00    +0.037 A 
ATOM     16  C   UNL     1       4.082  -1.281  13.546  0.00  0.00    +0.013 A 
ATOM     17  C   UNL     1       4.592  -2.504  12.979  0.00  0.00    +0.005 A 
ATOM     18  C   UNL     1       6.034  -2.671  12.815  0.00  0.00    -0.033 A 
ATOM     28  C   UNL     1       6.927  -1.598  13.223  0.00  0.00    +0.005 A 
ATOM     29  C   UNL     1       6.431  -0.399  13.780  0.00  0.00    +0.013 A 
BRANCH  18  19
ATOM     19  C   UNL     1       6.669  -3.950  12.238  0.00  0.00    +0.119 C 
BRANCH  19  20
ATOM     20  N   UNL     1       7.742  -3.780  11.214  0.00  0.00    -0.302 NA
ATOM     21  C   UNL     1       7.178  -3.353   9.856  0.00  0.00    +0.066 C 
ATOM     22  C   UNL     1       8.317  -3.157   8.803  0.00  0.00    -0.064 C 
ATOM     23  N   UNL     1       9.117  -4.455   8.673  0.00  0.00    +0.379 N 
ATOM     24  C   UNL     1      10.152  -4.292   7.642  0.00  0.00    -0.096 C 
ATOM     25  H   UNL     1       8.416  -5.250   8.328  0.00  0.00    -0.082 HD
ATOM     26  C   UNL     1       9.679  -4.888  10.020  0.00  0.00    -0.064 C 
ATOM     27  C   UNL     1       8.542  -5.051  11.067  0.00  0.00    +0.066 C 
ENDBRANCH  19  20
ENDBRANCH  18  19
ENDBRANCH  14  15
ENDBRANCH  12  13
TORSDOF 6
ENDMDL
MODEL 2
REMARK VINA RESULT:      -8.1      8.193     12.124
REMARK  Name = C:\Users\Docking\Desktop\test protocol\1iep_ligandH.pdb
REMARK  8 active torsions:
REMARK  status: ('A' for Active; 'I' for Inactive)
REMARK    1  A    between atoms: _5  and  _11
REMARK    2  A    between atoms: _19  and  _21
REMARK    3  A    between atoms: _22  and  _66
REMARK    4  A    between atoms: _27  and  _30
REMARK    5  A    between atoms: _32  and  _33
REMARK    6  A    between atoms: _38  and  _43
REMARK    7  A    between atoms: _43  and  _46
REMARK    8  A    between atoms: _53  and  _55
REMARK                            x       y       z     vdW  Elec       q    Type
REMARK                         _______ _______ _______ _____ _____    ______ ____
ROOT
ATOM     10  C   UNL     1       6.992  -0.787  10.747  0.00  0.00    +0.038 A 
ATOM     11  C   UNL     1       7.607   0.470  10.519  0.00  0.00    +0.047 A 
ATOM     12  C   UNL     1       7.299   1.254   9.332  0.00  0.00    +0.035 A 
ATOM     32  C   UNL     1       6.358   0.728   8.400  0.00  0.00    +0.024 A 
ATOM     33  C   UNL     1       5.724  -0.549   8.617  0.00  0.00    +0.007 A 
ATOM     34  C   UNL     1       6.026  -1.328   9.784  0.00  0.00    -0.029 A 
ATOM     35  C   UNL     1       5.321  -2.693   9.961  0.00  0.00    +0.045 C 
ENDROOT
BRANCH  10   9
ATOM      4  C   UNL     1       9.750  -3.881  13.168  0.00  0.00    +0.077 A 
ATOM      5  C   UNL     1      10.583  -4.124  12.026  0.00  0.00    +0.048 A 
ATOM      6  C   UNL     1      10.263  -3.438  10.832  0.00  0.00    +0.116 A 
ATOM      7  N   UNL     1       9.189  -2.576  10.796  0.00  0.00    -0.223 NA
ATOM      8  C   UNL     1       8.405  -2.366  11.915  0.00  0.00    +0.220 A 
ATOM      9  N   UNL     1       7.325  -1.497  11.903  0.00  0.00    -0.283 N 
ATOM     36  H   UNL     1       6.767  -1.375  12.748  0.00  0.00    +0.155 HD
ATOM     37  N   UNL     1       8.688  -3.010  13.066  0.00  0.00    -0.214 NA
BRANCH   4   3
ATOM      1  C   UNL     1       9.953  -6.523  16.045  0.00  0.00    +0.020 A 
ATOM      2  C   UNL     1       9.733  -5.948  14.738  0.00  0.00    +0.013 A 
ATOM      3  C   UNL     1       9.961  -4.528  14.502  0.00  0.00    +0.019 A 
ATOM     38  C   UNL     1      10.416  -3.712  15.617  0.00  0.00    +0.120 A 
ATOM     39  N   UNL     1      10.618  -4.293  16.865  0.00  0.00    -0.263 NA
ATOM     40  C   UNL     1      10.400  -5.658  17.105  0.00  0.00    +0.111 A 
ENDBRANCH   4   3
ENDBRANCH  10   9
BRANCH  12  13
ATOM     13  N   UNL     1       7.898   2.533   9.043  0.00  0.00    -0.281 N 
ATOM     14  C   UNL     1       7.523   3.777   9.522  0.00  0.00    +0.248 C 
ATOM     30  O   UNL     1       6.475   4.005  10.108  0.00  0.00    -0.270 OA
ATOM     31  H   UNL     1       8.696   2.520   8.407  0.00  0.00    +0.155 HD
BRANCH  14  15
ATOM     15  C   UNL     1       8.436   4.940   9.306  0.00  0.00    +0.037 A 
ATOM     16  C   UNL     1       9.135   5.131   8.032  0.00  0.00    +0.013 A 
ATOM     17  C   UNL     1      10.024   6.252   7.856  0.00  0.00    +0.005 A 
ATOM     18  C   UNL     1      10.218   7.193   8.957  0.00  0.00    -0.033 A 
ATOM     28  C   UNL     1       9.508   6.982  10.208  0.00  0.00    +0.005 A 
ATOM     29  C   UNL     1       8.637   5.884  10.385  0.00  0.00    +0.013 A 
BRANCH  18  19
ATOM     19  C   UNL     1      11.164   8.405   8.866  0.00  0.00    +0.119 C 
BRANCH  19  20
ATOM     20  N   UNL     1      12.559   8.223   9.366  0.00  0.00    -0.302 NA
ATOM     21  C   UNL     1      13.270   9.562   9.584  0.00  0.00    +0.066 C 
ATOM     22  C   UNL     1      14.720   9.354  10.129  0.00  0.00    -0.064 C 
ATOM     23  N   UNL     1      15.507   8.475   9.156  0.00  0.00    +0.379 N 
ATOM     24  C   UNL     1      16.888   8.325   9.636  0.00  0.00    -0.096 C 
ATOM     25  H   UNL     1      15.545   9.006   8.176  0.00  0.00    -0.082 HD
ATOM     26  C   UNL     1      14.806   7.143   8.931  0.00  0.00    -0.064 C 
ATOM     27  C   UNL     1      13.355   7.362   8.418  0.00  0.00    +0.066 C 
ENDBRANCH  19  20
ENDBRANCH  18  19
ENDBRANCH  14  15
ENDBRANCH  12  13
TORSDOF 6
ENDMDL
MODEL 3
REMARK VINA RESULT:      -8.1      7.185     11.490
REMARK  Name = C:\Users\Docking\Desktop\test protocol\1iep_ligandH.pdb
REMARK  8 active torsions:
REMARK  status: ('A' for Active; 'I' for Inactive)
REMARK    1  A    between atoms: _5  and  _11
REMARK    2  A    between atoms: _19  and  _21
REMARK    3  A    between atoms: _22  and  _66
REMARK    4  A    between atoms: _27  and  _30
REMARK    5  A    between atoms: _32  and  _33
REMARK    6  A    between atoms: _38  and  _43
REMARK    7  A    between atoms: _43  and  _46
REMARK    8  A    between atoms: _53  and  _55
REMARK                            x       y       z     vdW  Elec       q    Type
REMARK                         _______ _______ _______ _____ _____    ______ ____
ROOT
ATOM     10  C   UNL     1       6.395   0.416  12.980  0.00  0.00    +0.038 A 
ATOM     11  C   UNL     1       7.166   1.433  12.360  0.00  0.00    +0.047 A 
ATOM     12  C   UNL     1       6.554   2.396  11.458  0.00  0.00    +0.035 A 
ATOM     32  C   UNL     1       5.154   2.295  11.210  0.00  0.00    +0.024 A 
ATOM     33  C   UNL     1       4.356   1.267  11.830  0.00  0.00    +0.007 A 
ATOM     34  C   UNL     1       4.954   0.313  12.719  0.00  0.00    -0.029 A 
ATOM     35  C   UNL     1       4.051  -0.772  13.351  0.00  0.00    +0.045 C 
ENDROOT
BRANCH  10   9
ATOM      4  C   UNL     1       8.865  -3.614  13.813  0.00  0.00    +0.077 A 
ATOM      5  C   UNL     1       8.859  -3.975  12.425  0.00  0.00    +0.048 A 
ATOM      6  C   UNL     1       8.204  -3.100  11.530  0.00  0.00    +0.116 A 
ATOM      7  N   UNL     1       7.603  -1.952  11.999  0.00  0.00    -0.223 NA
ATOM      8  C   UNL     1       7.625  -1.635  13.345  0.00  0.00    +0.220 A 
ATOM      9  N   UNL     1       7.034  -0.482  13.838  0.00  0.00    -0.283 N 
ATOM     36  H   UNL     1       7.065  -0.287  14.838  0.00  0.00    +0.155 HD
ATOM     37  N   UNL     1       8.243  -2.455  14.220  0.00  0.00    -0.214 NA
BRANCH   4   3
ATOM      1  C   UNL     1      10.836  -4.683  17.018  0.00  0.00    +0.020 A 
ATOM      2  C   UNL     1      10.222  -3.846  16.014  0.00  0.00    +0.013 A 
ATOM      3  C   UNL     1       9.519  -4.435  14.881  0.00  0.00    +0.019 A 
ATOM     38  C   UNL     1       9.455  -5.886  14.793  0.00  0.00    +0.120 A 
ATOM     39  N   UNL     1      10.057  -6.667  15.775  0.00  0.00    -0.263 NA
ATOM     40  C   UNL     1      10.738  -6.112  16.869  0.00  0.00    +0.111 A 
ENDBRANCH   4   3
ENDBRANCH  10   9
BRANCH  12  13
ATOM     13  N   UNL     1       7.287   3.445  10.794  0.00  0.00    -0.281 N 
ATOM     14  C   UNL     1       7.307   4.796  11.100  0.00  0.00    +0.248 C 
ATOM     30  O   UNL     1       6.525   5.342  11.864  0.00  0.00    -0.270 OA
ATOM     31  H   UNL     1       7.862   3.157  10.002  0.00  0.00    +0.155 HD
BRANCH  14  15
ATOM     15  C   UNL     1       8.334   5.668  10.454  0.00  0.00    +0.037 A 
ATOM     16  C   UNL     1       8.673   5.520   9.036  0.00  0.00    +0.013 A 
ATOM     17  C   UNL     1       9.680   6.364   8.442  0.00  0.00    +0.005 A 
ATOM     18  C   UNL     1      10.354   7.364   9.266  0.00  0.00    -0.033 A 
ATOM     28  C   UNL     1       9.994   7.493  10.668  0.00  0.00    +0.005 A 
ATOM     29  C   UNL     1       9.008   6.668  11.254  0.00  0.00    +0.013 A 
BRANCH  18  19
ATOM     19  C   UNL     1      11.455   8.292   8.720  0.00  0.00    +0.119 C 
BRANCH  19  20
ATOM     20  N   UNL     1      12.835   8.107   9.260  0.00  0.00    -0.302 NA
ATOM     21  C   UNL     1      13.548   9.443   9.487  0.00  0.00    +0.066 C 
ATOM     22  C   UNL     1      14.982   9.231  10.073  0.00  0.00    -0.064 C 
ATOM     23  N   UNL     1      15.789   8.340   9.128  0.00  0.00    +0.379 N 
ATOM     24  C   UNL     1      17.156   8.186   9.647  0.00  0.00    -0.096 C 
ATOM     25  H   UNL     1      15.857   8.864   8.146  0.00  0.00    -0.082 HD
ATOM     26  C   UNL     1      15.086   7.010   8.894  0.00  0.00    -0.064 C 
ATOM     27  C   UNL     1      13.652   7.233   8.340  0.00  0.00    +0.066 C 
ENDBRANCH  19  20
ENDBRANCH  18  19
ENDBRANCH  14  15
ENDBRANCH  12  13
TORSDOF 6
ENDMDL
MODEL 4
REMARK VINA RESULT:      -7.9      2.242      3.233
REMARK  Name = C:\Users\Docking\Desktop\test protocol\1iep_ligandH.pdb
REMARK  8 active torsions:
REMARK  status: ('A' for Active; 'I' for Inactive)
REMARK    1  A    between atoms: _5  and  _11
REMARK    2  A    between atoms: _19  and  _21
REMARK    3  A    between atoms: _22  and  _66
REMARK    4  A    between atoms: _27  and  _30
REMARK    5  A    between atoms: _32  and  _33
REMARK    6  A    between atoms: _38  and  _43
REMARK    7  A    between atoms: _43  and  _46
REMARK    8  A    between atoms: _53  and  _55
REMARK                            x       y       z     vdW  Elec       q    Type
REMARK                         _______ _______ _______ _____ _____    ______ ____
ROOT
ATOM     10  C   UNL     1       5.065   5.764  16.856  0.00  0.00    +0.038 A 
ATOM     11  C   UNL     1       5.369   4.432  16.476  0.00  0.00    +0.047 A 
ATOM     12  C   UNL     1       4.776   3.835  15.289  0.00  0.00    +0.035 A 
ATOM     32  C   UNL     1       3.881   4.624  14.511  0.00  0.00    +0.024 A 
ATOM     33  C   UNL     1       3.560   5.980  14.884  0.00  0.00    +0.007 A 
ATOM     34  C   UNL     1       4.139   6.573  16.055  0.00  0.00    -0.029 A 
ATOM     35  C   UNL     1       3.755   8.028  16.410  0.00  0.00    +0.045 C 
ENDROOT
BRANCH  10   9
ATOM      4  C   UNL     1       5.059   6.758  21.552  0.00  0.00    +0.077 A 
ATOM      5  C   UNL     1       3.744   6.213  21.726  0.00  0.00    +0.048 A 
ATOM      6  C   UNL     1       3.100   5.693  20.581  0.00  0.00    +0.116 A 
ATOM      7  N   UNL     1       3.734   5.721  19.357  0.00  0.00    -0.223 NA
ATOM      8  C   UNL     1       5.003   6.256  19.224  0.00  0.00    +0.220 A 
ATOM      9  N   UNL     1       5.663   6.287  18.005  0.00  0.00    -0.283 N 
ATOM     36  H   UNL     1       6.595   6.697  17.947  0.00  0.00    +0.155 HD
ATOM     37  N   UNL     1       5.638   6.760  20.302  0.00  0.00    -0.214 NA
BRANCH   4   3
ATOM      1  C   UNL     1       8.032   7.670  23.926  0.00  0.00    +0.020 A 
ATOM      2  C   UNL     1       7.295   7.082  22.831  0.00  0.00    +0.013 A 
ATOM      3  C   UNL     1       5.870   7.341  22.667  0.00  0.00    +0.019 A 
ATOM     38  C   UNL     1       5.216   8.208  23.636  0.00  0.00    +0.120 A 
ATOM     39  N   UNL     1       5.950   8.760  24.681  0.00  0.00    -0.263 NA
ATOM     40  C   UNL     1       7.322   8.516  24.849  0.00  0.00    +0.111 A 
ENDBRANCH   4   3
ENDBRANCH  10   9
BRANCH  12  13
ATOM     13  N   UNL     1       5.041   2.484  14.858  0.00  0.00    -0.281 N 
ATOM     14  C   UNL     1       5.821   2.068  13.792  0.00  0.00    +0.248 C 
ATOM     30  O   UNL     1       6.240   2.806  12.913  0.00  0.00    -0.270 OA
ATOM     31  H   UNL     1       4.599   1.746  15.405  0.00  0.00    +0.155 HD
BRANCH  14  15
ATOM     15  C   UNL     1       6.175   0.621  13.677  0.00  0.00    +0.037 A 
ATOM     16  C   UNL     1       7.258   0.170  12.800  0.00  0.00    +0.013 A 
ATOM     17  C   UNL     1       7.568  -1.234  12.695  0.00  0.00    +0.005 A 
ATOM     18  C   UNL     1       6.792  -2.198  13.473  0.00  0.00    -0.033 A 
ATOM     28  C   UNL     1       5.726  -1.723  14.339  0.00  0.00    +0.005 A 
ATOM     29  C   UNL     1       5.420  -0.348  14.443  0.00  0.00    +0.013 A 
BRANCH  18  19
ATOM     19  C   UNL     1       7.039  -3.717  13.407  0.00  0.00    +0.119 C 
BRANCH  19  20
ATOM     20  N   UNL     1       7.922  -4.312  14.454  0.00  0.00    -0.302 NA
ATOM     21  C   UNL     1       8.901  -5.333  13.867  0.00  0.00    +0.066 C 
ATOM     22  C   UNL     1       9.832  -5.929  14.973  0.00  0.00    -0.064 C 
ATOM     23  N   UNL     1       8.975  -6.567  16.068  0.00  0.00    +0.379 N 
ATOM     24  C   UNL     1       9.849  -7.179  17.080  0.00  0.00    -0.096 C 
ATOM     25  H   UNL     1       8.378  -7.383  15.598  0.00  0.00    -0.082 HD
ATOM     26  C   UNL     1       7.997  -5.559  16.655  0.00  0.00    -0.064 C 
ATOM     27  C   UNL     1       7.097  -4.951  15.543  0.00  0.00    +0.066 C 
ENDBRANCH  19  20
ENDBRANCH  18  19
ENDBRANCH  14  15
ENDBRANCH  12  13
TORSDOF 6
ENDMDL
MODEL 5
REMARK VINA RESULT:      -7.9      2.152     14.242
REMARK  Name = C:\Users\Docking\Desktop\test protocol\1iep_ligandH.pdb
REMARK  8 active torsions:
REMARK  status: ('A' for Active; 'I' for Inactive)
REMARK    1  A    between atoms: _5  and  _11
REMARK    2  A    between atoms: _19  and  _21
REMARK    3  A    between atoms: _22  and  _66
REMARK    4  A    between atoms: _27  and  _30
REMARK    5  A    between atoms: _32  and  _33
REMARK    6  A    between atoms: _38  and  _43
REMARK    7  A    between atoms: _43  and  _46
REMARK    8  A    between atoms: _53  and  _55
REMARK                            x       y       z     vdW  Elec       q    Type
REMARK                         _______ _______ _______ _____ _____    ______ ____
ROOT
ATOM     10  C   UNL     1       7.620  -3.691  12.711  0.00  0.00    +0.038 A 
ATOM     11  C   UNL     1       7.000  -2.429  12.898  0.00  0.00    +0.047 A 
ATOM     12  C   UNL     1       7.213  -1.659  14.113  0.00  0.00    +0.035 A 
ATOM     32  C   UNL     1       8.066  -2.204  15.117  0.00  0.00    +0.024 A 
ATOM     33  C   UNL     1       8.704  -3.485  14.944  0.00  0.00    +0.007 A 
ATOM     34  C   UNL     1       8.495  -4.250  13.748  0.00  0.00    -0.029 A 
ATOM     35  C   UNL     1       9.198  -5.622  13.619  0.00  0.00    +0.045 C 
ENDROOT
BRANCH  10   9
ATOM      4  C   UNL     1       8.825  -4.998   8.252  0.00  0.00    +0.077 A 
ATOM      5  C   UNL     1      10.020  -4.204   8.279  0.00  0.00    +0.048 A 
ATOM      6  C   UNL     1      10.284  -3.469   9.457  0.00  0.00    +0.116 A 
ATOM      7  N   UNL     1       9.412  -3.531  10.522  0.00  0.00    -0.223 NA
ATOM      8  C   UNL     1       8.267  -4.305  10.462  0.00  0.00    +0.220 A 
ATOM      9  N   UNL     1       7.380  -4.388  11.524  0.00  0.00    -0.283 N 
ATOM     36  H   UNL     1       6.543  -4.964  11.438  0.00  0.00    +0.155 HD
ATOM     37  N   UNL     1       7.992  -5.015   9.348  0.00  0.00    -0.214 NA
BRANCH   4   3
ATOM      1  C   UNL     1       8.086  -6.212   4.608  0.00  0.00    +0.020 A 
ATOM      2  C   UNL     1       8.500  -5.365   5.703  0.00  0.00    +0.013 A 
ATOM      3  C   UNL     1       8.410  -5.832   7.081  0.00  0.00    +0.019 A 
ATOM     38  C   UNL     1       7.893  -7.172   7.318  0.00  0.00    +0.120 A 
ATOM     39  N   UNL     1       7.500  -7.964   6.243  0.00  0.00    -0.263 NA
ATOM     40  C   UNL     1       7.581  -7.524   4.913  0.00  0.00    +0.111 A 
ENDBRANCH   4   3
ENDBRANCH  10   9
BRANCH  12  13
ATOM     13  N   UNL     1       6.604  -0.376  14.363  0.00  0.00    -0.281 N 
ATOM     14  C   UNL     1       5.257  -0.085  14.500  0.00  0.00    +0.248 C 
ATOM     30  O   UNL     1       4.351  -0.854  14.214  0.00  0.00    -0.270 OA
ATOM     31  H   UNL     1       7.245   0.413  14.450  0.00  0.00    +0.155 HD
BRANCH  14  15
ATOM     15  C   UNL     1       4.857   1.260  15.014  0.00  0.00    +0.037 A 
ATOM     16  C   UNL     1       5.641   2.458  14.700  0.00  0.00    +0.013 A 
ATOM     17  C   UNL     1       5.243   3.740  15.223  0.00  0.00    +0.005 A 
ATOM     18  C   UNL     1       4.053   3.832  16.066  0.00  0.00    -0.033 A 
ATOM     28  C   UNL     1       3.291   2.629  16.358  0.00  0.00    +0.005 A 
ATOM     29  C   UNL     1       3.679   1.370  15.847  0.00  0.00    +0.013 A 
BRANCH  18  19
ATOM     19  C   UNL     1       3.567   5.156  16.685  0.00  0.00    +0.119 C 
BRANCH  19  20
ATOM     20  N   UNL     1       3.617   5.274  18.173  0.00  0.00    -0.302 NA
ATOM     21  C   UNL     1       2.947   6.559  18.670  0.00  0.00    +0.066 C 
ATOM     22  C   UNL     1       2.988   6.655  20.230  0.00  0.00    -0.064 C 
ATOM     23  N   UNL     1       4.441   6.583  20.704  0.00  0.00    +0.379 N 
ATOM     24  C   UNL     1       4.488   6.732  22.166  0.00  0.00    -0.096 C 
ATOM     25  H   UNL     1       4.985   7.448  20.258  0.00  0.00    -0.082 HD
ATOM     26  C   UNL     1       5.116   5.311  20.212  0.00  0.00    -0.064 C 
ATOM     27  C   UNL     1       5.043   5.210  18.663  0.00  0.00    +0.066 C 
ENDBRANCH  19  20
ENDBRANCH  18  19
ENDBRANCH  14  15
ENDBRANCH  12  13
TORSDOF 6
ENDMDL
