MODEL 1
REMARK VINA RESULT:      -8.0      0.000      0.000
REMARK  Name = C:\Users\Docking\Desktop\test protocol\1iep_ligandH.pdb
REMARK  8 active torsions:
REMARK  status: ('A' for Active; 'I' for Inactive)
REMARK    1  A    between atoms: _5  and  _11
REMARK    2  A    between atoms: _19  and  _21
REMARK    3  A    between atoms: _22  and  _66
REMARK    4  A    between atoms: _27  and  _30
REMARK    5  A    between atoms: _32  and  _33
REMARK    6  A    between atoms: _38  and  _43
REMARK    7  A    between atoms: _43  and  _46
REMARK    8  A    between atoms: _53  and  _55
REMARK                            x       y       z     vdW  Elec       q    Type
REMARK                         _______ _______ _______ _____ _____    ______ ____
ROOT
ATOM     10  C   UNL     1       9.581  -5.233  15.283  0.00  0.00    +0.038 A 
ATOM     11  C   UNL     1       9.417  -6.596  15.642  0.00  0.00    +0.047 A 
ATOM     12  C   UNL     1       9.872  -7.095  16.930  0.00  0.00    +0.035 A 
ATOM     32  C   UNL     1      10.489  -6.177  17.830  0.00  0.00    +0.024 A 
ATOM     33  C   UNL     1      10.665  -4.790  17.481  0.00  0.00    +0.007 A 
ATOM     34  C   UNL     1      10.220  -4.292  16.211  0.00  0.00    -0.029 A 
ATOM     35  C   UNL     1      10.441  -2.796  15.888  0.00  0.00    +0.045 C 
ENDROOT
BRANCH  10   9
ATOM      4  C   UNL     1       6.207  -3.385  12.413  0.00  0.00    +0.077 A 
ATOM      5  C   UNL     1       5.264  -3.283  13.489  0.00  0.00    +0.048 A 
ATOM      6  C   UNL     1       5.684  -3.724  14.764  0.00  0.00    +0.116 A 
ATOM      7  N   UNL     1       6.955  -4.227  14.939  0.00  0.00    -0.223 NA
ATOM      8  C   UNL     1       7.840  -4.313  13.879  0.00  0.00    +0.220 A 
ATOM      9  N   UNL     1       9.125  -4.808  14.034  0.00  0.00    -0.283 N 
ATOM     36  H   UNL     1       9.745  -4.863  13.226  0.00  0.00    +0.155 HD
ATOM     37  N   UNL     1       7.462  -3.900  12.651  0.00  0.00    -0.214 NA
BRANCH   4   3
ATOM      1  C   UNL     1       4.515  -1.764   9.281  0.00  0.00    +0.020 A 
ATOM      2  C   UNL     1       4.753  -2.150  10.653  0.00  0.00    +0.013 A 
ATOM      3  C   UNL     1       5.913  -2.958  11.009  0.00  0.00    +0.019 A 
ATOM     38  C   UNL     1       6.820  -3.362   9.945  0.00  0.00    +0.120 A 
ATOM     39  N   UNL     1       6.564  -2.976   8.632  0.00  0.00    -0.263 NA
ATOM     40  C   UNL     1       5.451  -2.200   8.278  0.00  0.00    +0.111 A 
ENDBRANCH   4   3
ENDBRANCH  10   9
BRANCH  12  13
ATOM     13  N   UNL     1       9.740  -8.469  17.347  0.00  0.00    -0.281 N 
ATOM     14  C   UNL     1       8.576  -9.164  17.631  0.00  0.00    +0.248 C 
ATOM     30  O   UNL     1       7.479  -8.645  17.778  0.00  0.00    -0.270 OA
ATOM     31  H   UNL     1      10.610  -8.993  17.443  0.00  0.00    +0.155 HD
BRANCH  14  15
ATOM     15  C   UNL     1       8.642 -10.649  17.790  0.00  0.00    +0.037 A 
ATOM     16  C   UNL     1       8.820 -11.265  19.107  0.00  0.00    +0.013 A 
ATOM     17  C   UNL     1       8.897 -12.699  19.231  0.00  0.00    +0.005 A 
ATOM     18  C   UNL     1       8.795 -13.527  18.031  0.00  0.00    -0.033 A 
ATOM     28  C   UNL     1       8.614 -12.890  16.738  0.00  0.00    +0.005 A 
ATOM     29  C   UNL     1       8.538 -11.484  16.613  0.00  0.00    +0.013 A 
BRANCH  18  19
ATOM     19  C   UNL     1       8.889 -15.064  18.066  0.00  0.00    +0.119 C 
BRANCH  19  20
ATOM     20  N   UNL     1      10.165 -15.682  17.599  0.00  0.00    -0.302 NA
ATOM     21  C   UNL     1      11.379 -14.806  17.919  0.00  0.00    +0.066 C 
ATOM     22  C   UNL     1      12.708 -15.478  17.444  0.00  0.00    -0.064 C 
ATOM     23  N   UNL     1      12.625 -15.760  15.943  0.00  0.00    +0.379 N 
ATOM     24  C   UNL     1      13.895 -16.339  15.481  0.00  0.00    -0.096 C 
ATOM     25  H   UNL     1      12.489 -14.784  15.422  0.00  0.00    -0.082 HD
ATOM     26  C   UNL     1      11.419 -16.629  15.615  0.00  0.00    -0.064 C 
ATOM     27  C   UNL     1      10.107 -15.966  16.118  0.00  0.00    +0.066 C 
ENDBRANCH  19  20
ENDBRANCH  18  19
ENDBRANCH  14  15
ENDBRANCH  12  13
TORSDOF 6
ENDMDL
MODEL 2
REMARK VINA RESULT:      -8.0      4.875      8.670
REMARK  Name = C:\Users\Docking\Desktop\test protocol\1iep_ligandH.pdb
REMARK  8 active torsions:
REMARK  status: ('A' for Active; 'I' for Inactive)
REMARK    1  A    between atoms: _5  and  _11
REMARK    2  A    between atoms: _19  and  _21
REMARK    3  A    between atoms: _22  and  _66
REMARK    4  A    between atoms: _27  and  _30
REMARK    5  A    between atoms: _32  and  _33
REMARK    6  A    between atoms: _38  and  _43
REMARK    7  A    between atoms: _43  and  _46
REMARK    8  A    between atoms: _53  and  _55
REMARK                            x       y       z     vdW  Elec       q    Type
REMARK                         _______ _______ _______ _____ _____    ______ ____
ROOT
ATOM     10  C   UNL     1       7.693  -4.236   7.375  0.00  0.00    +0.038 A 
ATOM     11  C   UNL     1       7.985  -4.307   8.761  0.00  0.00    +0.047 A 
ATOM     12  C   UNL     1       9.357  -4.267   9.244  0.00  0.00    +0.035 A 
ATOM     32  C   UNL     1      10.407  -4.151   8.287  0.00  0.00    +0.024 A 
ATOM     33  C   UNL     1      10.127  -4.079   6.874  0.00  0.00    +0.007 A 
ATOM     34  C   UNL     1       8.776  -4.121   6.392  0.00  0.00    -0.029 A 
ATOM     35  C   UNL     1       8.536  -4.046   4.866  0.00  0.00    +0.045 C 
ENDROOT
BRANCH  10   9
ATOM      4  C   UNL     1       3.535  -2.109   6.268  0.00  0.00    +0.077 A 
ATOM      5  C   UNL     1       4.059  -0.804   6.551  0.00  0.00    +0.048 A 
ATOM      6  C   UNL     1       5.401  -0.724   6.987  0.00  0.00    +0.116 A 
ATOM      7  N   UNL     1       6.153  -1.870   7.124  0.00  0.00    -0.223 NA
ATOM      8  C   UNL     1       5.617  -3.113   6.844  0.00  0.00    +0.220 A 
ATOM      9  N   UNL     1       6.357  -4.279   6.967  0.00  0.00    -0.283 N 
ATOM     36  H   UNL     1       5.923  -5.177   6.758  0.00  0.00    +0.155 HD
ATOM     37  N   UNL     1       4.337  -3.216   6.428  0.00  0.00    -0.214 NA
BRANCH   4   3
ATOM      1  C   UNL     1      -0.260  -1.653   5.436  0.00  0.00    +0.020 A 
ATOM      2  C   UNL     1       1.075  -1.364   5.908  0.00  0.00    +0.013 A 
ATOM      3  C   UNL     1       2.136  -2.356   5.796  0.00  0.00    +0.019 A 
ATOM     38  C   UNL     1       1.811  -3.642   5.195  0.00  0.00    +0.120 A 
ATOM     39  N   UNL     1       0.517  -3.892   4.751  0.00  0.00    -0.263 NA
ATOM     40  C   UNL     1      -0.513  -2.946   4.856  0.00  0.00    +0.111 A 
ENDBRANCH   4   3
ENDBRANCH  10   9
BRANCH  12  13
ATOM     13  N   UNL     1       9.715  -4.343  10.638  0.00  0.00    -0.281 N 
ATOM     14  C   UNL     1       9.747  -3.315  11.567  0.00  0.00    +0.248 C 
ATOM     30  O   UNL     1       9.678  -2.128  11.286  0.00  0.00    -0.270 OA
ATOM     31  H   UNL     1       9.976  -5.267  10.983  0.00  0.00    +0.155 HD
BRANCH  14  15
ATOM     15  C   UNL     1       9.892  -3.655  13.015  0.00  0.00    +0.037 A 
ATOM     16  C   UNL     1       9.284  -2.822  14.055  0.00  0.00    +0.013 A 
ATOM     17  C   UNL     1       9.453  -3.162  15.446  0.00  0.00    +0.005 A 
ATOM     18  C   UNL     1      10.234  -4.344  15.804  0.00  0.00    -0.033 A 
ATOM     28  C   UNL     1      10.821  -5.156  14.751  0.00  0.00    +0.005 A 
ATOM     29  C   UNL     1      10.659  -4.825  13.387  0.00  0.00    +0.013 A 
BRANCH  18  19
ATOM     19  C   UNL     1      10.484  -4.771  17.262  0.00  0.00    +0.119 C 
BRANCH  19  20
ATOM     20  N   UNL     1       9.568  -5.800  17.840  0.00  0.00    -0.302 NA
ATOM     21  C   UNL     1       9.971  -7.221  17.435  0.00  0.00    +0.066 C 
ATOM     22  C   UNL     1       9.016  -8.285  18.067  0.00  0.00    -0.064 C 
ATOM     23  N   UNL     1       7.577  -7.990  17.643  0.00  0.00    +0.379 N 
ATOM     24  C   UNL     1       6.683  -9.023  18.188  0.00  0.00    -0.096 C 
ATOM     25  H   UNL     1       7.531  -8.055  16.531  0.00  0.00    -0.082 HD
ATOM     26  C   UNL     1       7.168  -6.578  18.040  0.00  0.00    -0.064 C 
ATOM     27  C   UNL     1       8.141  -5.530  17.431  0.00  0.00    +0.066 C 
ENDBRANCH  19  20
ENDBRANCH  18  19
ENDBRANCH  14  15
ENDBRANCH  12  13
TORSDOF 6
ENDMDL
MODEL 3
REMARK VINA RESULT:      -8.0      9.028     13.540
REMARK  Name = C:\Users\Docking\Desktop\test protocol\1iep_ligandH.pdb
REMARK  8 active torsions:
REMARK  status: ('A' for Active; 'I' for Inactive)
REMARK    1  A    between atoms: _5  and  _11
REMARK    2  A    between atoms: _19  and  _21
REMARK    3  A    between atoms: _22  and  _66
REMARK    4  A    between atoms: _27  and  _30
REMARK    5  A    between atoms: _32  and  _33
REMARK    6  A    between atoms: _38  and  _43
REMARK    7  A    between atoms: _43  and  _46
REMARK    8  A    between atoms: _53  and  _55
REMARK                            x       y       z     vdW  Elec       q    Type
REMARK                         _______ _______ _______ _____ _____    ______ ____
ROOT
ATOM     10  C   UNL     1       5.191   5.415  17.248  0.00  0.00    +0.038 A 
ATOM     11  C   UNL     1       5.510   4.077  16.905  0.00  0.00    +0.047 A 
ATOM     12  C   UNL     1       4.961   3.455  15.709  0.00  0.00    +0.035 A 
ATOM     32  C   UNL     1       4.093   4.228  14.884  0.00  0.00    +0.024 A 
ATOM     33  C   UNL     1       3.757   5.589  15.219  0.00  0.00    +0.007 A 
ATOM     34  C   UNL     1       4.293   6.207  16.398  0.00  0.00    -0.029 A 
ATOM     35  C   UNL     1       3.893   7.667  16.711  0.00  0.00    +0.045 C 
ENDROOT
BRANCH  10   9
ATOM      4  C   UNL     1       4.965   6.615  21.890  0.00  0.00    +0.077 A 
ATOM      5  C   UNL     1       3.617   6.136  22.009  0.00  0.00    +0.048 A 
ATOM      6  C   UNL     1       3.016   5.595  20.850  0.00  0.00    +0.116 A 
ATOM      7  N   UNL     1       3.720   5.542  19.666  0.00  0.00    -0.223 NA
ATOM      8  C   UNL     1       5.017   6.013  19.586  0.00  0.00    +0.220 A 
ATOM      9  N   UNL     1       5.746   5.962  18.407  0.00  0.00    -0.283 N 
ATOM     36  H   UNL     1       6.697   6.327  18.387  0.00  0.00    +0.155 HD
ATOM     37  N   UNL     1       5.613   6.536  20.677  0.00  0.00    -0.214 NA
BRANCH   4   3
ATOM      1  C   UNL     1       5.946   8.708  25.045  0.00  0.00    +0.020 A 
ATOM      2  C   UNL     1       5.157   8.163  23.965  0.00  0.00    +0.013 A 
ATOM      3  C   UNL     1       5.737   7.211  23.026  0.00  0.00    +0.019 A 
ATOM     38  C   UNL     1       7.129   6.828  23.210  0.00  0.00    +0.120 A 
ATOM     39  N   UNL     1       7.864   7.371  24.259  0.00  0.00    -0.263 NA
ATOM     40  C   UNL     1       7.318   8.289  25.167  0.00  0.00    +0.111 A 
ENDBRANCH   4   3
ENDBRANCH  10   9
BRANCH  12  13
ATOM     13  N   UNL     1       5.243   2.097  15.314  0.00  0.00    -0.281 N 
ATOM     14  C   UNL     1       4.349   1.050  15.168  0.00  0.00    +0.248 C 
ATOM     30  O   UNL     1       3.193   1.068  15.563  0.00  0.00    -0.270 OA
ATOM     31  H   UNL     1       6.221   1.883  15.118  0.00  0.00    +0.155 HD
BRANCH  14  15
ATOM     15  C   UNL     1       4.809  -0.204  14.498  0.00  0.00    +0.037 A 
ATOM     16  C   UNL     1       3.867  -1.272  14.153  0.00  0.00    +0.013 A 
ATOM     17  C   UNL     1       4.340  -2.479  13.523  0.00  0.00    +0.005 A 
ATOM     18  C   UNL     1       5.764  -2.624  13.232  0.00  0.00    -0.033 A 
ATOM     28  C   UNL     1       6.676  -1.547  13.580  0.00  0.00    +0.005 A 
ATOM     29  C   UNL     1       6.216  -0.363  14.199  0.00  0.00    +0.013 A 
BRANCH  18  19
ATOM     19  C   UNL     1       6.360  -3.886  12.580  0.00  0.00    +0.119 C 
BRANCH  19  20
ATOM     20  N   UNL     1       7.542  -3.701  11.687  0.00  0.00    -0.302 NA
ATOM     21  C   UNL     1       7.133  -3.275  10.274  0.00  0.00    +0.066 C 
ATOM     22  C   UNL     1       8.382  -3.064   9.358  0.00  0.00    -0.064 C 
ATOM     23  N   UNL     1       9.206  -4.353   9.319  0.00  0.00    +0.379 N 
ATOM     24  C   UNL     1      10.350  -4.176   8.413  0.00  0.00    -0.096 C 
ATOM     25  H   UNL     1       8.558  -5.154   8.893  0.00  0.00    -0.082 HD
ATOM     26  C   UNL     1       9.615  -4.784  10.720  0.00  0.00    -0.064 C 
ATOM     27  C   UNL     1       8.367  -4.963  11.629  0.00  0.00    +0.066 C 
ENDBRANCH  19  20
ENDBRANCH  18  19
ENDBRANCH  14  15
ENDBRANCH  12  13
TORSDOF 6
ENDMDL
MODEL 4
REMARK VINA RESULT:      -8.0      7.605     10.858
REMARK  Name = C:\Users\Docking\Desktop\test protocol\1iep_ligandH.pdb
REMARK  8 active torsions:
REMARK  status: ('A' for Active; 'I' for Inactive)
REMARK    1  A    between atoms: _5  and  _11
REMARK    2  A    between atoms: _19  and  _21
REMARK    3  A    between atoms: _22  and  _66
REMARK    4  A    between atoms: _27  and  _30
REMARK    5  A    between atoms: _32  and  _33
REMARK    6  A    between atoms: _38  and  _43
REMARK    7  A    between atoms: _43  and  _46
REMARK    8  A    between atoms: _53  and  _55
REMARK                            x       y       z     vdW  Elec       q    Type
REMARK                         _______ _______ _______ _____ _____    ______ ____
ROOT
ATOM     10  C   UNL     1       8.822  -3.521  13.826  0.00  0.00    +0.038 A 
ATOM     11  C   UNL     1       8.611  -3.906  12.478  0.00  0.00    +0.047 A 
ATOM     12  C   UNL     1       9.730  -4.187  11.592  0.00  0.00    +0.035 A 
ATOM     32  C   UNL     1      11.051  -4.069  12.114  0.00  0.00    +0.024 A 
ATOM     33  C   UNL     1      11.283  -3.677  13.482  0.00  0.00    +0.007 A 
ATOM     34  C   UNL     1      10.184  -3.396  14.359  0.00  0.00    -0.029 A 
ATOM     35  C   UNL     1      10.492  -2.974  15.815  0.00  0.00    +0.045 C 
ENDROOT
BRANCH  10   9
ATOM      4  C   UNL     1       5.254  -0.687  15.337  0.00  0.00    +0.077 A 
ATOM      5  C   UNL     1       5.653   0.380  14.464  0.00  0.00    +0.048 A 
ATOM      6  C   UNL     1       6.786   0.162  13.649  0.00  0.00    +0.116 A 
ATOM      7  N   UNL     1       7.461  -1.038  13.708  0.00  0.00    -0.223 NA
ATOM      8  C   UNL     1       7.051  -2.046  14.562  0.00  0.00    +0.220 A 
ATOM      9  N   UNL     1       7.711  -3.263  14.633  0.00  0.00    -0.283 N 
ATOM     36  H   UNL     1       7.381  -3.978  15.281  0.00  0.00    +0.155 HD
ATOM     37  N   UNL     1       5.973  -1.861  15.352  0.00  0.00    -0.214 NA
BRANCH   4   3
ATOM      1  C   UNL     1       2.424   0.668  17.672  0.00  0.00    +0.020 A 
ATOM      2  C   UNL     1       3.565   0.649  16.786  0.00  0.00    +0.013 A 
ATOM      3  C   UNL     1       4.076  -0.610  16.257  0.00  0.00    +0.019 A 
ATOM     38  C   UNL     1       3.402  -1.840  16.645  0.00  0.00    +0.120 A 
ATOM     39  N   UNL     1       2.306  -1.790  17.500  0.00  0.00    -0.263 NA
ATOM     40  C   UNL     1       1.807  -0.585  18.017  0.00  0.00    +0.111 A 
ENDBRANCH   4   3
ENDBRANCH  10   9
BRANCH  12  13
ATOM     13  N   UNL     1       9.577  -4.575  10.211  0.00  0.00    -0.281 N 
ATOM     14  C   UNL     1       8.926  -5.688   9.706  0.00  0.00    +0.248 C 
ATOM     30  O   UNL     1       8.557  -6.639  10.381  0.00  0.00    -0.270 OA
ATOM     31  H   UNL     1      10.001  -3.952   9.523  0.00  0.00    +0.155 HD
BRANCH  14  15
ATOM     15  C   UNL     1       8.659  -5.764   8.238  0.00  0.00    +0.037 A 
ATOM     16  C   UNL     1       8.145  -6.990   7.621  0.00  0.00    +0.013 A 
ATOM     17  C   UNL     1       7.913  -7.042   6.199  0.00  0.00    +0.005 A 
ATOM     18  C   UNL     1       8.192  -5.862   5.385  0.00  0.00    -0.033 A 
ATOM     28  C   UNL     1       8.696  -4.658   6.023  0.00  0.00    +0.005 A 
ATOM     29  C   UNL     1       8.927  -4.603   7.416  0.00  0.00    +0.013 A 
BRANCH  18  19
ATOM     19  C   UNL     1       7.993  -5.834   3.857  0.00  0.00    +0.119 C 
BRANCH  19  20
ATOM     20  N   UNL     1       6.591  -5.911   3.349  0.00  0.00    -0.302 NA
ATOM     21  C   UNL     1       5.585  -5.340   4.351  0.00  0.00    +0.066 C 
ATOM     22  C   UNL     1       4.125  -5.408   3.794  0.00  0.00    -0.064 C 
ATOM     23  N   UNL     1       3.782  -6.858   3.448  0.00  0.00    +0.379 N 
ATOM     24  C   UNL     1       2.391  -6.934   2.978  0.00  0.00    -0.096 C 
ATOM     25  H   UNL     1       3.855  -7.456   4.386  0.00  0.00    -0.082 HD
ATOM     26  C   UNL     1       4.780  -7.435   2.454  0.00  0.00    -0.064 C 
ATOM     27  C   UNL     1       6.230  -7.335   3.005  0.00  0.00    +0.066 C 
ENDBRANCH  19  20
ENDBRANCH  18  19
ENDBRANCH  14  15
ENDBRANCH  12  13
TORSDOF 6
ENDMDL
MODEL 5
REMARK VINA RESULT:      -7.9      7.461     12.631
REMARK  Name = C:\Users\Docking\Desktop\test protocol\1iep_ligandH.pdb
REMARK  8 active torsions:
REMARK  status: ('A' for Active; 'I' for Inactive)
REMARK    1  A    between atoms: _5  and  _11
REMARK    2  A    between atoms: _19  and  _21
REMARK    3  A    between atoms: _22  and  _66
REMARK    4  A    between atoms: _27  and  _30
REMARK    5  A    between atoms: _32  and  _33
REMARK    6  A    between atoms: _38  and  _43
REMARK    7  A    between atoms: _43  and  _46
REMARK    8  A    between atoms: _53  and  _55
REMARK                            x       y       z     vdW  Elec       q    Type
REMARK                         _______ _______ _______ _____ _____    ______ ____
ROOT
ATOM     10  C   UNL     1       9.257  -2.767  12.573  0.00  0.00    +0.038 A 
ATOM     11  C   UNL     1       8.194  -1.901  12.936  0.00  0.00    +0.047 A 
ATOM     12  C   UNL     1       7.808  -1.726  14.328  0.00  0.00    +0.035 A 
ATOM     32  C   UNL     1       8.529  -2.446  15.325  0.00  0.00    +0.024 A 
ATOM     33  C   UNL     1       9.611  -3.331  14.973  0.00  0.00    +0.007 A 
ATOM     34  C   UNL     1       9.994  -3.510  13.602  0.00  0.00    -0.029 A 
ATOM     35  C   UNL     1      11.158  -4.477  13.283  0.00  0.00    +0.045 C 
ENDROOT
BRANCH  10   9
ATOM      4  C   UNL     1       8.733  -4.830   8.271  0.00  0.00    +0.077 A 
ATOM      5  C   UNL     1       7.741  -5.742   8.763  0.00  0.00    +0.048 A 
ATOM      6  C   UNL     1       7.399  -5.652  10.131  0.00  0.00    +0.116 A 
ATOM      7  N   UNL     1       8.010  -4.716  10.938  0.00  0.00    -0.223 NA
ATOM      8  C   UNL     1       8.964  -3.853  10.431  0.00  0.00    +0.220 A 
ATOM      9  N   UNL     1       9.585  -2.898  11.222  0.00  0.00    -0.283 N 
ATOM     36  H   UNL     1      10.289  -2.285  10.813  0.00  0.00    +0.155 HD
ATOM     37  N   UNL     1       9.309  -3.919   9.129  0.00  0.00    -0.214 NA
BRANCH   4   3
ATOM      1  C   UNL     1      10.782  -4.058   5.030  0.00  0.00    +0.020 A 
ATOM      2  C   UNL     1      10.375  -4.054   6.416  0.00  0.00    +0.013 A 
ATOM      3  C   UNL     1       9.199  -4.799   6.849  0.00  0.00    +0.019 A 
ATOM     38  C   UNL     1       8.452  -5.543   5.846  0.00  0.00    +0.120 A 
ATOM     39  N   UNL     1       8.867  -5.527   4.518  0.00  0.00    -0.263 NA
ATOM     40  C   UNL     1       9.996  -4.812   4.090  0.00  0.00    +0.111 A 
ENDBRANCH   4   3
ENDBRANCH  10   9
BRANCH  12  13
ATOM     13  N   UNL     1       6.732  -0.867  14.756  0.00  0.00    -0.281 N 
ATOM     14  C   UNL     1       5.528  -1.233  15.334  0.00  0.00    +0.248 C 
ATOM     30  O   UNL     1       5.102  -2.378  15.376  0.00  0.00    -0.270 OA
ATOM     31  H   UNL     1       6.876   0.134  14.615  0.00  0.00    +0.155 HD
BRANCH  14  15
ATOM     15  C   UNL     1       4.666  -0.174  15.941  0.00  0.00    +0.037 A 
ATOM     16  C   UNL     1       4.742   1.218  15.491  0.00  0.00    +0.013 A 
ATOM     17  C   UNL     1       3.912   2.224  16.105  0.00  0.00    +0.005 A 
ATOM     18  C   UNL     1       2.996   1.839  17.176  0.00  0.00    -0.033 A 
ATOM     28  C   UNL     1       2.936   0.450  17.600  0.00  0.00    +0.005 A 
ATOM     29  C   UNL     1       3.750  -0.538  17.001  0.00  0.00    +0.013 A 
BRANCH  18  19
ATOM     19  C   UNL     1       2.088   2.849  17.902  0.00  0.00    +0.119 C 
BRANCH  19  20
ATOM     20  N   UNL     1       2.757   3.940  18.673  0.00  0.00    -0.302 NA
ATOM     21  C   UNL     1       3.969   3.429  19.457  0.00  0.00    +0.066 C 
ATOM     22  C   UNL     1       4.670   4.587  20.239  0.00  0.00    -0.064 C 
ATOM     23  N   UNL     1       3.660   5.251  21.176  0.00  0.00    +0.379 N 
ATOM     24  C   UNL     1       4.330   6.302  21.955  0.00  0.00    -0.096 C 
ATOM     25  H   UNL     1       3.302   4.475  21.892  0.00  0.00    -0.082 HD
ATOM     26  C   UNL     1       2.450   5.760  20.404  0.00  0.00    -0.064 C 
ATOM     27  C   UNL     1       1.778   4.607  19.607  0.00  0.00    +0.066 C 
ENDBRANCH  19  20
ENDBRANCH  18  19
ENDBRANCH  14  15
ENDBRANCH  12  13
TORSDOF 6
ENDMDL
