MODEL 1
REMARK VINA RESULT:      -8.5      0.000      0.000
REMARK  Name = C:\Users\Docking\Desktop\test protocol\1iep_ligandH.pdb
REMARK  8 active torsions:
REMARK  status: ('A' for Active; 'I' for Inactive)
REMARK    1  A    between atoms: _5  and  _11
REMARK    2  A    between atoms: _19  and  _21
REMARK    3  A    between atoms: _22  and  _66
REMARK    4  A    between atoms: _27  and  _30
REMARK    5  A    between atoms: _32  and  _33
REMARK    6  A    between atoms: _38  and  _43
REMARK    7  A    between atoms: _43  and  _46
REMARK    8  A    between atoms: _53  and  _55
REMARK                            x       y       z     vdW  Elec       q    Type
REMARK                         _______ _______ _______ _____ _____    ______ ____
ROOT
ATOM     10  C   UNL     1       4.904  -0.941  21.998  0.00  0.00    +0.038 A 
ATOM     11  C   UNL     1       4.554  -0.858  20.626  0.00  0.00    +0.047 A 
ATOM     12  C   UNL     1       5.127  -1.767  19.646  0.00  0.00    +0.035 A 
ATOM     32  C   UNL     1       6.053  -2.751  20.099  0.00  0.00    +0.024 A 
ATOM     33  C   UNL     1       6.422  -2.850  21.489  0.00  0.00    +0.007 A 
ATOM     34  C   UNL     1       5.861  -1.954  22.460  0.00  0.00    -0.029 A 
ATOM     35  C   UNL     1       6.297  -2.101  23.937  0.00  0.00    +0.045 C 
ENDROOT
BRANCH  10   9
ATOM      4  C   UNL     1       5.017   3.048  24.664  0.00  0.00    +0.077 A 
ATOM      5  C   UNL     1       6.358   3.355  24.254  0.00  0.00    +0.048 A 
ATOM      6  C   UNL     1       6.985   2.457  23.362  0.00  0.00    +0.116 A 
ATOM      7  N   UNL     1       6.313   1.339  22.919  0.00  0.00    -0.223 NA
ATOM      8  C   UNL     1       5.021   1.071  23.335  0.00  0.00    +0.220 A 
ATOM      9  N   UNL     1       4.323  -0.043  22.896  0.00  0.00    -0.283 N 
ATOM     36  H   UNL     1       3.375  -0.209  23.232  0.00  0.00    +0.155 HD
ATOM     37  N   UNL     1       4.401   1.913  24.188  0.00  0.00    -0.214 NA
BRANCH   4   3
ATOM      1  C   UNL     1       3.937   5.223  27.731  0.00  0.00    +0.020 A 
ATOM      2  C   UNL     1       4.749   4.401  26.864  0.00  0.00    +0.013 A 
ATOM      3  C   UNL     1       4.220   3.902  25.600  0.00  0.00    +0.019 A 
ATOM     38  C   UNL     1       2.855   4.258  25.241  0.00  0.00    +0.120 A 
ATOM     39  N   UNL     1       2.097   5.049  26.098  0.00  0.00    -0.263 NA
ATOM     40  C   UNL     1       2.595   5.533  27.317  0.00  0.00    +0.111 A 
ENDBRANCH   4   3
ENDBRANCH  10   9
BRANCH  12  13
ATOM     13  N   UNL     1       4.815  -1.724  18.239  0.00  0.00    -0.281 N 
ATOM     14  C   UNL     1       5.636  -1.326  17.197  0.00  0.00    +0.248 C 
ATOM     30  O   UNL     1       6.698  -0.739  17.339  0.00  0.00    -0.270 OA
ATOM     31  H   UNL     1       3.876  -2.025  17.980  0.00  0.00    +0.155 HD
BRANCH  14  15
ATOM     15  C   UNL     1       5.207  -1.606  15.793  0.00  0.00    +0.037 A 
ATOM     16  C   UNL     1       3.899  -2.198  15.501  0.00  0.00    +0.013 A 
ATOM     17  C   UNL     1       3.517  -2.474  14.139  0.00  0.00    +0.005 A 
ATOM     18  C   UNL     1       4.446  -2.157  13.057  0.00  0.00    -0.033 A 
ATOM     28  C   UNL     1       5.735  -1.565  13.374  0.00  0.00    +0.005 A 
ATOM     29  C   UNL     1       6.113  -1.294  14.708  0.00  0.00    +0.013 A 
BRANCH  18  19
ATOM     19  C   UNL     1       4.131  -2.437  11.575  0.00  0.00    +0.119 C 
BRANCH  19  20
ATOM     20  N   UNL     1       3.082  -3.458  11.281  0.00  0.00    -0.302 NA
ATOM     21  C   UNL     1       3.671  -4.718  10.640  0.00  0.00    +0.066 C 
ATOM     22  C   UNL     1       2.563  -5.785  10.359  0.00  0.00    -0.064 C 
ATOM     23  N   UNL     1       1.486  -5.173   9.461  0.00  0.00    +0.379 N 
ATOM     24  C   UNL     1       0.472  -6.191   9.148  0.00  0.00    -0.096 C 
ATOM     25  H   UNL     1       1.973  -4.875   8.504  0.00  0.00    -0.082 HD
ATOM     26  C   UNL     1       0.897  -3.918  10.090  0.00  0.00    -0.064 C 
ATOM     27  C   UNL     1       2.010  -2.877  10.392  0.00  0.00    +0.066 C 
ENDBRANCH  19  20
ENDBRANCH  18  19
ENDBRANCH  14  15
ENDBRANCH  12  13
TORSDOF 6
ENDMDL
MODEL 2
REMARK VINA RESULT:      -8.3      1.722      2.644
REMARK  Name = C:\Users\Docking\Desktop\test protocol\1iep_ligandH.pdb
REMARK  8 active torsions:
REMARK  status: ('A' for Active; 'I' for Inactive)
REMARK    1  A    between atoms: _5  and  _11
REMARK    2  A    between atoms: _19  and  _21
REMARK    3  A    between atoms: _22  and  _66
REMARK    4  A    between atoms: _27  and  _30
REMARK    5  A    between atoms: _32  and  _33
REMARK    6  A    between atoms: _38  and  _43
REMARK    7  A    between atoms: _43  and  _46
REMARK    8  A    between atoms: _53  and  _55
REMARK                            x       y       z     vdW  Elec       q    Type
REMARK                         _______ _______ _______ _____ _____    ______ ____
ROOT
ATOM     10  C   UNL     1       4.841  -0.953  22.024  0.00  0.00    +0.038 A 
ATOM     11  C   UNL     1       4.566  -0.787  20.642  0.00  0.00    +0.047 A 
ATOM     12  C   UNL     1       5.119  -1.698  19.651  0.00  0.00    +0.035 A 
ATOM     32  C   UNL     1       5.945  -2.767  20.103  0.00  0.00    +0.024 A 
ATOM     33  C   UNL     1       6.235  -2.950  21.503  0.00  0.00    +0.007 A 
ATOM     34  C   UNL     1       5.695  -2.053  22.485  0.00  0.00    -0.029 A 
ATOM     35  C   UNL     1       6.045  -2.293  23.973  0.00  0.00    +0.045 C 
ENDROOT
BRANCH  10   9
ATOM      4  C   UNL     1       5.035   3.039  24.682  0.00  0.00    +0.077 A 
ATOM      5  C   UNL     1       6.369   3.336  24.246  0.00  0.00    +0.048 A 
ATOM      6  C   UNL     1       6.972   2.432  23.342  0.00  0.00    +0.116 A 
ATOM      7  N   UNL     1       6.283   1.318  22.914  0.00  0.00    -0.223 NA
ATOM      8  C   UNL     1       4.998   1.061  23.356  0.00  0.00    +0.220 A 
ATOM      9  N   UNL     1       4.284  -0.049  22.932  0.00  0.00    -0.283 N 
ATOM     36  H   UNL     1       3.341  -0.208  23.287  0.00  0.00    +0.155 HD
ATOM     37  N   UNL     1       4.401   1.908  24.220  0.00  0.00    -0.214 NA
BRANCH   4   3
ATOM      1  C   UNL     1       4.023   5.203  27.779  0.00  0.00    +0.020 A 
ATOM      2  C   UNL     1       4.811   4.374  26.897  0.00  0.00    +0.013 A 
ATOM      3  C   UNL     1       4.262   3.900  25.633  0.00  0.00    +0.019 A 
ATOM     38  C   UNL     1       2.902   4.286  25.288  0.00  0.00    +0.120 A 
ATOM     39  N   UNL     1       2.167   5.085  26.158  0.00  0.00    -0.263 NA
ATOM     40  C   UNL     1       2.684   5.546  27.378  0.00  0.00    +0.111 A 
ENDBRANCH   4   3
ENDBRANCH  10   9
BRANCH  12  13
ATOM     13  N   UNL     1       4.882  -1.575  18.234  0.00  0.00    -0.281 N 
ATOM     14  C   UNL     1       5.815  -1.588  17.210  0.00  0.00    +0.248 C 
ATOM     30  O   UNL     1       7.022  -1.492  17.374  0.00  0.00    -0.270 OA
ATOM     31  H   UNL     1       3.908  -1.465  17.952  0.00  0.00    +0.155 HD
BRANCH  14  15
ATOM     15  C   UNL     1       5.337  -1.710  15.799  0.00  0.00    +0.037 A 
ATOM     16  C   UNL     1       6.198  -1.347  14.671  0.00  0.00    +0.013 A 
ATOM     17  C   UNL     1       5.706  -1.458  13.321  0.00  0.00    +0.005 A 
ATOM     18  C   UNL     1       4.345  -1.937  13.091  0.00  0.00    -0.033 A 
ATOM     28  C   UNL     1       3.514  -2.295  14.229  0.00  0.00    +0.005 A 
ATOM     29  C   UNL     1       3.992  -2.186  15.554  0.00  0.00    +0.013 A 
BRANCH  18  19
ATOM     19  C   UNL     1       3.730  -2.067  11.685  0.00  0.00    +0.119 C 
BRANCH  19  20
ATOM     20  N   UNL     1       2.819  -0.973  11.233  0.00  0.00    -0.302 NA
ATOM     21  C   UNL     1       3.258   0.395  11.763  0.00  0.00    +0.066 C 
ATOM     22  C   UNL     1       2.308   1.531  11.262  0.00  0.00    -0.064 C 
ATOM     23  N   UNL     1       0.874   1.219  11.691  0.00  0.00    +0.379 N 
ATOM     24  C   UNL     1      -0.013   2.314  11.272  0.00  0.00    -0.096 C 
ATOM     25  H   UNL     1       0.856   1.177  12.805  0.00  0.00    -0.082 HD
ATOM     26  C   UNL     1       0.430  -0.141  11.171  0.00  0.00    -0.064 C 
ATOM     27  C   UNL     1       1.398  -1.259  11.651  0.00  0.00    +0.066 C 
ENDBRANCH  19  20
ENDBRANCH  18  19
ENDBRANCH  14  15
ENDBRANCH  12  13
TORSDOF 6
ENDMDL
MODEL 3
REMARK VINA RESULT:      -8.3      3.267     15.327
REMARK  Name = C:\Users\Docking\Desktop\test protocol\1iep_ligandH.pdb
REMARK  8 active torsions:
REMARK  status: ('A' for Active; 'I' for Inactive)
REMARK    1  A    between atoms: _5  and  _11
REMARK    2  A    between atoms: _19  and  _21
REMARK    3  A    between atoms: _22  and  _66
REMARK    4  A    between atoms: _27  and  _30
REMARK    5  A    between atoms: _32  and  _33
REMARK    6  A    between atoms: _38  and  _43
REMARK    7  A    between atoms: _43  and  _46
REMARK    8  A    between atoms: _53  and  _55
REMARK                            x       y       z     vdW  Elec       q    Type
REMARK                         _______ _______ _______ _____ _____    ______ ____
ROOT
ATOM     10  C   UNL     1       2.966  -3.610   9.524  0.00  0.00    +0.038 A 
ATOM     11  C   UNL     1       3.372  -3.486  10.878  0.00  0.00    +0.047 A 
ATOM     12  C   UNL     1       2.783  -2.483  11.751  0.00  0.00    +0.035 A 
ATOM     32  C   UNL     1       1.781  -1.623  11.214  0.00  0.00    +0.024 A 
ATOM     33  C   UNL     1       1.358  -1.734   9.840  0.00  0.00    +0.007 A 
ATOM     34  C   UNL     1       1.936  -2.720   8.973  0.00  0.00    -0.029 A 
ATOM     35  C   UNL     1       1.448  -2.790   7.507  0.00  0.00    +0.045 C 
ENDROOT
BRANCH  10   9
ATOM      4  C   UNL     1       3.063  -7.989   7.562  0.00  0.00    +0.077 A 
ATOM      5  C   UNL     1       1.831  -8.363   8.193  0.00  0.00    +0.048 A 
ATOM      6  C   UNL     1       1.207  -7.403   9.021  0.00  0.00    +0.116 A 
ATOM      7  N   UNL     1       1.782  -6.163   9.196  0.00  0.00    -0.223 NA
ATOM      8  C   UNL     1       2.972  -5.834   8.574  0.00  0.00    +0.220 A 
ATOM      9  N   UNL     1       3.565  -4.590   8.730  0.00  0.00    -0.283 N 
ATOM     36  H   UNL     1       4.447  -4.389   8.260  0.00  0.00    +0.155 HD
ATOM     37  N   UNL     1       3.588  -6.735   7.780  0.00  0.00    -0.214 NA
BRANCH   4   3
ATOM      1  C   UNL     1       4.185 -10.115   4.476  0.00  0.00    +0.020 A 
ATOM      2  C   UNL     1       3.397  -9.238   5.311  0.00  0.00    +0.013 A 
ATOM      3  C   UNL     1       3.840  -8.893   6.656  0.00  0.00    +0.019 A 
ATOM     38  C   UNL     1       5.095  -9.457   7.129  0.00  0.00    +0.120 A 
ATOM     39  N   UNL     1       5.832 -10.300   6.304  0.00  0.00    -0.263 NA
ATOM     40  C   UNL     1       5.415 -10.640   5.008  0.00  0.00    +0.111 A 
ENDBRANCH   4   3
ENDBRANCH  10   9
BRANCH  12  13
ATOM     13  N   UNL     1       3.161  -2.305  13.131  0.00  0.00    -0.281 N 
ATOM     14  C   UNL     1       3.040  -3.213  14.171  0.00  0.00    +0.248 C 
ATOM     30  O   UNL     1       2.388  -4.245  14.115  0.00  0.00    -0.270 OA
ATOM     31  H   UNL     1       3.567  -1.401  13.371  0.00  0.00    +0.155 HD
BRANCH  14  15
ATOM     15  C   UNL     1       3.732  -2.925  15.464  0.00  0.00    +0.037 A 
ATOM     16  C   UNL     1       4.733  -1.861  15.571  0.00  0.00    +0.013 A 
ATOM     17  C   UNL     1       5.398  -1.616  16.826  0.00  0.00    +0.005 A 
ATOM     18  C   UNL     1       5.060  -2.437  17.987  0.00  0.00    -0.033 A 
ATOM     28  C   UNL     1       4.059  -3.482  17.855  0.00  0.00    +0.005 A 
ATOM     29  C   UNL     1       3.407  -3.726  16.626  0.00  0.00    +0.013 A 
BRANCH  18  19
ATOM     19  C   UNL     1       5.734  -2.259  19.361  0.00  0.00    +0.119 C 
BRANCH  19  20
ATOM     20  N   UNL     1       5.289  -1.105  20.197  0.00  0.00    -0.302 NA
ATOM     21  C   UNL     1       6.362  -0.016  20.291  0.00  0.00    +0.066 C 
ATOM     22  C   UNL     1       5.871   1.194  21.151  0.00  0.00    -0.064 C 
ATOM     23  N   UNL     1       5.477   0.699  22.544  0.00  0.00    +0.379 N 
ATOM     24  C   UNL     1       5.069   1.843  23.373  0.00  0.00    -0.096 C 
ATOM     25  H   UNL     1       6.382   0.248  23.011  0.00  0.00    -0.082 HD
ATOM     26  C   UNL     1       4.412  -0.385  22.459  0.00  0.00    -0.064 C 
ATOM     27  C   UNL     1       4.899  -1.570  21.578  0.00  0.00    +0.066 C 
ENDBRANCH  19  20
ENDBRANCH  18  19
ENDBRANCH  14  15
ENDBRANCH  12  13
TORSDOF 6
ENDMDL
MODEL 4
REMARK VINA RESULT:      -8.1      9.102     11.447
REMARK  Name = C:\Users\Docking\Desktop\test protocol\1iep_ligandH.pdb
REMARK  8 active torsions:
REMARK  status: ('A' for Active; 'I' for Inactive)
REMARK    1  A    between atoms: _5  and  _11
REMARK    2  A    between atoms: _19  and  _21
REMARK    3  A    between atoms: _22  and  _66
REMARK    4  A    between atoms: _27  and  _30
REMARK    5  A    between atoms: _32  and  _33
REMARK    6  A    between atoms: _38  and  _43
REMARK    7  A    between atoms: _43  and  _46
REMARK    8  A    between atoms: _53  and  _55
REMARK                            x       y       z     vdW  Elec       q    Type
REMARK                         _______ _______ _______ _____ _____    ______ ____
ROOT
ATOM     10  C   UNL     1       1.600  -0.767  10.844  0.00  0.00    +0.038 A 
ATOM     11  C   UNL     1       1.884  -1.890  10.026  0.00  0.00    +0.047 A 
ATOM     12  C   UNL     1       0.999  -3.043   9.997  0.00  0.00    +0.035 A 
ATOM     32  C   UNL     1      -0.170  -3.018  10.812  0.00  0.00    +0.024 A 
ATOM     33  C   UNL     1      -0.474  -1.886  11.651  0.00  0.00    +0.007 A 
ATOM     34  C   UNL     1       0.398  -0.746  11.686  0.00  0.00    -0.029 A 
ATOM     35  C   UNL     1       0.025   0.438  12.608  0.00  0.00    +0.045 C 
ENDROOT
BRANCH  10   9
ATOM      4  C   UNL     1       5.811   1.267  11.926  0.00  0.00    +0.077 A 
ATOM      5  C   UNL     1       6.277   0.085  12.593  0.00  0.00    +0.048 A 
ATOM      6  C   UNL     1       5.400  -1.021  12.642  0.00  0.00    +0.116 A 
ATOM      7  N   UNL     1       4.152  -0.941  12.063  0.00  0.00    -0.223 NA
ATOM      8  C   UNL     1       3.733   0.214  11.429  0.00  0.00    +0.220 A 
ATOM      9  N   UNL     1       2.485   0.314  10.833  0.00  0.00    -0.283 N 
ATOM     36  H   UNL     1       2.210   1.186  10.381  0.00  0.00    +0.155 HD
ATOM     37  N   UNL     1       4.551   1.285  11.370  0.00  0.00    -0.214 NA
BRANCH   4   3
ATOM      1  C   UNL     1       8.752   3.842  12.063  0.00  0.00    +0.020 A 
ATOM      2  C   UNL     1       8.012   2.611  12.219  0.00  0.00    +0.013 A 
ATOM      3  C   UNL     1       6.623   2.517  11.789  0.00  0.00    +0.019 A 
ATOM     38  C   UNL     1       6.007   3.696  11.199  0.00  0.00    +0.120 A 
ATOM     39  N   UNL     1       6.744   4.869  11.063  0.00  0.00    -0.263 NA
ATOM     40  C   UNL     1       8.081   4.971  11.475  0.00  0.00    +0.111 A 
ENDBRANCH   4   3
ENDBRANCH  10   9
BRANCH  12  13
ATOM     13  N   UNL     1       1.240  -4.215   9.192  0.00  0.00    -0.281 N 
ATOM     14  C   UNL     1       1.808  -5.416   9.585  0.00  0.00    +0.248 C 
ATOM     30  O   UNL     1       2.393  -5.590  10.643  0.00  0.00    -0.270 OA
ATOM     31  H   UNL     1       0.958  -4.152   8.214  0.00  0.00    +0.155 HD
BRANCH  14  15
ATOM     15  C   UNL     1       1.726  -6.589   8.662  0.00  0.00    +0.037 A 
ATOM     16  C   UNL     1       0.650  -7.576   8.781  0.00  0.00    +0.013 A 
ATOM     17  C   UNL     1       0.604  -8.707   7.889  0.00  0.00    +0.005 A 
ATOM     18  C   UNL     1       1.639  -8.857   6.869  0.00  0.00    -0.033 A 
ATOM     28  C   UNL     1       2.693  -7.861   6.770  0.00  0.00    +0.005 A 
ATOM     29  C   UNL     1       2.741  -6.751   7.643  0.00  0.00    +0.013 A 
BRANCH  18  19
ATOM     19  C   UNL     1       1.681 -10.045   5.889  0.00  0.00    +0.119 C 
BRANCH  19  20
ATOM     20  N   UNL     1       1.270  -9.781   4.478  0.00  0.00    -0.302 NA
ATOM     21  C   UNL     1       2.357  -9.044   3.690  0.00  0.00    +0.066 C 
ATOM     22  C   UNL     1       1.919  -8.797   2.210  0.00  0.00    -0.064 C 
ATOM     23  N   UNL     1       0.609  -8.007   2.194  0.00  0.00    +0.379 N 
ATOM     24  C   UNL     1       0.224  -7.722   0.804  0.00  0.00    -0.096 C 
ATOM     25  H   UNL     1       0.796  -7.031   2.700  0.00  0.00    -0.082 HD
ATOM     26  C   UNL     1      -0.477  -8.731   2.977  0.00  0.00    -0.064 C 
ATOM     27  C   UNL     1      -0.020  -8.998   4.438  0.00  0.00    +0.066 C 
ENDBRANCH  19  20
ENDBRANCH  18  19
ENDBRANCH  14  15
ENDBRANCH  12  13
TORSDOF 6
ENDMDL
MODEL 5
REMARK VINA RESULT:      -8.0      8.757     11.446
REMARK  Name = C:\Users\Docking\Desktop\test protocol\1iep_ligandH.pdb
REMARK  8 active torsions:
REMARK  status: ('A' for Active; 'I' for Inactive)
REMARK    1  A    between atoms: _5  and  _11
REMARK    2  A    between atoms: _19  and  _21
REMARK    3  A    between atoms: _22  and  _66
REMARK    4  A    between atoms: _27  and  _30
REMARK    5  A    between atoms: _32  and  _33
REMARK    6  A    between atoms: _38  and  _43
REMARK    7  A    between atoms: _43  and  _46
REMARK    8  A    between atoms: _53  and  _55
REMARK                            x       y       z     vdW  Elec       q    Type
REMARK                         _______ _______ _______ _____ _____    ______ ____
ROOT
ATOM     10  C   UNL     1       1.768  -1.042  10.793  0.00  0.00    +0.038 A 
ATOM     11  C   UNL     1       1.954  -2.203   9.999  0.00  0.00    +0.047 A 
ATOM     12  C   UNL     1       0.924  -3.226   9.911  0.00  0.00    +0.035 A 
ATOM     32  C   UNL     1      -0.284  -3.034  10.642  0.00  0.00    +0.024 A 
ATOM     33  C   UNL     1      -0.489  -1.860  11.454  0.00  0.00    +0.007 A 
ATOM     34  C   UNL     1       0.524  -0.848  11.547  0.00  0.00    -0.029 A 
ATOM     35  C   UNL     1       0.253   0.386  12.438  0.00  0.00    +0.045 C 
ENDROOT
BRANCH  10   9
ATOM      4  C   UNL     1       5.987   0.558  12.429  0.00  0.00    +0.077 A 
ATOM      5  C   UNL     1       6.157  -0.584  13.280  0.00  0.00    +0.048 A 
ATOM      6  C   UNL     1       5.133  -1.557  13.273  0.00  0.00    +0.116 A 
ATOM      7  N   UNL     1       4.025  -1.390  12.470  0.00  0.00    -0.223 NA
ATOM      8  C   UNL     1       3.892  -0.276  11.662  0.00  0.00    +0.220 A 
ATOM      9  N   UNL     1       2.790  -0.091  10.841  0.00  0.00    -0.283 N 
ATOM     36  H   UNL     1       2.726   0.748  10.266  0.00  0.00    +0.155 HD
ATOM     37  N   UNL     1       4.856   0.668  11.653  0.00  0.00    -0.214 NA
BRANCH   4   3
ATOM      1  C   UNL     1       9.201   2.744  12.868  0.00  0.00    +0.020 A 
ATOM      2  C   UNL     1       8.274   1.644  13.002  0.00  0.00    +0.013 A 
ATOM      3  C   UNL     1       6.984   1.670  12.324  0.00  0.00    +0.019 A 
ATOM     38  C   UNL     1       6.661   2.832  11.511  0.00  0.00    +0.120 A 
ATOM     39  N   UNL     1       7.573   3.877  11.401  0.00  0.00    -0.263 NA
ATOM     40  C   UNL     1       8.817   3.864  12.050  0.00  0.00    +0.111 A 
ENDBRANCH   4   3
ENDBRANCH  10   9
BRANCH  12  13
ATOM     13  N   UNL     1       1.059  -4.430   9.128  0.00  0.00    -0.281 N 
ATOM     14  C   UNL     1       1.912  -5.499   9.350  0.00  0.00    +0.248 C 
ATOM     30  O   UNL     1       2.844  -5.487  10.140  0.00  0.00    -0.270 OA
ATOM     31  H   UNL     1       0.453  -4.502   8.311  0.00  0.00    +0.155 HD
BRANCH  14  15
ATOM     15  C   UNL     1       1.708  -6.758   8.572  0.00  0.00    +0.037 A 
ATOM     16  C   UNL     1       2.632  -7.149   7.504  0.00  0.00    +0.013 A 
ATOM     17  C   UNL     1       2.403  -8.361   6.757  0.00  0.00    +0.005 A 
ATOM     18  C   UNL     1       1.244  -9.191   7.078  0.00  0.00    -0.033 A 
ATOM     28  C   UNL     1       0.347  -8.782   8.146  0.00  0.00    +0.005 A 
ATOM     29  C   UNL     1       0.568  -7.595   8.879  0.00  0.00    +0.013 A 
BRANCH  18  19
ATOM     19  C   UNL     1       0.910 -10.489   6.319  0.00  0.00    +0.119 C 
BRANCH  19  20
ATOM     20  N   UNL     1      -0.180 -10.425   5.300  0.00  0.00    -0.302 NA
ATOM     21  C   UNL     1      -0.096  -9.155   4.449  0.00  0.00    +0.066 C 
ATOM     22  C   UNL     1      -1.230  -9.114   3.373  0.00  0.00    -0.064 C 
ATOM     23  N   UNL     1      -2.590  -9.213   4.067  0.00  0.00    +0.379 N 
ATOM     24  C   UNL     1      -3.660  -9.116   3.063  0.00  0.00    -0.096 C 
ATOM     25  H   UNL     1      -2.685  -8.336   4.749  0.00  0.00    -0.082 HD
ATOM     26  C   UNL     1      -2.681 -10.471   4.918  0.00  0.00    -0.064 C 
ATOM     27  C   UNL     1      -1.532 -10.516   5.964  0.00  0.00    +0.066 C 
ENDBRANCH  19  20
ENDBRANCH  18  19
ENDBRANCH  14  15
ENDBRANCH  12  13
TORSDOF 6
ENDMDL
