MODEL 1
REMARK VINA RESULT:      -8.3      0.000      0.000
REMARK  Name = C:\Users\Docking\Desktop\test protocol\1iep_ligandH.pdb
REMARK  8 active torsions:
REMARK  status: ('A' for Active; 'I' for Inactive)
REMARK    1  A    between atoms: _5  and  _11
REMARK    2  A    between atoms: _19  and  _21
REMARK    3  A    between atoms: _22  and  _66
REMARK    4  A    between atoms: _27  and  _30
REMARK    5  A    between atoms: _32  and  _33
REMARK    6  A    between atoms: _38  and  _43
REMARK    7  A    between atoms: _43  and  _46
REMARK    8  A    between atoms: _53  and  _55
REMARK                            x       y       z     vdW  Elec       q    Type
REMARK                         _______ _______ _______ _____ _____    ______ ____
ROOT
ATOM     10  C   UNL     1       8.425  -3.851  12.403  0.00  0.00    +0.038 A 
ATOM     11  C   UNL     1       7.726  -2.715  12.887  0.00  0.00    +0.047 A 
ATOM     12  C   UNL     1       7.710  -1.467  12.141  0.00  0.00    +0.035 A 
ATOM     32  C   UNL     1       8.414  -1.411  10.903  0.00  0.00    +0.024 A 
ATOM     33  C   UNL     1       9.130  -2.555  10.396  0.00  0.00    +0.007 A 
ATOM     34  C   UNL     1       9.152  -3.789  11.130  0.00  0.00    -0.029 A 
ATOM     35  C   UNL     1       9.941  -4.981  10.542  0.00  0.00    +0.045 C 
ENDROOT
BRANCH  10   9
ATOM      4  C   UNL     1      10.138  -6.658  15.899  0.00  0.00    +0.077 A 
ATOM      5  C   UNL     1      11.173  -5.720  16.226  0.00  0.00    +0.048 A 
ATOM      6  C   UNL     1      11.235  -4.531  15.466  0.00  0.00    +0.116 A 
ATOM      7  N   UNL     1      10.323  -4.306  14.457  0.00  0.00    -0.223 NA
ATOM      8  C   UNL     1       9.338  -5.232  14.166  0.00  0.00    +0.220 A 
ATOM      9  N   UNL     1       8.407  -5.024  13.161  0.00  0.00    -0.283 N 
ATOM     36  H   UNL     1       7.700  -5.735  12.973  0.00  0.00    +0.155 HD
ATOM     37  N   UNL     1       9.260  -6.377  14.877  0.00  0.00    -0.214 NA
BRANCH   4   3
ATOM      1  C   UNL     1      10.757  -9.869  18.046  0.00  0.00    +0.020 A 
ATOM      2  C   UNL     1      10.999  -8.613  17.373  0.00  0.00    +0.013 A 
ATOM      3  C   UNL     1       9.941  -7.959  16.614  0.00  0.00    +0.019 A 
ATOM     38  C   UNL     1       8.639  -8.605  16.555  0.00  0.00    +0.120 A 
ATOM     39  N   UNL     1       8.435  -9.815  17.211  0.00  0.00    -0.263 NA
ATOM     40  C   UNL     1       9.446 -10.455  17.944  0.00  0.00    +0.111 A 
ENDBRANCH   4   3
ENDBRANCH  10   9
BRANCH  12  13
ATOM     13  N   UNL     1       7.025  -0.279  12.586  0.00  0.00    -0.281 N 
ATOM     14  C   UNL     1       5.765  -0.185  13.156  0.00  0.00    +0.248 C 
ATOM     30  O   UNL     1       4.945  -1.091  13.172  0.00  0.00    -0.270 OA
ATOM     31  H   UNL     1       7.529   0.599  12.467  0.00  0.00    +0.155 HD
BRANCH  14  15
ATOM     15  C   UNL     1       5.352   1.106  13.784  0.00  0.00    +0.037 A 
ATOM     16  C   UNL     1       4.178   1.184  14.658  0.00  0.00    +0.013 A 
ATOM     17  C   UNL     1       3.791   2.446  15.239  0.00  0.00    +0.005 A 
ATOM     18  C   UNL     1       4.580   3.640  14.947  0.00  0.00    -0.033 A 
ATOM     28  C   UNL     1       5.743   3.533  14.081  0.00  0.00    +0.005 A 
ATOM     29  C   UNL     1       6.124   2.299  13.509  0.00  0.00    +0.013 A 
BRANCH  18  19
ATOM     19  C   UNL     1       4.229   5.032  15.505  0.00  0.00    +0.119 C 
BRANCH  19  20
ATOM     20  N   UNL     1       4.271   5.204  16.988  0.00  0.00    -0.302 NA
ATOM     21  C   UNL     1       4.265   6.681  17.395  0.00  0.00    +0.066 C 
ATOM     22  C   UNL     1       4.286   6.843  18.950  0.00  0.00    -0.064 C 
ATOM     23  N   UNL     1       5.515   6.129  19.517  0.00  0.00    +0.379 N 
ATOM     24  C   UNL     1       5.570   6.329  20.973  0.00  0.00    -0.096 C 
ATOM     25  H   UNL     1       6.419   6.610  19.075  0.00  0.00    -0.082 HD
ATOM     26  C   UNL     1       5.530   4.661  19.115  0.00  0.00    -0.064 C 
ATOM     27  C   UNL     1       5.479   4.511  17.569  0.00  0.00    +0.066 C 
ENDBRANCH  19  20
ENDBRANCH  18  19
ENDBRANCH  14  15
ENDBRANCH  12  13
TORSDOF 6
ENDMDL
MODEL 2
REMARK VINA RESULT:      -8.0      1.644      2.143
REMARK  Name = C:\Users\Docking\Desktop\test protocol\1iep_ligandH.pdb
REMARK  8 active torsions:
REMARK  status: ('A' for Active; 'I' for Inactive)
REMARK    1  A    between atoms: _5  and  _11
REMARK    2  A    between atoms: _19  and  _21
REMARK    3  A    between atoms: _22  and  _66
REMARK    4  A    between atoms: _27  and  _30
REMARK    5  A    between atoms: _32  and  _33
REMARK    6  A    between atoms: _38  and  _43
REMARK    7  A    between atoms: _43  and  _46
REMARK    8  A    between atoms: _53  and  _55
REMARK                            x       y       z     vdW  Elec       q    Type
REMARK                         _______ _______ _______ _____ _____    ______ ____
ROOT
ATOM     10  C   UNL     1       8.361  -3.729  11.999  0.00  0.00    +0.038 A 
ATOM     11  C   UNL     1       7.852  -2.493  12.476  0.00  0.00    +0.047 A 
ATOM     12  C   UNL     1       7.856  -1.305  11.637  0.00  0.00    +0.035 A 
ATOM     32  C   UNL     1       8.382  -1.411  10.317  0.00  0.00    +0.024 A 
ATOM     33  C   UNL     1       8.904  -2.659   9.817  0.00  0.00    +0.007 A 
ATOM     34  C   UNL     1       8.905  -3.834  10.640  0.00  0.00    -0.029 A 
ATOM     35  C   UNL     1       9.483  -5.143  10.054  0.00  0.00    +0.045 C 
ENDROOT
BRANCH  10   9
ATOM      4  C   UNL     1      10.151  -6.352  15.598  0.00  0.00    +0.077 A 
ATOM      5  C   UNL     1      11.250  -5.449  15.788  0.00  0.00    +0.048 A 
ATOM      6  C   UNL     1      11.322  -4.326  14.934  0.00  0.00    +0.116 A 
ATOM      7  N   UNL     1      10.361  -4.130  13.966  0.00  0.00    -0.223 NA
ATOM      8  C   UNL     1       9.315  -5.020  13.809  0.00  0.00    +0.220 A 
ATOM      9  N   UNL     1       8.333  -4.838  12.847  0.00  0.00    -0.283 N 
ATOM     36  H   UNL     1       7.581  -5.522  12.758  0.00  0.00    +0.155 HD
ATOM     37  N   UNL     1       9.224  -6.102  14.611  0.00  0.00    -0.214 NA
BRANCH   4   3
ATOM      1  C   UNL     1      10.717  -9.358  18.036  0.00  0.00    +0.020 A 
ATOM      2  C   UNL     1      10.977  -8.169  17.257  0.00  0.00    +0.013 A 
ATOM      3  C   UNL     1       9.935  -7.582  16.424  0.00  0.00    +0.019 A 
ATOM     38  C   UNL     1       8.631  -8.227  16.401  0.00  0.00    +0.120 A 
ATOM     39  N   UNL     1       8.410  -9.372  17.161  0.00  0.00    -0.263 NA
ATOM     40  C   UNL     1       9.405  -9.947  17.965  0.00  0.00    +0.111 A 
ENDBRANCH   4   3
ENDBRANCH  10   9
BRANCH  12  13
ATOM     13  N   UNL     1       7.361  -0.021  12.069  0.00  0.00    -0.281 N 
ATOM     14  C   UNL     1       7.812   1.235  11.698  0.00  0.00    +0.248 C 
ATOM     30  O   UNL     1       8.857   1.444  11.099  0.00  0.00    -0.270 OA
ATOM     31  H   UNL     1       6.583  -0.041  12.729  0.00  0.00    +0.155 HD
BRANCH  14  15
ATOM     15  C   UNL     1       6.993   2.432  12.057  0.00  0.00    +0.037 A 
ATOM     16  C   UNL     1       7.078   3.672  11.281  0.00  0.00    +0.013 A 
ATOM     17  C   UNL     1       6.289   4.817  11.659  0.00  0.00    +0.005 A 
ATOM     18  C   UNL     1       5.407   4.728  12.820  0.00  0.00    -0.033 A 
ATOM     28  C   UNL     1       5.338   3.484  13.570  0.00  0.00    +0.005 A 
ATOM     29  C   UNL     1       6.111   2.359  13.203  0.00  0.00    +0.013 A 
BRANCH  18  19
ATOM     19  C   UNL     1       4.545   5.907  13.309  0.00  0.00    +0.119 C 
BRANCH  19  20
ATOM     20  N   UNL     1       4.141   5.909  14.747  0.00  0.00    -0.302 NA
ATOM     21  C   UNL     1       2.858   6.711  14.982  0.00  0.00    +0.066 C 
ATOM     22  C   UNL     1       2.437   6.684  16.487  0.00  0.00    -0.064 C 
ATOM     23  N   UNL     1       3.581   7.229  17.344  0.00  0.00    +0.379 N 
ATOM     24  C   UNL     1       3.167   7.258  18.754  0.00  0.00    -0.096 C 
ATOM     25  H   UNL     1       3.771   8.280  17.024  0.00  0.00    -0.082 HD
ATOM     26  C   UNL     1       4.861   6.438  17.114  0.00  0.00    -0.064 C 
ATOM     27  C   UNL     1       5.255   6.447  15.610  0.00  0.00    +0.066 C 
ENDBRANCH  19  20
ENDBRANCH  18  19
ENDBRANCH  14  15
ENDBRANCH  12  13
TORSDOF 6
ENDMDL
MODEL 3
REMARK VINA RESULT:      -8.0     15.885     18.358
REMARK  Name = C:\Users\Docking\Desktop\test protocol\1iep_ligandH.pdb
REMARK  8 active torsions:
REMARK  status: ('A' for Active; 'I' for Inactive)
REMARK    1  A    between atoms: _5  and  _11
REMARK    2  A    between atoms: _19  and  _21
REMARK    3  A    between atoms: _22  and  _66
REMARK    4  A    between atoms: _27  and  _30
REMARK    5  A    between atoms: _32  and  _33
REMARK    6  A    between atoms: _38  and  _43
REMARK    7  A    between atoms: _43  and  _46
REMARK    8  A    between atoms: _53  and  _55
REMARK                            x       y       z     vdW  Elec       q    Type
REMARK                         _______ _______ _______ _____ _____    ______ ____
ROOT
ATOM     10  C   UNL     1       6.616  12.116  28.605  0.00  0.00    +0.038 A 
ATOM     11  C   UNL     1       5.759  12.132  27.475  0.00  0.00    +0.047 A 
ATOM     12  C   UNL     1       4.329  12.354  27.619  0.00  0.00    +0.035 A 
ATOM     32  C   UNL     1       3.805  12.558  28.929  0.00  0.00    +0.024 A 
ATOM     33  C   UNL     1       4.662  12.544  30.089  0.00  0.00    +0.007 A 
ATOM     34  C   UNL     1       6.073  12.323  29.953  0.00  0.00    -0.029 A 
ATOM     35  C   UNL     1       6.943  12.312  31.232  0.00  0.00    +0.045 C 
ENDROOT
BRANCH  10   9
ATOM      4  C   UNL     1      10.292  10.174  26.206  0.00  0.00    +0.077 A 
ATOM      5  C   UNL     1       9.416   9.514  25.281  0.00  0.00    +0.048 A 
ATOM      6  C   UNL     1       8.026   9.694  25.461  0.00  0.00    +0.116 A 
ATOM      7  N   UNL     1       7.558  10.478  26.493  0.00  0.00    -0.223 NA
ATOM      8  C   UNL     1       8.430  11.099  27.369  0.00  0.00    +0.220 A 
ATOM      9  N   UNL     1       7.982  11.899  28.409  0.00  0.00    -0.283 N 
ATOM     36  H   UNL     1       8.657  12.333  29.038  0.00  0.00    +0.155 HD
ATOM     37  N   UNL     1       9.762  10.942  27.219  0.00  0.00    -0.214 NA
BRANCH   4   3
ATOM      1  C   UNL     1      13.930   9.079  25.274  0.00  0.00    +0.020 A 
ATOM      2  C   UNL     1      12.486   9.126  25.297  0.00  0.00    +0.013 A 
ATOM      3  C   UNL     1      11.785  10.083  26.144  0.00  0.00    +0.019 A 
ATOM     38  C   UNL     1      12.581  10.986  26.962  0.00  0.00    +0.120 A 
ATOM     39  N   UNL     1      13.970  10.917  26.920  0.00  0.00    -0.263 NA
ATOM     40  C   UNL     1      14.655   9.999  26.110  0.00  0.00    +0.111 A 
ENDBRANCH   4   3
ENDBRANCH  10   9
BRANCH  12  13
ATOM     13  N   UNL     1       3.408  12.373  26.509  0.00  0.00    -0.281 N 
ATOM     14  C   UNL     1       2.773  11.297  25.911  0.00  0.00    +0.248 C 
ATOM     30  O   UNL     1       3.068  10.126  26.103  0.00  0.00    -0.270 OA
ATOM     31  H   UNL     1       3.199  13.291  26.118  0.00  0.00    +0.155 HD
BRANCH  14  15
ATOM     15  C   UNL     1       1.660  11.559  24.948  0.00  0.00    +0.037 A 
ATOM     16  C   UNL     1       0.495  10.674  24.875  0.00  0.00    +0.013 A 
ATOM     17  C   UNL     1      -0.557  10.940  23.926  0.00  0.00    +0.005 A 
ATOM     18  C   UNL     1      -0.448  12.099  23.043  0.00  0.00    -0.033 A 
ATOM     28  C   UNL     1       0.717  12.963  23.140  0.00  0.00    +0.005 A 
ATOM     29  C   UNL     1       1.750  12.704  24.068  0.00  0.00    +0.013 A 
BRANCH  18  19
ATOM     19  C   UNL     1      -1.512  12.447  21.986  0.00  0.00    +0.119 C 
BRANCH  19  20
ATOM     20  N   UNL     1      -1.112  12.338  20.551  0.00  0.00    -0.302 NA
ATOM     21  C   UNL     1      -1.785  13.407  19.684  0.00  0.00    +0.066 C 
ATOM     22  C   UNL     1      -1.338  13.292  18.190  0.00  0.00    -0.064 C 
ATOM     23  N   UNL     1      -1.661  11.891  17.670  0.00  0.00    +0.379 N 
ATOM     24  C   UNL     1      -1.295  11.798  16.249  0.00  0.00    -0.096 C 
ATOM     25  H   UNL     1      -2.764  11.748  17.745  0.00  0.00    -0.082 HD
ATOM     26  C   UNL     1      -0.998  10.822  18.528  0.00  0.00    -0.064 C 
ATOM     27  C   UNL     1      -1.427  10.963  20.015  0.00  0.00    +0.066 C 
ENDBRANCH  19  20
ENDBRANCH  18  19
ENDBRANCH  14  15
ENDBRANCH  12  13
TORSDOF 6
ENDMDL
MODEL 4
REMARK VINA RESULT:      -7.7      1.348      2.277
REMARK  Name = C:\Users\Docking\Desktop\test protocol\1iep_ligandH.pdb
REMARK  8 active torsions:
REMARK  status: ('A' for Active; 'I' for Inactive)
REMARK    1  A    between atoms: _5  and  _11
REMARK    2  A    between atoms: _19  and  _21
REMARK    3  A    between atoms: _22  and  _66
REMARK    4  A    between atoms: _27  and  _30
REMARK    5  A    between atoms: _32  and  _33
REMARK    6  A    between atoms: _38  and  _43
REMARK    7  A    between atoms: _43  and  _46
REMARK    8  A    between atoms: _53  and  _55
REMARK                            x       y       z     vdW  Elec       q    Type
REMARK                         _______ _______ _______ _____ _____    ______ ____
ROOT
ATOM     10  C   UNL     1       8.370  -3.858  12.453  0.00  0.00    +0.038 A 
ATOM     11  C   UNL     1       7.780  -2.701  13.023  0.00  0.00    +0.047 A 
ATOM     12  C   UNL     1       7.724  -1.446  12.290  0.00  0.00    +0.035 A 
ATOM     32  C   UNL     1       8.276  -1.405  10.977  0.00  0.00    +0.024 A 
ATOM     33  C   UNL     1       8.881  -2.571  10.382  0.00  0.00    +0.007 A 
ATOM     34  C   UNL     1       8.941  -3.812  11.101  0.00  0.00    -0.029 A 
ATOM     35  C   UNL     1       9.606  -5.028  10.417  0.00  0.00    +0.045 C 
ENDROOT
BRANCH  10   9
ATOM      4  C   UNL     1      10.227  -6.652  15.885  0.00  0.00    +0.077 A 
ATOM      5  C   UNL     1      11.248  -5.693  16.195  0.00  0.00    +0.048 A 
ATOM      6  C   UNL     1      11.265  -4.497  15.444  0.00  0.00    +0.116 A 
ATOM      7  N   UNL     1      10.325  -4.285  14.458  0.00  0.00    -0.223 NA
ATOM      8  C   UNL     1       9.355  -5.232  14.183  0.00  0.00    +0.220 A 
ATOM      9  N   UNL     1       8.396  -5.037  13.201  0.00  0.00    -0.283 N 
ATOM     36  H   UNL     1       7.702  -5.762  13.023  0.00  0.00    +0.155 HD
ATOM     37  N   UNL     1       9.319  -6.383  14.885  0.00  0.00    -0.214 NA
BRANCH   4   3
ATOM      1  C   UNL     1      10.969  -9.866  17.988  0.00  0.00    +0.020 A 
ATOM      2  C   UNL     1      11.167  -8.600  17.320  0.00  0.00    +0.013 A 
ATOM      3  C   UNL     1      10.077  -7.962  16.593  0.00  0.00    +0.019 A 
ATOM     38  C   UNL     1       8.787  -8.636  16.562  0.00  0.00    +0.120 A 
ATOM     39  N   UNL     1       8.627  -9.856  17.213  0.00  0.00    -0.263 NA
ATOM     40  C   UNL     1       9.669 -10.480  17.914  0.00  0.00    +0.111 A 
ENDBRANCH   4   3
ENDBRANCH  10   9
BRANCH  12  13
ATOM     13  N   UNL     1       7.145  -0.237  12.821  0.00  0.00    -0.281 N 
ATOM     14  C   UNL     1       5.818   0.004  13.140  0.00  0.00    +0.248 C 
ATOM     30  O   UNL     1       4.887  -0.719  12.815  0.00  0.00    -0.270 OA
ATOM     31  H   UNL     1       7.791   0.536  12.981  0.00  0.00    +0.155 HD
BRANCH  14  15
ATOM     15  C   UNL     1       5.474   1.231  13.920  0.00  0.00    +0.037 A 
ATOM     16  C   UNL     1       6.015   2.542  13.552  0.00  0.00    +0.013 A 
ATOM     17  C   UNL     1       5.681   3.707  14.332  0.00  0.00    +0.005 A 
ATOM     18  C   UNL     1       4.799   3.566  15.488  0.00  0.00    -0.033 A 
ATOM     28  C   UNL     1       4.272   2.255  15.828  0.00  0.00    +0.005 A 
ATOM     29  C   UNL     1       4.598   1.110  15.066  0.00  0.00    +0.013 A 
BRANCH  18  19
ATOM     19  C   UNL     1       4.406   4.752  16.390  0.00  0.00    +0.119 C 
BRANCH  19  20
ATOM     20  N   UNL     1       3.799   5.944  15.726  0.00  0.00    -0.302 NA
ATOM     21  C   UNL     1       4.246   7.255  16.379  0.00  0.00    +0.066 C 
ATOM     22  C   UNL     1       3.620   8.493  15.658  0.00  0.00    -0.064 C 
ATOM     23  N   UNL     1       2.095   8.372  15.675  0.00  0.00    +0.379 N 
ATOM     24  C   UNL     1       1.502   9.562  15.049  0.00  0.00    -0.096 C 
ATOM     25  H   UNL     1       1.770   8.352  16.741  0.00  0.00    -0.082 HD
ATOM     26  C   UNL     1       1.642   7.070  15.030  0.00  0.00    -0.064 C 
ATOM     27  C   UNL     1       2.293   5.847  15.735  0.00  0.00    +0.066 C 
ENDBRANCH  19  20
ENDBRANCH  18  19
ENDBRANCH  14  15
ENDBRANCH  12  13
TORSDOF 6
ENDMDL
MODEL 5
REMARK VINA RESULT:      -7.7      7.967     13.109
REMARK  Name = C:\Users\Docking\Desktop\test protocol\1iep_ligandH.pdb
REMARK  8 active torsions:
REMARK  status: ('A' for Active; 'I' for Inactive)
REMARK    1  A    between atoms: _5  and  _11
REMARK    2  A    between atoms: _19  and  _21
REMARK    3  A    between atoms: _22  and  _66
REMARK    4  A    between atoms: _27  and  _30
REMARK    5  A    between atoms: _32  and  _33
REMARK    6  A    between atoms: _38  and  _43
REMARK    7  A    between atoms: _43  and  _46
REMARK    8  A    between atoms: _53  and  _55
REMARK                            x       y       z     vdW  Elec       q    Type
REMARK                         _______ _______ _______ _____ _____    ______ ____
ROOT
ATOM     10  C   UNL     1       9.006  -4.913   7.534  0.00  0.00    +0.038 A 
ATOM     11  C   UNL     1      10.048  -4.443   6.693  0.00  0.00    +0.047 A 
ATOM     12  C   UNL     1       9.787  -4.063   5.313  0.00  0.00    +0.035 A 
ATOM     32  C   UNL     1       8.453  -4.171   4.823  0.00  0.00    +0.024 A 
ATOM     33  C   UNL     1       7.383  -4.647   5.664  0.00  0.00    +0.007 A 
ATOM     34  C   UNL     1       7.634  -5.026   7.024  0.00  0.00    -0.029 A 
ATOM     35  C   UNL     1       6.450  -5.537   7.878  0.00  0.00    +0.045 C 
ENDROOT
BRANCH  10   9
ATOM      4  C   UNL     1       9.551  -3.847  12.182  0.00  0.00    +0.077 A 
ATOM      5  C   UNL     1       9.223  -2.468  11.965  0.00  0.00    +0.048 A 
ATOM      6  C   UNL     1       8.928  -2.071  10.641  0.00  0.00    +0.116 A 
ATOM      7  N   UNL     1       8.960  -2.995   9.619  0.00  0.00    -0.223 NA
ATOM      8  C   UNL     1       9.282  -4.317   9.862  0.00  0.00    +0.220 A 
ATOM      9  N   UNL     1       9.313  -5.265   8.850  0.00  0.00    -0.283 N 
ATOM     36  H   UNL     1       9.562  -6.229   9.070  0.00  0.00    +0.155 HD
ATOM     37  N   UNL     1       9.569  -4.720  11.117  0.00  0.00    -0.214 NA
BRANCH   4   3
ATOM      1  C   UNL     1      11.003  -4.319  15.783  0.00  0.00    +0.020 A 
ATOM      2  C   UNL     1      10.712  -3.722  14.500  0.00  0.00    +0.013 A 
ATOM      3  C   UNL     1       9.883  -4.420  13.525  0.00  0.00    +0.019 A 
ATOM     38  C   UNL     1       9.360  -5.730  13.882  0.00  0.00    +0.120 A 
ATOM     39  N   UNL     1       9.658  -6.280  15.125  0.00  0.00    -0.263 NA
ATOM     40  C   UNL     1      10.456  -5.619  16.071  0.00  0.00    +0.111 A 
ENDBRANCH   4   3
ENDBRANCH  10   9
BRANCH  12  13
ATOM     13  N   UNL     1      10.806  -3.586   4.411  0.00  0.00    -0.281 N 
ATOM     14  C   UNL     1      10.959  -2.309   3.897  0.00  0.00    +0.248 C 
ATOM     30  O   UNL     1      10.114  -1.429   3.969  0.00  0.00    -0.270 OA
ATOM     31  H   UNL     1      11.498  -4.275   4.114  0.00  0.00    +0.155 HD
BRANCH  14  15
ATOM     15  C   UNL     1      12.229  -1.963   3.189  0.00  0.00    +0.037 A 
ATOM     16  C   UNL     1      12.805  -2.858   2.182  0.00  0.00    +0.013 A 
ATOM     17  C   UNL     1      14.040  -2.508   1.526  0.00  0.00    +0.005 A 
ATOM     18  C   UNL     1      14.706  -1.256   1.874  0.00  0.00    -0.033 A 
ATOM     28  C   UNL     1      14.110  -0.384   2.873  0.00  0.00    +0.005 A 
ATOM     29  C   UNL     1      12.900  -0.724   3.519  0.00  0.00    +0.013 A 
BRANCH  18  19
ATOM     19  C   UNL     1      16.038  -0.812   1.240  0.00  0.00    +0.119 C 
BRANCH  19  20
ATOM     20  N   UNL     1      17.242  -1.651   1.520  0.00  0.00    -0.302 NA
ATOM     21  C   UNL     1      17.388  -1.966   3.012  0.00  0.00    +0.066 C 
ATOM     22  C   UNL     1      18.639  -2.863   3.284  0.00  0.00    -0.064 C 
ATOM     23  N   UNL     1      19.891  -2.162   2.753  0.00  0.00    +0.379 N 
ATOM     24  C   UNL     1      21.076  -2.976   3.059  0.00  0.00    -0.096 C 
ATOM     25  H   UNL     1      19.994  -1.196   3.299  0.00  0.00    -0.082 HD
ATOM     26  C   UNL     1      19.753  -1.843   1.271  0.00  0.00    -0.064 C 
ATOM     27  C   UNL     1      18.490  -0.976   1.008  0.00  0.00    +0.066 C 
ENDBRANCH  19  20
ENDBRANCH  18  19
ENDBRANCH  14  15
ENDBRANCH  12  13
TORSDOF 6
ENDMDL
