MODEL 1
REMARK VINA RESULT:      -9.9      0.000      0.000
REMARK  Name = C:\Users\Docking\Desktop\test protocol\1iep_ligandH.pdb
REMARK  8 active torsions:
REMARK  status: ('A' for Active; 'I' for Inactive)
REMARK    1  A    between atoms: _5  and  _11
REMARK    2  A    between atoms: _19  and  _21
REMARK    3  A    between atoms: _22  and  _66
REMARK    4  A    between atoms: _27  and  _30
REMARK    5  A    between atoms: _32  and  _33
REMARK    6  A    between atoms: _38  and  _43
REMARK    7  A    between atoms: _43  and  _46
REMARK    8  A    between atoms: _53  and  _55
REMARK                            x       y       z     vdW  Elec       q    Type
REMARK                         _______ _______ _______ _____ _____    ______ ____
ROOT
ATOM     10  C   UNL     1       8.030  48.291  -1.029  0.00  0.00    +0.038 A 
ATOM     11  C   UNL     1       6.911  48.395  -0.164  0.00  0.00    +0.047 A 
ATOM     12  C   UNL     1       5.765  49.220  -0.512  0.00  0.00    +0.035 A 
ATOM     32  C   UNL     1       5.791  49.925  -1.751  0.00  0.00    +0.024 A 
ATOM     33  C   UNL     1       6.921  49.832  -2.641  0.00  0.00    +0.007 A 
ATOM     34  C   UNL     1       8.056  49.020  -2.302  0.00  0.00    -0.029 A 
ATOM     35  C   UNL     1       9.242  48.963  -3.292  0.00  0.00    +0.045 C 
ENDROOT
BRANCH  10   9
ATOM      4  C   UNL     1      10.141  44.008  -0.537  0.00  0.00    +0.077 A 
ATOM      5  C   UNL     1       8.999  43.319  -1.065  0.00  0.00    +0.048 A 
ATOM      6  C   UNL     1       7.886  44.102  -1.445  0.00  0.00    +0.116 A 
ATOM      7  N   UNL     1       7.924  45.472  -1.303  0.00  0.00    -0.223 NA
ATOM      8  C   UNL     1       9.040  46.106  -0.789  0.00  0.00    +0.220 A 
ATOM      9  N   UNL     1       9.103  47.483  -0.645  0.00  0.00    -0.283 N 
ATOM     36  H   UNL     1       9.942  47.912  -0.254  0.00  0.00    +0.155 HD
ATOM     37  N   UNL     1      10.115  45.380  -0.417  0.00  0.00    -0.214 NA
BRANCH   4   3
ATOM      1  C   UNL     1      12.695  41.836   1.478  0.00  0.00    +0.020 A 
ATOM      2  C   UNL     1      11.459  42.479   1.094  0.00  0.00    +0.013 A 
ATOM      3  C   UNL     1      11.394  43.319  -0.095  0.00  0.00    +0.019 A 
ATOM     38  C   UNL     1      12.607  43.489  -0.881  0.00  0.00    +0.120 A 
ATOM     39  N   UNL     1      13.783  42.859  -0.486  0.00  0.00    -0.263 NA
ATOM     40  C   UNL     1      13.858  42.049   0.657  0.00  0.00    +0.111 A 
ENDBRANCH   4   3
ENDBRANCH  10   9
BRANCH  12  13
ATOM     13  N   UNL     1       4.604  49.371   0.330  0.00  0.00    -0.281 N 
ATOM     14  C   UNL     1       4.520  50.002   1.560  0.00  0.00    +0.248 C 
ATOM     30  O   UNL     1       5.484  50.350   2.226  0.00  0.00    -0.270 OA
ATOM     31  H   UNL     1       3.739  48.963  -0.024  0.00  0.00    +0.155 HD
BRANCH  14  15
ATOM     15  C   UNL     1       3.170  50.274   2.142  0.00  0.00    +0.037 A 
ATOM     16  C   UNL     1       3.016  51.051   3.374  0.00  0.00    +0.013 A 
ATOM     17  C   UNL     1       1.704  51.284   3.923  0.00  0.00    +0.005 A 
ATOM     18  C   UNL     1       0.534  50.739   3.238  0.00  0.00    -0.033 A 
ATOM     28  C   UNL     1       0.715  49.976   2.014  0.00  0.00    +0.005 A 
ATOM     29  C   UNL     1       2.000  49.745   1.474  0.00  0.00    +0.013 A 
BRANCH  18  19
ATOM     19  C   UNL     1      -0.902  50.921   3.763  0.00  0.00    +0.119 C 
BRANCH  19  20
ATOM     20  N   UNL     1      -1.070  51.638   5.062  0.00  0.00    -0.302 NA
ATOM     21  C   UNL     1      -2.139  50.987   5.944  0.00  0.00    +0.066 C 
ATOM     22  C   UNL     1      -2.285  51.737   7.308  0.00  0.00    -0.064 C 
ATOM     23  N   UNL     1      -2.621  53.206   7.046  0.00  0.00    +0.379 N 
ATOM     24  C   UNL     1      -2.816  53.900   8.327  0.00  0.00    -0.096 C 
ATOM     25  H   UNL     1      -3.588  53.238   6.493  0.00  0.00    -0.082 HD
ATOM     26  C   UNL     1      -1.564  53.860   6.168  0.00  0.00    -0.064 C 
ATOM     27  C   UNL     1      -1.406  53.090   4.827  0.00  0.00    +0.066 C 
ENDBRANCH  19  20
ENDBRANCH  18  19
ENDBRANCH  14  15
ENDBRANCH  12  13
TORSDOF 6
ENDMDL
MODEL 2
REMARK VINA RESULT:      -9.9      4.446     13.003
REMARK  Name = C:\Users\Docking\Desktop\test protocol\1iep_ligandH.pdb
REMARK  8 active torsions:
REMARK  status: ('A' for Active; 'I' for Inactive)
REMARK    1  A    between atoms: _5  and  _11
REMARK    2  A    between atoms: _19  and  _21
REMARK    3  A    between atoms: _22  and  _66
REMARK    4  A    between atoms: _27  and  _30
REMARK    5  A    between atoms: _32  and  _33
REMARK    6  A    between atoms: _38  and  _43
REMARK    7  A    between atoms: _43  and  _46
REMARK    8  A    between atoms: _53  and  _55
REMARK                            x       y       z     vdW  Elec       q    Type
REMARK                         _______ _______ _______ _____ _____    ______ ____
ROOT
ATOM     10  C   UNL     1      -0.511  49.987   2.262  0.00  0.00    +0.038 A 
ATOM     11  C   UNL     1       0.905  49.929   2.219  0.00  0.00    +0.047 A 
ATOM     12  C   UNL     1       1.626  50.049   0.961  0.00  0.00    +0.035 A 
ATOM     32  C   UNL     1       0.872  50.231  -0.235  0.00  0.00    +0.024 A 
ATOM     33  C   UNL     1      -0.569  50.292  -0.209  0.00  0.00    +0.007 A 
ATOM     34  C   UNL     1      -1.285  50.171   1.028  0.00  0.00    -0.029 A 
ATOM     35  C   UNL     1      -2.830  50.237   0.995  0.00  0.00    +0.045 C 
ENDROOT
BRANCH  10   9
ATOM      4  C   UNL     1      -1.966  51.781   6.469  0.00  0.00    +0.077 A 
ATOM      5  C   UNL     1      -1.378  53.060   6.194  0.00  0.00    +0.048 A 
ATOM      6  C   UNL     1      -0.703  53.213   4.962  0.00  0.00    +0.116 A 
ATOM      7  N   UNL     1      -0.630  52.159   4.078  0.00  0.00    -0.223 NA
ATOM      8  C   UNL     1      -1.207  50.938   4.375  0.00  0.00    +0.220 A 
ATOM      9  N   UNL     1      -1.151  49.866   3.497  0.00  0.00    -0.283 N 
ATOM     36  H   UNL     1      -1.583  48.979   3.756  0.00  0.00    +0.155 HD
ATOM     37  N   UNL     1      -1.855  50.766   5.546  0.00  0.00    -0.214 NA
BRANCH   4   3
ATOM      1  C   UNL     1      -4.342  50.086   9.074  0.00  0.00    +0.020 A 
ATOM      2  C   UNL     1      -3.645  50.348   7.836  0.00  0.00    +0.013 A 
ATOM      3  C   UNL     1      -2.715  51.465   7.727  0.00  0.00    +0.019 A 
ATOM     38  C   UNL     1      -2.510  52.303   8.898  0.00  0.00    +0.120 A 
ATOM     39  N   UNL     1      -3.197  52.028  10.077  0.00  0.00    -0.263 NA
ATOM     40  C   UNL     1      -4.096  50.957  10.193  0.00  0.00    +0.111 A 
ENDBRANCH   4   3
ENDBRANCH  10   9
BRANCH  12  13
ATOM     13  N   UNL     1       3.063  49.989   0.855  0.00  0.00    -0.281 N 
ATOM     14  C   UNL     1       3.823  49.148   0.060  0.00  0.00    +0.248 C 
ATOM     30  O   UNL     1       3.386  48.168  -0.526  0.00  0.00    -0.270 OA
ATOM     31  H   UNL     1       3.582  50.647   1.437  0.00  0.00    +0.155 HD
BRANCH  14  15
ATOM     15  C   UNL     1       5.283  49.427  -0.096  0.00  0.00    +0.037 A 
ATOM     16  C   UNL     1       6.095  49.885   1.034  0.00  0.00    +0.013 A 
ATOM     17  C   UNL     1       7.497  50.163   0.852  0.00  0.00    +0.005 A 
ATOM     18  C   UNL     1       8.098  49.982  -0.467  0.00  0.00    -0.033 A 
ATOM     28  C   UNL     1       7.271  49.522  -1.570  0.00  0.00    +0.005 A 
ATOM     29  C   UNL     1       5.896  49.249  -1.396  0.00  0.00    +0.013 A 
BRANCH  18  19
ATOM     19  C   UNL     1       9.582  50.275  -0.758  0.00  0.00    +0.119 C 
BRANCH  19  20
ATOM     20  N   UNL     1      10.200  51.437  -0.052  0.00  0.00    -0.302 NA
ATOM     21  C   UNL     1      10.285  52.676  -0.949  0.00  0.00    +0.066 C 
ATOM     22  C   UNL     1      10.913  53.888  -0.188  0.00  0.00    -0.064 C 
ATOM     23  N   UNL     1      12.299  53.498   0.329  0.00  0.00    +0.379 N 
ATOM     24  C   UNL     1      12.917  54.654   0.995  0.00  0.00    -0.096 C 
ATOM     25  H   UNL     1      12.929  53.240  -0.553  0.00  0.00    -0.082 HD
ATOM     26  C   UNL     1      12.225  52.266   1.220  0.00  0.00    -0.064 C 
ATOM     27  C   UNL     1      11.572  51.076   0.463  0.00  0.00    +0.066 C 
ENDBRANCH  19  20
ENDBRANCH  18  19
ENDBRANCH  14  15
ENDBRANCH  12  13
TORSDOF 6
ENDMDL
MODEL 3
REMARK VINA RESULT:      -9.9     24.055     29.029
REMARK  Name = C:\Users\Docking\Desktop\test protocol\1iep_ligandH.pdb
REMARK  8 active torsions:
REMARK  status: ('A' for Active; 'I' for Inactive)
REMARK    1  A    between atoms: _5  and  _11
REMARK    2  A    between atoms: _19  and  _21
REMARK    3  A    between atoms: _22  and  _66
REMARK    4  A    between atoms: _27  and  _30
REMARK    5  A    between atoms: _32  and  _33
REMARK    6  A    between atoms: _38  and  _43
REMARK    7  A    between atoms: _43  and  _46
REMARK    8  A    between atoms: _53  and  _55
REMARK                            x       y       z     vdW  Elec       q    Type
REMARK                         _______ _______ _______ _____ _____    ______ ____
ROOT
ATOM     10  C   UNL     1       8.831  46.633  28.019  0.00  0.00    +0.038 A 
ATOM     11  C   UNL     1       9.963  47.130  27.324  0.00  0.00    +0.047 A 
ATOM     12  C   UNL     1      11.200  46.367  27.256  0.00  0.00    +0.035 A 
ATOM     32  C   UNL     1      11.248  45.099  27.906  0.00  0.00    +0.024 A 
ATOM     33  C   UNL     1      10.107  44.579  28.617  0.00  0.00    +0.007 A 
ATOM     34  C   UNL     1       8.885  45.328  28.690  0.00  0.00    -0.029 A 
ATOM     35  C   UNL     1       7.696  44.724  29.472  0.00  0.00    +0.045 C 
ENDROOT
BRANCH  10   9
ATOM      4  C   UNL     1       6.001  49.934  30.052  0.00  0.00    +0.077 A 
ATOM      5  C   UNL     1       6.901  50.111  31.155  0.00  0.00    +0.048 A 
ATOM      6  C   UNL     1       8.077  49.328  31.166  0.00  0.00    +0.116 A 
ATOM      7  N   UNL     1       8.325  48.438  30.143  0.00  0.00    -0.223 NA
ATOM      8  C   UNL     1       7.436  48.291  29.095  0.00  0.00    +0.220 A 
ATOM      9  N   UNL     1       7.669  47.407  28.052  0.00  0.00    -0.283 N 
ATOM     36  H   UNL     1       6.985  47.322  27.300  0.00  0.00    +0.155 HD
ATOM     37  N   UNL     1       6.305  49.026  29.062  0.00  0.00    -0.214 NA
BRANCH   4   3
ATOM      1  C   UNL     1       2.681  51.850  30.827  0.00  0.00    +0.020 A 
ATOM      2  C   UNL     1       3.912  51.121  31.031  0.00  0.00    +0.013 A 
ATOM      3  C   UNL     1       4.719  50.691  29.897  0.00  0.00    +0.019 A 
ATOM     38  C   UNL     1       4.250  51.017  28.559  0.00  0.00    +0.120 A 
ATOM     39  N   UNL     1       3.060  51.718  28.393  0.00  0.00    -0.263 NA
ATOM     40  C   UNL     1       2.274  52.137  29.477  0.00  0.00    +0.111 A 
ENDBRANCH   4   3
ENDBRANCH  10   9
BRANCH  12  13
ATOM     13  N   UNL     1      12.384  46.824  26.572  0.00  0.00    -0.281 N 
ATOM     14  C   UNL     1      13.696  46.772  27.014  0.00  0.00    +0.248 C 
ATOM     30  O   UNL     1      14.029  46.517  28.161  0.00  0.00    -0.270 OA
ATOM     31  H   UNL     1      12.237  47.237  25.651  0.00  0.00    +0.155 HD
BRANCH  14  15
ATOM     15  C   UNL     1      14.796  47.060  26.043  0.00  0.00    +0.037 A 
ATOM     16  C   UNL     1      15.095  46.143  24.940  0.00  0.00    +0.013 A 
ATOM     17  C   UNL     1      16.173  46.435  24.029  0.00  0.00    +0.005 A 
ATOM     18  C   UNL     1      16.959  47.652  24.216  0.00  0.00    -0.033 A 
ATOM     28  C   UNL     1      16.637  48.547  25.316  0.00  0.00    +0.005 A 
ATOM     29  C   UNL     1      15.582  48.263  26.212  0.00  0.00    +0.013 A 
BRANCH  18  19
ATOM     19  C   UNL     1      18.140  48.034  23.305  0.00  0.00    +0.119 C 
BRANCH  19  20
ATOM     20  N   UNL     1      17.891  49.072  22.261  0.00  0.00    -0.302 NA
ATOM     21  C   UNL     1      18.398  48.636  20.884  0.00  0.00    +0.066 C 
ATOM     22  C   UNL     1      18.109  49.725  19.800  0.00  0.00    -0.064 C 
ATOM     23  N   UNL     1      18.756  51.045  20.221  0.00  0.00    +0.379 N 
ATOM     24  C   UNL     1      18.536  52.055  19.176  0.00  0.00    -0.096 C 
ATOM     25  H   UNL     1      19.855  50.872  20.299  0.00  0.00    -0.082 HD
ATOM     26  C   UNL     1      18.261  51.485  21.591  0.00  0.00    -0.064 C 
ATOM     27  C   UNL     1      18.526  50.383  22.655  0.00  0.00    +0.066 C 
ENDBRANCH  19  20
ENDBRANCH  18  19
ENDBRANCH  14  15
ENDBRANCH  12  13
TORSDOF 6
ENDMDL
MODEL 4
REMARK VINA RESULT:      -9.4     23.906     28.587
REMARK  Name = C:\Users\Docking\Desktop\test protocol\1iep_ligandH.pdb
REMARK  8 active torsions:
REMARK  status: ('A' for Active; 'I' for Inactive)
REMARK    1  A    between atoms: _5  and  _11
REMARK    2  A    between atoms: _19  and  _21
REMARK    3  A    between atoms: _22  and  _66
REMARK    4  A    between atoms: _27  and  _30
REMARK    5  A    between atoms: _32  and  _33
REMARK    6  A    between atoms: _38  and  _43
REMARK    7  A    between atoms: _43  and  _46
REMARK    8  A    between atoms: _53  and  _55
REMARK                            x       y       z     vdW  Elec       q    Type
REMARK                         _______ _______ _______ _____ _____    ______ ____
ROOT
ATOM     10  C   UNL     1       9.461  46.650  28.414  0.00  0.00    +0.038 A 
ATOM     11  C   UNL     1      10.556  47.122  27.647  0.00  0.00    +0.047 A 
ATOM     12  C   UNL     1      11.584  46.213  27.164  0.00  0.00    +0.035 A 
ATOM     32  C   UNL     1      11.464  44.828  27.481  0.00  0.00    +0.024 A 
ATOM     33  C   UNL     1      10.358  44.332  28.261  0.00  0.00    +0.007 A 
ATOM     34  C   UNL     1       9.342  45.224  28.741  0.00  0.00    -0.029 A 
ATOM     35  C   UNL     1       8.182  44.637  29.579  0.00  0.00    +0.045 C 
ENDROOT
BRANCH  10   9
ATOM      4  C   UNL     1       5.344  49.057  27.864  0.00  0.00    +0.077 A 
ATOM      5  C   UNL     1       5.096  48.456  26.586  0.00  0.00    +0.048 A 
ATOM      6  C   UNL     1       6.055  47.538  26.102  0.00  0.00    +0.116 A 
ATOM      7  N   UNL     1       7.176  47.250  26.850  0.00  0.00    -0.223 NA
ATOM      8  C   UNL     1       7.386  47.848  28.079  0.00  0.00    +0.220 A 
ATOM      9  N   UNL     1       8.502  47.567  28.852  0.00  0.00    -0.283 N 
ATOM     36  H   UNL     1       8.625  48.035  29.749  0.00  0.00    +0.155 HD
ATOM     37  N   UNL     1       6.486  48.729  28.562  0.00  0.00    -0.214 NA
BRANCH   4   3
ATOM      1  C   UNL     1       2.141  51.045  28.907  0.00  0.00    +0.020 A 
ATOM      2  C   UNL     1       2.988  50.072  28.256  0.00  0.00    +0.013 A 
ATOM      3  C   UNL     1       4.422  50.043  28.511  0.00  0.00    +0.019 A 
ATOM     38  C   UNL     1       4.973  51.019  29.439  0.00  0.00    +0.120 A 
ATOM     39  N   UNL     1       4.134  51.945  30.051  0.00  0.00    -0.263 NA
ATOM     40  C   UNL     1       2.752  51.984  29.811  0.00  0.00    +0.111 A 
ENDBRANCH   4   3
ENDBRANCH  10   9
BRANCH  12  13
ATOM     13  N   UNL     1      12.723  46.636  26.388  0.00  0.00    -0.281 N 
ATOM     14  C   UNL     1      14.015  46.872  26.829  0.00  0.00    +0.248 C 
ATOM     30  O   UNL     1      14.337  46.963  28.005  0.00  0.00    -0.270 OA
ATOM     31  H   UNL     1      12.557  46.777  25.391  0.00  0.00    +0.155 HD
BRANCH  14  15
ATOM     15  C   UNL     1      15.102  47.048  25.820  0.00  0.00    +0.037 A 
ATOM     16  C   UNL     1      15.954  48.240  25.819  0.00  0.00    +0.013 A 
ATOM     17  C   UNL     1      16.985  48.393  24.823  0.00  0.00    +0.005 A 
ATOM     18  C   UNL     1      17.171  47.348  23.819  0.00  0.00    -0.033 A 
ATOM     28  C   UNL     1      16.315  46.173  23.846  0.00  0.00    +0.005 A 
ATOM     29  C   UNL     1      15.303  46.021  24.820  0.00  0.00    +0.013 A 
BRANCH  18  19
ATOM     19  C   UNL     1      18.232  47.437  22.707  0.00  0.00    +0.119 C 
BRANCH  19  20
ATOM     20  N   UNL     1      18.706  48.799  22.321  0.00  0.00    -0.302 NA
ATOM     21  C   UNL     1      17.771  49.469  21.311  0.00  0.00    +0.066 C 
ATOM     22  C   UNL     1      18.270  50.902  20.936  0.00  0.00    -0.064 C 
ATOM     23  N   UNL     1      19.693  50.815  20.381  0.00  0.00    +0.379 N 
ATOM     24  C   UNL     1      20.144  52.153  19.974  0.00  0.00    -0.096 C 
ATOM     25  H   UNL     1      19.661  50.176  19.468  0.00  0.00    -0.082 HD
ATOM     26  C   UNL     1      20.629  50.147  21.379  0.00  0.00    -0.064 C 
ATOM     27  C   UNL     1      20.108  48.735  21.767  0.00  0.00    +0.066 C 
ENDBRANCH  19  20
ENDBRANCH  18  19
ENDBRANCH  14  15
ENDBRANCH  12  13
TORSDOF 6
ENDMDL
MODEL 5
REMARK VINA RESULT:      -9.4      2.495     13.343
REMARK  Name = C:\Users\Docking\Desktop\test protocol\1iep_ligandH.pdb
REMARK  8 active torsions:
REMARK  status: ('A' for Active; 'I' for Inactive)
REMARK    1  A    between atoms: _5  and  _11
REMARK    2  A    between atoms: _19  and  _21
REMARK    3  A    between atoms: _22  and  _66
REMARK    4  A    between atoms: _27  and  _30
REMARK    5  A    between atoms: _32  and  _33
REMARK    6  A    between atoms: _38  and  _43
REMARK    7  A    between atoms: _43  and  _46
REMARK    8  A    between atoms: _53  and  _55
REMARK                            x       y       z     vdW  Elec       q    Type
REMARK                         _______ _______ _______ _____ _____    ______ ____
ROOT
ATOM     10  C   UNL     1      -0.540  49.982   2.304  0.00  0.00    +0.038 A 
ATOM     11  C   UNL     1       0.876  49.928   2.239  0.00  0.00    +0.047 A 
ATOM     12  C   UNL     1       1.577  50.055   0.970  0.00  0.00    +0.035 A 
ATOM     32  C   UNL     1       0.803  50.239  -0.213  0.00  0.00    +0.024 A 
ATOM     33  C   UNL     1      -0.637  50.296  -0.165  0.00  0.00    +0.007 A 
ATOM     34  C   UNL     1      -1.333  50.168   1.083  0.00  0.00    -0.029 A 
ATOM     35  C   UNL     1      -2.878  50.229   1.073  0.00  0.00    +0.045 C 
ENDROOT
BRANCH  10   9
ATOM      4  C   UNL     1      -2.061  51.792   6.481  0.00  0.00    +0.077 A 
ATOM      5  C   UNL     1      -1.552  53.097   6.168  0.00  0.00    +0.048 A 
ATOM      6  C   UNL     1      -0.899  53.258   4.925  0.00  0.00    +0.116 A 
ATOM      7  N   UNL     1      -0.771  52.188   4.067  0.00  0.00    -0.223 NA
ATOM      8  C   UNL     1      -1.271  50.943   4.400  0.00  0.00    +0.220 A 
ATOM      9  N   UNL     1      -1.160  49.854   3.548  0.00  0.00    -0.283 N 
ATOM     36  H   UNL     1      -1.536  48.950   3.834  0.00  0.00    +0.155 HD
ATOM     37  N   UNL     1      -1.897  50.762   5.581  0.00  0.00    -0.214 NA
BRANCH   4   3
ATOM      1  C   UNL     1      -4.362  50.066   9.131  0.00  0.00    +0.020 A 
ATOM      2  C   UNL     1      -3.695  50.339   7.878  0.00  0.00    +0.013 A 
ATOM      3  C   UNL     1      -2.777  51.464   7.753  0.00  0.00    +0.019 A 
ATOM     38  C   UNL     1      -2.553  52.299   8.924  0.00  0.00    +0.120 A 
ATOM     39  N   UNL     1      -3.210  52.012  10.116  0.00  0.00    -0.263 NA
ATOM     40  C   UNL     1      -4.097  50.933  10.248  0.00  0.00    +0.111 A 
ENDBRANCH   4   3
ENDBRANCH  10   9
BRANCH  12  13
ATOM     13  N   UNL     1       3.012  50.000   0.841  0.00  0.00    -0.281 N 
ATOM     14  C   UNL     1       3.765  49.122   0.079  0.00  0.00    +0.248 C 
ATOM     30  O   UNL     1       3.326  48.109  -0.444  0.00  0.00    -0.270 OA
ATOM     31  H   UNL     1       3.536  50.692   1.377  0.00  0.00    +0.155 HD
BRANCH  14  15
ATOM     15  C   UNL     1       5.220  49.403  -0.118  0.00  0.00    +0.037 A 
ATOM     16  C   UNL     1       6.082  49.774   1.007  0.00  0.00    +0.013 A 
ATOM     17  C   UNL     1       7.478  50.056   0.787  0.00  0.00    +0.005 A 
ATOM     18  C   UNL     1       8.021  49.967  -0.567  0.00  0.00    -0.033 A 
ATOM     28  C   UNL     1       7.145  49.592  -1.664  0.00  0.00    +0.005 A 
ATOM     29  C   UNL     1       5.776  49.316  -1.452  0.00  0.00    +0.013 A 
BRANCH  18  19
ATOM     19  C   UNL     1       9.494  50.271  -0.898  0.00  0.00    +0.119 C 
BRANCH  19  20
ATOM     20  N   UNL     1      10.366  49.115  -1.265  0.00  0.00    -0.302 NA
ATOM     21  C   UNL     1       9.816  47.790  -0.730  0.00  0.00    +0.066 C 
ATOM     22  C   UNL     1      10.728  46.588  -1.142  0.00  0.00    -0.064 C 
ATOM     23  N   UNL     1      12.149  46.831  -0.630  0.00  0.00    +0.379 N 
ATOM     24  C   UNL     1      12.995  45.677  -0.965  0.00  0.00    -0.096 C 
ATOM     25  H   UNL     1      12.100  46.904   0.481  0.00  0.00    -0.082 HD
ATOM     26  C   UNL     1      12.702  48.149  -1.154  0.00  0.00    -0.064 C 
ATOM     27  C   UNL     1      11.773  49.332  -0.765  0.00  0.00    +0.066 C 
ENDBRANCH  19  20
ENDBRANCH  18  19
ENDBRANCH  14  15
ENDBRANCH  12  13
TORSDOF 6
ENDMDL
