MODEL 1
REMARK VINA RESULT:      -8.9      0.000      0.000
REMARK  Name = C:\Users\Docking\Desktop\test protocol\1iep_ligandH.pdb
REMARK  8 active torsions:
REMARK  status: ('A' for Active; 'I' for Inactive)
REMARK    1  A    between atoms: _5  and  _11
REMARK    2  A    between atoms: _19  and  _21
REMARK    3  A    between atoms: _22  and  _66
REMARK    4  A    between atoms: _27  and  _30
REMARK    5  A    between atoms: _32  and  _33
REMARK    6  A    between atoms: _38  and  _43
REMARK    7  A    between atoms: _43  and  _46
REMARK    8  A    between atoms: _53  and  _55
REMARK                            x       y       z     vdW  Elec       q    Type
REMARK                         _______ _______ _______ _____ _____    ______ ____
ROOT
ATOM     10  C   UNL     1      16.719   4.156  -0.465  0.00  0.00    +0.038 A 
ATOM     11  C   UNL     1      18.068   4.407  -0.105  0.00  0.00    +0.047 A 
ATOM     12  C   UNL     1      18.895   5.321  -0.878  0.00  0.00    +0.035 A 
ATOM     32  C   UNL     1      18.315   5.963  -2.011  0.00  0.00    +0.024 A 
ATOM     33  C   UNL     1      16.946   5.718  -2.391  0.00  0.00    +0.007 A 
ATOM     34  C   UNL     1      16.126   4.816  -1.634  0.00  0.00    -0.029 A 
ATOM     35  C   UNL     1      14.667   4.586  -2.092  0.00  0.00    +0.045 C 
ENDROOT
BRANCH  10   9
ATOM      4  C   UNL     1      14.981  -0.217   0.481  0.00  0.00    +0.077 A 
ATOM      5  C   UNL     1      15.594  -0.778  -0.688  0.00  0.00    +0.048 A 
ATOM      6  C   UNL     1      16.342   0.094  -1.511  0.00  0.00    +0.116 A 
ATOM      7  N   UNL     1      16.462   1.426  -1.178  0.00  0.00    -0.223 NA
ATOM      8  C   UNL     1      15.857   1.935  -0.044  0.00  0.00    +0.220 A 
ATOM      9  N   UNL     1      15.970   3.270   0.313  0.00  0.00    -0.283 N 
ATOM     36  H   UNL     1      15.503   3.608   1.154  0.00  0.00    +0.155 HD
ATOM     37  N   UNL     1      15.135   1.123   0.757  0.00  0.00    -0.214 NA
BRANCH   4   3
ATOM      1  C   UNL     1      13.403  -3.185   2.482  0.00  0.00    +0.020 A 
ATOM      2  C   UNL     1      14.214  -2.466   1.527  0.00  0.00    +0.013 A 
ATOM      3  C   UNL     1      14.162  -1.011   1.450  0.00  0.00    +0.019 A 
ATOM     38  C   UNL     1      13.271  -0.309   2.362  0.00  0.00    +0.120 A 
ATOM     39  N   UNL     1      12.500  -1.028   3.270  0.00  0.00    -0.263 NA
ATOM     40  C   UNL     1      12.541  -2.428   3.352  0.00  0.00    +0.111 A 
ENDBRANCH   4   3
ENDBRANCH  10   9
BRANCH  12  13
ATOM     13  N   UNL     1      20.272   5.609  -0.566  0.00  0.00    -0.281 N 
ATOM     14  C   UNL     1      20.765   6.427   0.439  0.00  0.00    +0.248 C 
ATOM     30  O   UNL     1      20.086   7.206   1.090  0.00  0.00    -0.270 OA
ATOM     31  H   UNL     1      20.969   5.156  -1.157  0.00  0.00    +0.155 HD
BRANCH  14  15
ATOM     15  C   UNL     1      22.225   6.382   0.755  0.00  0.00    +0.037 A 
ATOM     16  C   UNL     1      22.735   5.590   1.878  0.00  0.00    +0.013 A 
ATOM     17  C   UNL     1      24.146   5.578   2.172  0.00  0.00    +0.005 A 
ATOM     18  C   UNL     1      25.058   6.359   1.340  0.00  0.00    -0.033 A 
ATOM     28  C   UNL     1      24.525   7.131   0.229  0.00  0.00    +0.005 A 
ATOM     29  C   UNL     1      23.143   7.147  -0.061  0.00  0.00    +0.013 A 
BRANCH  18  19
ATOM     19  C   UNL     1      26.576   6.422   1.593  0.00  0.00    +0.119 C 
BRANCH  19  20
ATOM     20  N   UNL     1      27.300   7.635   1.110  0.00  0.00    -0.302 NA
ATOM     21  C   UNL     1      28.797   7.574   1.426  0.00  0.00    +0.066 C 
ATOM     22  C   UNL     1      29.544   8.840   0.894  0.00  0.00    -0.064 C 
ATOM     23  N   UNL     1      28.913  10.094   1.502  0.00  0.00    +0.379 N 
ATOM     24  C   UNL     1      29.649  11.283   1.049  0.00  0.00    -0.096 C 
ATOM     25  H   UNL     1      29.027  10.026   2.609  0.00  0.00    -0.082 HD
ATOM     26  C   UNL     1      27.424  10.161   1.196  0.00  0.00    -0.064 C 
ATOM     27  C   UNL     1      26.696   8.885   1.703  0.00  0.00    +0.066 C 
ENDBRANCH  19  20
ENDBRANCH  18  19
ENDBRANCH  14  15
ENDBRANCH  12  13
TORSDOF 6
ENDMDL
MODEL 2
REMARK VINA RESULT:      -8.8      2.060     12.592
REMARK  Name = C:\Users\Docking\Desktop\test protocol\1iep_ligandH.pdb
REMARK  8 active torsions:
REMARK  status: ('A' for Active; 'I' for Inactive)
REMARK    1  A    between atoms: _5  and  _11
REMARK    2  A    between atoms: _19  and  _21
REMARK    3  A    between atoms: _22  and  _66
REMARK    4  A    between atoms: _27  and  _30
REMARK    5  A    between atoms: _32  and  _33
REMARK    6  A    between atoms: _38  and  _43
REMARK    7  A    between atoms: _43  and  _46
REMARK    8  A    between atoms: _53  and  _55
REMARK                            x       y       z     vdW  Elec       q    Type
REMARK                         _______ _______ _______ _____ _____    ______ ____
ROOT
ATOM     10  C   UNL     1      23.137   7.809  -0.644  0.00  0.00    +0.038 A 
ATOM     11  C   UNL     1      22.259   6.732  -0.362  0.00  0.00    +0.047 A 
ATOM     12  C   UNL     1      20.841   6.815  -0.679  0.00  0.00    +0.035 A 
ATOM     32  C   UNL     1      20.353   8.009  -1.285  0.00  0.00    +0.024 A 
ATOM     33  C   UNL     1      21.232   9.114  -1.577  0.00  0.00    +0.007 A 
ATOM     34  C   UNL     1      22.631   9.039  -1.264  0.00  0.00    -0.029 A 
ATOM     35  C   UNL     1      23.525  10.257  -1.593  0.00  0.00    +0.045 C 
ENDROOT
BRANCH  10   9
ATOM      4  C   UNL     1      26.689   5.995   2.027  0.00  0.00    +0.077 A 
ATOM      5  C   UNL     1      25.773   5.273   2.861  0.00  0.00    +0.048 A 
ATOM      6  C   UNL     1      24.395   5.401   2.574  0.00  0.00    +0.116 A 
ATOM      7  N   UNL     1      23.977   6.195   1.528  0.00  0.00    -0.223 NA
ATOM      8  C   UNL     1      24.887   6.879   0.744  0.00  0.00    +0.220 A 
ATOM      9  N   UNL     1      24.489   7.676  -0.318  0.00  0.00    -0.283 N 
ATOM     36  H   UNL     1      25.191   8.170  -0.868  0.00  0.00    +0.155 HD
ATOM     37  N   UNL     1      26.208   6.774   0.998  0.00  0.00    -0.214 NA
BRANCH   4   3
ATOM      1  C   UNL     1      30.310   4.857   2.972  0.00  0.00    +0.020 A 
ATOM      2  C   UNL     1      28.873   4.842   2.827  0.00  0.00    +0.013 A 
ATOM      3  C   UNL     1      28.176   5.959   2.202  0.00  0.00    +0.019 A 
ATOM     38  C   UNL     1      28.969   7.083   1.728  0.00  0.00    +0.120 A 
ATOM     39  N   UNL     1      30.352   7.070   1.882  0.00  0.00    -0.263 NA
ATOM     40  C   UNL     1      31.033   6.002   2.484  0.00  0.00    +0.111 A 
ENDBRANCH   4   3
ENDBRANCH  10   9
BRANCH  12  13
ATOM     13  N   UNL     1      19.900   5.757  -0.410  0.00  0.00    -0.281 N 
ATOM     14  C   UNL     1      18.951   5.697   0.598  0.00  0.00    +0.248 C 
ATOM     30  O   UNL     1      18.912   6.455   1.556  0.00  0.00    -0.270 OA
ATOM     31  H   UNL     1      19.937   4.954  -1.038  0.00  0.00    +0.155 HD
BRANCH  14  15
ATOM     15  C   UNL     1      17.903   4.633   0.542  0.00  0.00    +0.037 A 
ATOM     16  C   UNL     1      18.088   3.427  -0.270  0.00  0.00    +0.013 A 
ATOM     17  C   UNL     1      17.054   2.424  -0.321  0.00  0.00    +0.005 A 
ATOM     18  C   UNL     1      15.826   2.622   0.445  0.00  0.00    -0.033 A 
ATOM     28  C   UNL     1      15.671   3.825   1.246  0.00  0.00    +0.005 A 
ATOM     29  C   UNL     1      16.682   4.811   1.297  0.00  0.00    +0.013 A 
BRANCH  18  19
ATOM     19  C   UNL     1      14.661   1.615   0.434  0.00  0.00    +0.119 C 
BRANCH  19  20
ATOM     20  N   UNL     1      14.921   0.262   1.010  0.00  0.00    -0.302 NA
ATOM     21  C   UNL     1      14.232  -0.846   0.209  0.00  0.00    +0.066 C 
ATOM     22  C   UNL     1      14.533  -2.257   0.813  0.00  0.00    -0.064 C 
ATOM     23  N   UNL     1      14.088  -2.288   2.276  0.00  0.00    +0.379 N 
ATOM     24  C   UNL     1      14.317  -3.630   2.830  0.00  0.00    -0.096 C 
ATOM     25  H   UNL     1      12.990  -2.095   2.299  0.00  0.00    -0.082 HD
ATOM     26  C   UNL     1      14.767  -1.187   3.079  0.00  0.00    -0.064 C 
ATOM     27  C   UNL     1      14.485   0.207   2.454  0.00  0.00    +0.066 C 
ENDBRANCH  19  20
ENDBRANCH  18  19
ENDBRANCH  14  15
ENDBRANCH  12  13
TORSDOF 6
ENDMDL
MODEL 3
REMARK VINA RESULT:      -8.7      1.037      1.558
REMARK  Name = C:\Users\Docking\Desktop\test protocol\1iep_ligandH.pdb
REMARK  8 active torsions:
REMARK  status: ('A' for Active; 'I' for Inactive)
REMARK    1  A    between atoms: _5  and  _11
REMARK    2  A    between atoms: _19  and  _21
REMARK    3  A    between atoms: _22  and  _66
REMARK    4  A    between atoms: _27  and  _30
REMARK    5  A    between atoms: _32  and  _33
REMARK    6  A    between atoms: _38  and  _43
REMARK    7  A    between atoms: _43  and  _46
REMARK    8  A    between atoms: _53  and  _55
REMARK                            x       y       z     vdW  Elec       q    Type
REMARK                         _______ _______ _______ _____ _____    ______ ____
ROOT
ATOM     10  C   UNL     1      17.656   4.130  -1.530  0.00  0.00    +0.038 A 
ATOM     11  C   UNL     1      18.951   4.394  -1.014  0.00  0.00    +0.047 A 
ATOM     12  C   UNL     1      19.624   5.656  -1.279  0.00  0.00    +0.035 A 
ATOM     32  C   UNL     1      18.948   6.629  -2.072  0.00  0.00    +0.024 A 
ATOM     33  C   UNL     1      17.632   6.377  -2.606  0.00  0.00    +0.007 A 
ATOM     34  C   UNL     1      16.965   5.132  -2.350  0.00  0.00    -0.029 A 
ATOM     35  C   UNL     1      15.558   4.914  -2.953  0.00  0.00    +0.045 C 
ENDROOT
BRANCH  10   9
ATOM      4  C   UNL     1      14.846   1.315   1.155  0.00  0.00    +0.077 A 
ATOM      5  C   UNL     1      14.569   2.374   2.082  0.00  0.00    +0.048 A 
ATOM      6  C   UNL     1      15.176   3.626   1.836  0.00  0.00    +0.116 A 
ATOM      7  N   UNL     1      15.995   3.795   0.741  0.00  0.00    -0.223 NA
ATOM      8  C   UNL     1      16.242   2.752  -0.133  0.00  0.00    +0.220 A 
ATOM      9  N   UNL     1      17.057   2.901  -1.245  0.00  0.00    -0.283 N 
ATOM     36  H   UNL     1      17.220   2.106  -1.861  0.00  0.00    +0.155 HD
ATOM     37  N   UNL     1      15.676   1.546   0.081  0.00  0.00    -0.214 NA
BRANCH   4   3
ATOM      1  C   UNL     1      14.275  -2.536   0.771  0.00  0.00    +0.020 A 
ATOM      2  C   UNL     1      14.863  -1.225   0.620  0.00  0.00    +0.013 A 
ATOM      3  C   UNL     1      14.277  -0.065   1.278  0.00  0.00    +0.019 A 
ATOM     38  C   UNL     1      13.085  -0.266   2.089  0.00  0.00    +0.120 A 
ATOM     39  N   UNL     1      12.540  -1.540   2.215  0.00  0.00    -0.263 NA
ATOM     40  C   UNL     1      13.095  -2.664   1.585  0.00  0.00    +0.111 A 
ENDBRANCH   4   3
ENDBRANCH  10   9
BRANCH  12  13
ATOM     13  N   UNL     1      20.941   5.978  -0.788  0.00  0.00    -0.281 N 
ATOM     14  C   UNL     1      21.316   6.272   0.512  0.00  0.00    +0.248 C 
ATOM     30  O   UNL     1      20.534   6.514   1.420  0.00  0.00    -0.270 OA
ATOM     31  H   UNL     1      21.687   5.989  -1.484  0.00  0.00    +0.155 HD
BRANCH  14  15
ATOM     15  C   UNL     1      22.772   6.318   0.851  0.00  0.00    +0.037 A 
ATOM     16  C   UNL     1      23.355   5.392   1.824  0.00  0.00    +0.013 A 
ATOM     17  C   UNL     1      24.759   5.469   2.144  0.00  0.00    +0.005 A 
ATOM     18  C   UNL     1      25.588   6.477   1.489  0.00  0.00    -0.033 A 
ATOM     28  C   UNL     1      24.985   7.380   0.524  0.00  0.00    +0.005 A 
ATOM     29  C   UNL     1      23.609   7.308   0.208  0.00  0.00    +0.013 A 
BRANCH  18  19
ATOM     19  C   UNL     1      27.090   6.646   1.786  0.00  0.00    +0.119 C 
BRANCH  19  20
ATOM     20  N   UNL     1      27.772   7.842   1.207  0.00  0.00    -0.302 NA
ATOM     21  C   UNL     1      29.292   7.776   1.379  0.00  0.00    +0.066 C 
ATOM     22  C   UNL     1      29.991   9.024   0.748  0.00  0.00    -0.064 C 
ATOM     23  N   UNL     1      29.427  10.297   1.384  0.00  0.00    +0.379 N 
ATOM     24  C   UNL     1      30.123  11.469   0.834  0.00  0.00    -0.096 C 
ATOM     25  H   UNL     1      29.647  10.254   2.476  0.00  0.00    -0.082 HD
ATOM     26  C   UNL     1      27.916  10.368   1.219  0.00  0.00    -0.064 C 
ATOM     27  C   UNL     1      27.234   9.109   1.824  0.00  0.00    +0.066 C 
ENDBRANCH  19  20
ENDBRANCH  18  19
ENDBRANCH  14  15
ENDBRANCH  12  13
TORSDOF 6
ENDMDL
MODEL 4
REMARK VINA RESULT:      -8.4      2.488     12.323
REMARK  Name = C:\Users\Docking\Desktop\test protocol\1iep_ligandH.pdb
REMARK  8 active torsions:
REMARK  status: ('A' for Active; 'I' for Inactive)
REMARK    1  A    between atoms: _5  and  _11
REMARK    2  A    between atoms: _19  and  _21
REMARK    3  A    between atoms: _22  and  _66
REMARK    4  A    between atoms: _27  and  _30
REMARK    5  A    between atoms: _32  and  _33
REMARK    6  A    between atoms: _38  and  _43
REMARK    7  A    between atoms: _43  and  _46
REMARK    8  A    between atoms: _53  and  _55
REMARK                            x       y       z     vdW  Elec       q    Type
REMARK                         _______ _______ _______ _____ _____    ______ ____
ROOT
ATOM     10  C   UNL     1      18.214   5.800  -2.093  0.00  0.00    +0.038 A 
ATOM     11  C   UNL     1      17.564   4.608  -1.683  0.00  0.00    +0.047 A 
ATOM     12  C   UNL     1      16.160   4.375  -1.984  0.00  0.00    +0.035 A 
ATOM     32  C   UNL     1      15.449   5.376  -2.707  0.00  0.00    +0.024 A 
ATOM     33  C   UNL     1      16.094   6.594  -3.131  0.00  0.00    +0.007 A 
ATOM     34  C   UNL     1      17.478   6.831  -2.835  0.00  0.00    -0.029 A 
ATOM     35  C   UNL     1      18.116   8.157  -3.308  0.00  0.00    +0.045 C 
ENDROOT
BRANCH  10   9
ATOM      4  C   UNL     1      21.774   6.447   1.061  0.00  0.00    +0.077 A 
ATOM      5  C   UNL     1      20.865   6.472   2.171  0.00  0.00    +0.048 A 
ATOM      6  C   UNL     1      19.489   6.322   1.886  0.00  0.00    +0.116 A 
ATOM      7  N   UNL     1      19.065   6.159   0.586  0.00  0.00    -0.223 NA
ATOM      8  C   UNL     1      19.967   6.141  -0.462  0.00  0.00    +0.220 A 
ATOM      9  N   UNL     1      19.563   5.971  -1.777  0.00  0.00    -0.283 N 
ATOM     36  H   UNL     1      20.260   5.972  -2.522  0.00  0.00    +0.155 HD
ATOM     37  N   UNL     1      21.286   6.284  -0.217  0.00  0.00    -0.214 NA
BRANCH   4   3
ATOM      1  C   UNL     1      25.530   5.739   1.889  0.00  0.00    +0.020 A 
ATOM      2  C   UNL     1      24.102   5.552   1.779  0.00  0.00    +0.013 A 
ATOM      3  C   UNL     1      23.257   6.589   1.200  0.00  0.00    +0.019 A 
ATOM     38  C   UNL     1      23.895   7.813   0.738  0.00  0.00    +0.120 A 
ATOM     39  N   UNL     1      25.272   7.966   0.859  0.00  0.00    -0.263 NA
ATOM     40  C   UNL     1      26.095   6.976   1.416  0.00  0.00    +0.111 A 
ENDBRANCH   4   3
ENDBRANCH  10   9
BRANCH  12  13
ATOM     13  N   UNL     1      15.444   3.188  -1.586  0.00  0.00    -0.281 N 
ATOM     14  C   UNL     1      15.470   1.938  -2.183  0.00  0.00    +0.248 C 
ATOM     30  O   UNL     1      15.951   1.707  -3.282  0.00  0.00    -0.270 OA
ATOM     31  H   UNL     1      14.846   3.280  -0.765  0.00  0.00    +0.155 HD
BRANCH  14  15
ATOM     15  C   UNL     1      14.861   0.780  -1.460  0.00  0.00    +0.037 A 
ATOM     16  C   UNL     1      13.408   0.617  -1.374  0.00  0.00    +0.013 A 
ATOM     17  C   UNL     1      12.846  -0.500  -0.656  0.00  0.00    +0.005 A 
ATOM     18  C   UNL     1      13.740  -1.464  -0.019  0.00  0.00    -0.033 A 
ATOM     28  C   UNL     1      15.178  -1.281  -0.125  0.00  0.00    +0.005 A 
ATOM     29  C   UNL     1      15.732  -0.187  -0.827  0.00  0.00    +0.013 A 
BRANCH  18  19
ATOM     19  C   UNL     1      13.229  -2.674   0.785  0.00  0.00    +0.119 C 
BRANCH  19  20
ATOM     20  N   UNL     1      14.165  -3.279   1.779  0.00  0.00    -0.302 NA
ATOM     21  C   UNL     1      14.221  -4.805   1.661  0.00  0.00    +0.066 C 
ATOM     22  C   UNL     1      15.221  -5.419   2.692  0.00  0.00    -0.064 C 
ATOM     23  N   UNL     1      14.814  -5.001   4.106  0.00  0.00    +0.379 N 
ATOM     24  C   UNL     1      15.718  -5.624   5.083  0.00  0.00    -0.096 C 
ATOM     25  H   UNL     1      13.788  -5.397   4.293  0.00  0.00    -0.082 HD
ATOM     26  C   UNL     1      14.753  -3.485   4.232  0.00  0.00    -0.064 C 
ATOM     27  C   UNL     1      13.778  -2.882   3.183  0.00  0.00    +0.066 C 
ENDBRANCH  19  20
ENDBRANCH  18  19
ENDBRANCH  14  15
ENDBRANCH  12  13
TORSDOF 6
ENDMDL
MODEL 5
REMARK VINA RESULT:      -8.4      3.241     14.948
REMARK  Name = C:\Users\Docking\Desktop\test protocol\1iep_ligandH.pdb
REMARK  8 active torsions:
REMARK  status: ('A' for Active; 'I' for Inactive)
REMARK    1  A    between atoms: _5  and  _11
REMARK    2  A    between atoms: _19  and  _21
REMARK    3  A    between atoms: _22  and  _66
REMARK    4  A    between atoms: _27  and  _30
REMARK    5  A    between atoms: _32  and  _33
REMARK    6  A    between atoms: _38  and  _43
REMARK    7  A    between atoms: _43  and  _46
REMARK    8  A    between atoms: _53  and  _55
REMARK                            x       y       z     vdW  Elec       q    Type
REMARK                         _______ _______ _______ _____ _____    ______ ____
ROOT
ATOM     10  C   UNL     1      28.360   8.894   1.953  0.00  0.00    +0.038 A 
ATOM     11  C   UNL     1      26.985   8.601   1.766  0.00  0.00    +0.047 A 
ATOM     12  C   UNL     1      26.518   7.229   1.642  0.00  0.00    +0.035 A 
ATOM     32  C   UNL     1      27.479   6.179   1.715  0.00  0.00    +0.024 A 
ATOM     33  C   UNL     1      28.881   6.459   1.904  0.00  0.00    +0.007 A 
ATOM     34  C   UNL     1      29.348   7.811   2.025  0.00  0.00    -0.029 A 
ATOM     35  C   UNL     1      30.863   8.053   2.219  0.00  0.00    +0.045 C 
ENDROOT
BRANCH  10   9
ATOM      4  C   UNL     1      29.696  13.090   0.042  0.00  0.00    +0.077 A 
ATOM      5  C   UNL     1      29.632  12.569  -1.294  0.00  0.00    +0.048 A 
ATOM      6  C   UNL     1      29.258  11.215  -1.445  0.00  0.00    +0.116 A 
ATOM      7  N   UNL     1      28.971  10.448  -0.337  0.00  0.00    -0.223 NA
ATOM      8  C   UNL     1      29.044  10.981   0.937  0.00  0.00    +0.220 A 
ATOM      9  N   UNL     1      28.752  10.230   2.066  0.00  0.00    -0.283 N 
ATOM     36  H   UNL     1      28.825  10.658   2.989  0.00  0.00    +0.155 HD
ATOM     37  N   UNL     1      29.400  12.271   1.109  0.00  0.00    -0.214 NA
BRANCH   4   3
ATOM      1  C   UNL     1      30.765  16.837  -0.293  0.00  0.00    +0.020 A 
ATOM      2  C   UNL     1      30.409  15.485  -0.657  0.00  0.00    +0.013 A 
ATOM      3  C   UNL     1      30.072  14.502   0.364  0.00  0.00    +0.019 A 
ATOM     38  C   UNL     1      30.103  14.923   1.757  0.00  0.00    +0.120 A 
ATOM     39  N   UNL     1      30.451  16.231   2.078  0.00  0.00    -0.263 NA
ATOM     40  C   UNL     1      30.780  17.186   1.104  0.00  0.00    +0.111 A 
ENDBRANCH   4   3
ENDBRANCH  10   9
BRANCH  12  13
ATOM     13  N   UNL     1      25.136   6.871   1.442  0.00  0.00    -0.281 N 
ATOM     14  C   UNL     1      24.409   5.887   2.093  0.00  0.00    +0.248 C 
ATOM     30  O   UNL     1      24.899   5.018   2.799  0.00  0.00    -0.270 OA
ATOM     31  H   UNL     1      24.632   7.407   0.736  0.00  0.00    +0.155 HD
BRANCH  14  15
ATOM     15  C   UNL     1      22.924   5.855   1.923  0.00  0.00    +0.037 A 
ATOM     16  C   UNL     1      22.244   6.774   1.006  0.00  0.00    +0.013 A 
ATOM     17  C   UNL     1      20.809   6.734   0.874  0.00  0.00    +0.005 A 
ATOM     18  C   UNL     1      20.045   5.769   1.661  0.00  0.00    -0.033 A 
ATOM     28  C   UNL     1      20.745   4.865   2.558  0.00  0.00    +0.005 A 
ATOM     29  C   UNL     1      22.151   4.903   2.691  0.00  0.00    +0.013 A 
BRANCH  18  19
ATOM     19  C   UNL     1      18.509   5.669   1.599  0.00  0.00    +0.119 C 
BRANCH  19  20
ATOM     20  N   UNL     1      17.926   4.641   0.686  0.00  0.00    -0.302 NA
ATOM     21  C   UNL     1      18.081   5.028  -0.788  0.00  0.00    +0.066 C 
ATOM     22  C   UNL     1      17.486   3.931  -1.730  0.00  0.00    -0.064 C 
ATOM     23  N   UNL     1      16.014   3.706  -1.380  0.00  0.00    +0.379 N 
ATOM     24  C   UNL     1      15.437   2.717  -2.302  0.00  0.00    -0.096 C 
ATOM     25  H   UNL     1      15.478   4.671  -1.540  0.00  0.00    -0.082 HD
ATOM     26  C   UNL     1      15.851   3.324   0.084  0.00  0.00    -0.064 C 
ATOM     27  C   UNL     1      16.471   4.407   1.010  0.00  0.00    +0.066 C 
ENDBRANCH  19  20
ENDBRANCH  18  19
ENDBRANCH  14  15
ENDBRANCH  12  13
TORSDOF 6
ENDMDL
