MODEL 1
REMARK VINA RESULT:      -8.6      0.000      0.000
REMARK  Name = C:\Users\Docking\Desktop\test protocol\1iep_ligandH.pdb
REMARK  8 active torsions:
REMARK  status: ('A' for Active; 'I' for Inactive)
REMARK    1  A    between atoms: _5  and  _11
REMARK    2  A    between atoms: _19  and  _21
REMARK    3  A    between atoms: _22  and  _66
REMARK    4  A    between atoms: _27  and  _30
REMARK    5  A    between atoms: _32  and  _33
REMARK    6  A    between atoms: _38  and  _43
REMARK    7  A    between atoms: _43  and  _46
REMARK    8  A    between atoms: _53  and  _55
REMARK                            x       y       z     vdW  Elec       q    Type
REMARK                         _______ _______ _______ _____ _____    ______ ____
ROOT
ATOM     10  C   UNL     1       9.378  34.040  39.286  0.00  0.00    +0.038 A 
ATOM     11  C   UNL     1       9.957  32.746  39.264  0.00  0.00    +0.047 A 
ATOM     12  C   UNL     1      11.022  32.382  40.185  0.00  0.00    +0.035 A 
ATOM     32  C   UNL     1      11.473  33.362  41.117  0.00  0.00    +0.024 A 
ATOM     33  C   UNL     1      10.896  34.683  41.152  0.00  0.00    +0.007 A 
ATOM     34  C   UNL     1       9.846  35.048  40.244  0.00  0.00    -0.029 A 
ATOM     35  C   UNL     1       9.270  36.481  40.323  0.00  0.00    +0.045 C 
ENDROOT
BRANCH  10   9
ATOM      4  C   UNL     1       7.776  35.989  35.202  0.00  0.00    +0.077 A 
ATOM      5  C   UNL     1       9.078  36.485  34.859  0.00  0.00    +0.048 A 
ATOM      6  C   UNL     1      10.131  36.224  35.764  0.00  0.00    +0.116 A 
ATOM      7  N   UNL     1       9.889  35.517  36.922  0.00  0.00    -0.223 NA
ATOM      8  C   UNL     1       8.622  35.054  37.224  0.00  0.00    +0.220 A 
ATOM      9  N   UNL     1       8.357  34.335  38.379  0.00  0.00    -0.283 N 
ATOM     36  H   UNL     1       7.407  34.017  38.568  0.00  0.00    +0.155 HD
ATOM     37  N   UNL     1       7.599  35.292  36.376  0.00  0.00    -0.214 NA
BRANCH   4   3
ATOM      1  C   UNL     1       5.272  35.890  32.199  0.00  0.00    +0.020 A 
ATOM      2  C   UNL     1       6.467  35.677  32.982  0.00  0.00    +0.013 A 
ATOM      3  C   UNL     1       6.563  36.182  34.346  0.00  0.00    +0.019 A 
ATOM     38  C   UNL     1       5.423  36.903  34.892  0.00  0.00    +0.120 A 
ATOM     39  N   UNL     1       4.286  37.094  34.113  0.00  0.00    -0.263 NA
ATOM     40  C   UNL     1       4.183  36.614  32.799  0.00  0.00    +0.111 A 
ENDBRANCH   4   3
ENDBRANCH  10   9
BRANCH  12  13
ATOM     13  N   UNL     1      11.654  31.086  40.204  0.00  0.00    -0.281 N 
ATOM     14  C   UNL     1      12.909  30.743  39.729  0.00  0.00    +0.248 C 
ATOM     30  O   UNL     1      13.598  31.459  39.018  0.00  0.00    -0.270 OA
ATOM     31  H   UNL     1      11.109  30.330  40.619  0.00  0.00    +0.155 HD
BRANCH  14  15
ATOM     15  C   UNL     1      13.474  29.406  40.083  0.00  0.00    +0.037 A 
ATOM     16  C   UNL     1      13.969  28.492  39.049  0.00  0.00    +0.013 A 
ATOM     17  C   UNL     1      14.494  27.201  39.417  0.00  0.00    +0.005 A 
ATOM     18  C   UNL     1      14.528  26.816  40.825  0.00  0.00    -0.033 A 
ATOM     28  C   UNL     1      14.035  27.743  41.830  0.00  0.00    +0.005 A 
ATOM     29  C   UNL     1      13.519  29.010  41.474  0.00  0.00    +0.013 A 
BRANCH  18  19
ATOM     19  C   UNL     1      15.051  25.450  41.307  0.00  0.00    +0.119 C 
BRANCH  19  20
ATOM     20  N   UNL     1      16.300  24.933  40.671  0.00  0.00    -0.302 NA
ATOM     21  C   UNL     1      16.089  23.563  40.020  0.00  0.00    +0.066 C 
ATOM     22  C   UNL     1      17.399  23.048  39.341  0.00  0.00    -0.064 C 
ATOM     23  N   UNL     1      18.519  22.987  40.381  0.00  0.00    +0.379 N 
ATOM     24  C   UNL     1      19.737  22.448  39.758  0.00  0.00    -0.096 C 
ATOM     25  H   UNL     1      18.202  22.274  41.177  0.00  0.00    -0.082 HD
ATOM     26  C   UNL     1      18.734  24.344  41.035  0.00  0.00    -0.064 C 
ATOM     27  C   UNL     1      17.418  24.860  41.681  0.00  0.00    +0.066 C 
ENDBRANCH  19  20
ENDBRANCH  18  19
ENDBRANCH  14  15
ENDBRANCH  12  13
TORSDOF 6
ENDMDL
MODEL 2
REMARK VINA RESULT:      -8.5      1.297      1.625
REMARK  Name = C:\Users\Docking\Desktop\test protocol\1iep_ligandH.pdb
REMARK  8 active torsions:
REMARK  status: ('A' for Active; 'I' for Inactive)
REMARK    1  A    between atoms: _5  and  _11
REMARK    2  A    between atoms: _19  and  _21
REMARK    3  A    between atoms: _22  and  _66
REMARK    4  A    between atoms: _27  and  _30
REMARK    5  A    between atoms: _32  and  _33
REMARK    6  A    between atoms: _38  and  _43
REMARK    7  A    between atoms: _43  and  _46
REMARK    8  A    between atoms: _53  and  _55
REMARK                            x       y       z     vdW  Elec       q    Type
REMARK                         _______ _______ _______ _____ _____    ______ ____
ROOT
ATOM     10  C   UNL     1       9.678  33.873  39.081  0.00  0.00    +0.038 A 
ATOM     11  C   UNL     1      10.499  32.722  38.971  0.00  0.00    +0.047 A 
ATOM     12  C   UNL     1      11.442  32.366  40.021  0.00  0.00    +0.035 A 
ATOM     32  C   UNL     1      11.520  33.205  41.171  0.00  0.00    +0.024 A 
ATOM     33  C   UNL     1      10.693  34.379  41.298  0.00  0.00    +0.007 A 
ATOM     34  C   UNL     1       9.764  34.736  40.265  0.00  0.00    -0.029 A 
ATOM     35  C   UNL     1       8.908  36.010  40.452  0.00  0.00    +0.045 C 
ENDROOT
BRANCH  10   9
ATOM      4  C   UNL     1       8.508  36.183  35.039  0.00  0.00    +0.077 A 
ATOM      5  C   UNL     1       9.760  36.883  35.008  0.00  0.00    +0.048 A 
ATOM      6  C   UNL     1      10.674  36.626  36.054  0.00  0.00    +0.116 A 
ATOM      7  N   UNL     1      10.351  35.733  37.052  0.00  0.00    -0.223 NA
ATOM      8  C   UNL     1       9.134  35.075  37.054  0.00  0.00    +0.220 A 
ATOM      9  N   UNL     1       8.791  34.167  38.043  0.00  0.00    -0.283 N 
ATOM     36  H   UNL     1       7.881  33.708  38.013  0.00  0.00    +0.155 HD
ATOM     37  N   UNL     1       8.243  35.305  36.067  0.00  0.00    -0.214 NA
BRANCH   4   3
ATOM      1  C   UNL     1       6.043  37.738  32.431  0.00  0.00    +0.020 A 
ATOM      2  C   UNL     1       7.082  37.636  33.430  0.00  0.00    +0.013 A 
ATOM      3  C   UNL     1       7.440  36.345  34.003  0.00  0.00    +0.019 A 
ATOM     38  C   UNL     1       6.723  35.167  33.540  0.00  0.00    +0.120 A 
ATOM     39  N   UNL     1       5.725  35.296  32.578  0.00  0.00    -0.263 NA
ATOM     40  C   UNL     1       5.371  36.533  32.021  0.00  0.00    +0.111 A 
ENDBRANCH   4   3
ENDBRANCH  10   9
BRANCH  12  13
ATOM     13  N   UNL     1      12.307  31.214  39.961  0.00  0.00    -0.281 N 
ATOM     14  C   UNL     1      13.549  31.113  39.357  0.00  0.00    +0.248 C 
ATOM     30  O   UNL     1      14.014  31.942  38.589  0.00  0.00    -0.270 OA
ATOM     31  H   UNL     1      11.961  30.371  40.419  0.00  0.00    +0.155 HD
BRANCH  14  15
ATOM     15  C   UNL     1      14.392  29.910  39.636  0.00  0.00    +0.037 A 
ATOM     16  C   UNL     1      13.919  28.561  39.317  0.00  0.00    +0.013 A 
ATOM     17  C   UNL     1      14.744  27.416  39.612  0.00  0.00    +0.005 A 
ATOM     18  C   UNL     1      16.053  27.618  40.229  0.00  0.00    -0.033 A 
ATOM     28  C   UNL     1      16.500  28.968  40.530  0.00  0.00    +0.005 A 
ATOM     29  C   UNL     1      15.693  30.091  40.243  0.00  0.00    +0.013 A 
BRANCH  18  19
ATOM     19  C   UNL     1      16.991  26.453  40.598  0.00  0.00    +0.119 C 
BRANCH  19  20
ATOM     20  N   UNL     1      16.606  25.089  40.129  0.00  0.00    -0.302 NA
ATOM     21  C   UNL     1      15.790  24.330  41.180  0.00  0.00    +0.066 C 
ATOM     22  C   UNL     1      15.376  22.913  40.664  0.00  0.00    -0.064 C 
ATOM     23  N   UNL     1      16.630  22.127  40.279  0.00  0.00    +0.379 N 
ATOM     24  C   UNL     1      16.248  20.774  39.849  0.00  0.00    -0.096 C 
ATOM     25  H   UNL     1      17.259  22.025  41.194  0.00  0.00    -0.082 HD
ATOM     26  C   UNL     1      17.448  22.876  39.237  0.00  0.00    -0.064 C 
ATOM     27  C   UNL     1      17.829  24.293  39.748  0.00  0.00    +0.066 C 
ENDBRANCH  19  20
ENDBRANCH  18  19
ENDBRANCH  14  15
ENDBRANCH  12  13
TORSDOF 6
ENDMDL
MODEL 3
REMARK VINA RESULT:      -8.4     27.426     31.212
REMARK  Name = C:\Users\Docking\Desktop\test protocol\1iep_ligandH.pdb
REMARK  8 active torsions:
REMARK  status: ('A' for Active; 'I' for Inactive)
REMARK    1  A    between atoms: _5  and  _11
REMARK    2  A    between atoms: _19  and  _21
REMARK    3  A    between atoms: _22  and  _66
REMARK    4  A    between atoms: _27  and  _30
REMARK    5  A    between atoms: _32  and  _33
REMARK    6  A    between atoms: _38  and  _43
REMARK    7  A    between atoms: _43  and  _46
REMARK    8  A    between atoms: _53  and  _55
REMARK                            x       y       z     vdW  Elec       q    Type
REMARK                         _______ _______ _______ _____ _____    ______ ____
ROOT
ATOM     10  C   UNL     1      25.746  26.699  13.066  0.00  0.00    +0.038 A 
ATOM     11  C   UNL     1      25.668  28.114  13.006  0.00  0.00    +0.047 A 
ATOM     12  C   UNL     1      26.584  28.884  12.180  0.00  0.00    +0.035 A 
ATOM     32  C   UNL     1      27.567  28.180  11.425  0.00  0.00    +0.024 A 
ATOM     33  C   UNL     1      27.662  26.742  11.474  0.00  0.00    +0.007 A 
ATOM     34  C   UNL     1      26.762  25.978  12.290  0.00  0.00    -0.029 A 
ATOM     35  C   UNL     1      26.914  24.439  12.310  0.00  0.00    +0.045 C 
ENDROOT
BRANCH  10   9
ATOM      4  C   UNL     1      24.449  24.752  17.257  0.00  0.00    +0.077 A 
ATOM      5  C   UNL     1      25.690  25.115  17.877  0.00  0.00    +0.048 A 
ATOM      6  C   UNL     1      26.639  25.795  17.081  0.00  0.00    +0.116 A 
ATOM      7  N   UNL     1      26.356  26.086  15.764  0.00  0.00    -0.223 NA
ATOM      8  C   UNL     1      25.150  25.720  15.196  0.00  0.00    +0.220 A 
ATOM      9  N   UNL     1      24.841  26.010  13.876  0.00  0.00    -0.283 N 
ATOM     36  H   UNL     1      23.943  25.716  13.492  0.00  0.00    +0.155 HD
ATOM     37  N   UNL     1      24.228  25.068  15.935  0.00  0.00    -0.214 NA
BRANCH   4   3
ATOM      1  C   UNL     1      22.195  23.207  20.056  0.00  0.00    +0.020 A 
ATOM      2  C   UNL     1      23.283  23.912  19.419  0.00  0.00    +0.013 A 
ATOM      3  C   UNL     1      23.345  24.032  17.967  0.00  0.00    +0.019 A 
ATOM     38  C   UNL     1      22.281  23.422  17.183  0.00  0.00    +0.120 A 
ATOM     39  N   UNL     1      21.247  22.748  17.824  0.00  0.00    -0.263 NA
ATOM     40  C   UNL     1      21.177  22.625  19.220  0.00  0.00    +0.111 A 
ENDBRANCH   4   3
ENDBRANCH  10   9
BRANCH  12  13
ATOM     13  N   UNL     1      26.558  30.323  12.086  0.00  0.00    -0.281 N 
ATOM     14  C   UNL     1      27.390  31.233  12.717  0.00  0.00    +0.248 C 
ATOM     30  O   UNL     1      28.152  30.954  13.630  0.00  0.00    -0.270 OA
ATOM     31  H   UNL     1      25.838  30.718  11.480  0.00  0.00    +0.155 HD
BRANCH  14  15
ATOM     15  C   UNL     1      27.361  32.662  12.279  0.00  0.00    +0.037 A 
ATOM     16  C   UNL     1      26.745  33.699  13.111  0.00  0.00    +0.013 A 
ATOM     17  C   UNL     1      26.715  35.067  12.658  0.00  0.00    +0.005 A 
ATOM     18  C   UNL     1      27.305  35.406  11.365  0.00  0.00    -0.033 A 
ATOM     28  C   UNL     1      27.914  34.358  10.563  0.00  0.00    +0.005 A 
ATOM     29  C   UNL     1      27.944  33.016  11.003  0.00  0.00    +0.013 A 
BRANCH  18  19
ATOM     19  C   UNL     1      27.300  36.835  10.793  0.00  0.00    +0.119 C 
BRANCH  19  20
ATOM     20  N   UNL     1      25.976  37.515  10.662  0.00  0.00    -0.302 NA
ATOM     21  C   UNL     1      25.753  38.072   9.253  0.00  0.00    +0.066 C 
ATOM     22  C   UNL     1      24.355  38.759   9.127  0.00  0.00    -0.064 C 
ATOM     23  N   UNL     1      24.239  39.869  10.173  0.00  0.00    +0.379 N 
ATOM     24  C   UNL     1      22.948  40.556  10.020  0.00  0.00    -0.096 C 
ATOM     25  H   UNL     1      25.044  40.613   9.968  0.00  0.00    -0.082 HD
ATOM     26  C   UNL     1      24.462  39.324  11.577  0.00  0.00    -0.064 C 
ATOM     27  C   UNL     1      25.843  38.618  11.683  0.00  0.00    +0.066 C 
ENDBRANCH  19  20
ENDBRANCH  18  19
ENDBRANCH  14  15
ENDBRANCH  12  13
TORSDOF 6
ENDMDL
MODEL 4
REMARK VINA RESULT:      -8.4      2.604     13.371
REMARK  Name = C:\Users\Docking\Desktop\test protocol\1iep_ligandH.pdb
REMARK  8 active torsions:
REMARK  status: ('A' for Active; 'I' for Inactive)
REMARK    1  A    between atoms: _5  and  _11
REMARK    2  A    between atoms: _19  and  _21
REMARK    3  A    between atoms: _22  and  _66
REMARK    4  A    between atoms: _27  and  _30
REMARK    5  A    between atoms: _32  and  _33
REMARK    6  A    between atoms: _38  and  _43
REMARK    7  A    between atoms: _43  and  _46
REMARK    8  A    between atoms: _53  and  _55
REMARK                            x       y       z     vdW  Elec       q    Type
REMARK                         _______ _______ _______ _____ _____    ______ ____
ROOT
ATOM     10  C   UNL     1      10.596  33.104  40.151  0.00  0.00    +0.038 A 
ATOM     11  C   UNL     1       9.825  33.284  38.975  0.00  0.00    +0.047 A 
ATOM     12  C   UNL     1       9.355  34.601  38.576  0.00  0.00    +0.035 A 
ATOM     32  C   UNL     1       9.692  35.716  39.399  0.00  0.00    +0.024 A 
ATOM     33  C   UNL     1      10.474  35.552  40.599  0.00  0.00    +0.007 A 
ATOM     34  C   UNL     1      10.938  34.254  40.998  0.00  0.00    -0.029 A 
ATOM     35  C   UNL     1      11.768  34.136  42.298  0.00  0.00    +0.045 C 
ENDROOT
BRANCH  10   9
ATOM      4  C   UNL     1      13.875  29.599  40.167  0.00  0.00    +0.077 A 
ATOM      5  C   UNL     1      14.811  30.390  39.421  0.00  0.00    +0.048 A 
ATOM      6  C   UNL     1      14.407  31.692  39.046  0.00  0.00    +0.116 A 
ATOM      7  N   UNL     1      13.158  32.157  39.398  0.00  0.00    -0.223 NA
ATOM      8  C   UNL     1      12.279  31.367  40.116  0.00  0.00    +0.220 A 
ATOM      9  N   UNL     1      11.021  31.817  40.486  0.00  0.00    -0.283 N 
ATOM     36  H   UNL     1      10.399  31.201  41.009  0.00  0.00    +0.155 HD
ATOM     37  N   UNL     1      12.640  30.120  40.484  0.00  0.00    -0.214 NA
BRANCH   4   3
ATOM      1  C   UNL     1      14.893  25.823  40.258  0.00  0.00    +0.020 A 
ATOM      2  C   UNL     1      14.636  27.152  39.752  0.00  0.00    +0.013 A 
ATOM      3  C   UNL     1      14.156  28.206  40.638  0.00  0.00    +0.019 A 
ATOM     38  C   UNL     1      13.946  27.880  42.040  0.00  0.00    +0.120 A 
ATOM     39  N   UNL     1      14.200  26.591  42.498  0.00  0.00    -0.263 NA
ATOM     40  C   UNL     1      14.661  25.568  41.655  0.00  0.00    +0.111 A 
ENDBRANCH   4   3
ENDBRANCH  10   9
BRANCH  12  13
ATOM     13  N   UNL     1       8.562  34.843  37.397  0.00  0.00    -0.281 N 
ATOM     14  C   UNL     1       7.187  34.993  37.311  0.00  0.00    +0.248 C 
ATOM     30  O   UNL     1       6.405  34.728  38.212  0.00  0.00    -0.270 OA
ATOM     31  H   UNL     1       9.076  34.913  36.518  0.00  0.00    +0.155 HD
BRANCH  14  15
ATOM     15  C   UNL     1       6.594  35.497  36.035  0.00  0.00    +0.037 A 
ATOM     16  C   UNL     1       5.537  36.511  36.036  0.00  0.00    +0.013 A 
ATOM     17  C   UNL     1       4.971  36.968  34.792  0.00  0.00    +0.005 A 
ATOM     18  C   UNL     1       5.462  36.410  33.534  0.00  0.00    -0.033 A 
ATOM     28  C   UNL     1       6.515  35.408  33.561  0.00  0.00    +0.005 A 
ATOM     29  C   UNL     1       7.072  34.958  34.779  0.00  0.00    +0.013 A 
BRANCH  18  19
ATOM     19  C   UNL     1       4.901  36.822  32.160  0.00  0.00    +0.119 C 
BRANCH  19  20
ATOM     20  N   UNL     1       5.681  37.825  31.376  0.00  0.00    -0.302 NA
ATOM     21  C   UNL     1       4.775  38.857  30.699  0.00  0.00    +0.066 C 
ATOM     22  C   UNL     1       5.609  39.911  29.902  0.00  0.00    -0.064 C 
ATOM     23  N   UNL     1       6.478  39.194  28.868  0.00  0.00    +0.379 N 
ATOM     24  C   UNL     1       7.220  40.186  28.077  0.00  0.00    -0.096 C 
ATOM     25  H   UNL     1       5.797  38.649  28.174  0.00  0.00    -0.082 HD
ATOM     26  C   UNL     1       7.381  38.163  29.531  0.00  0.00    -0.064 C 
ATOM     27  C   UNL     1       6.543  37.138  30.346  0.00  0.00    +0.066 C 
ENDBRANCH  19  20
ENDBRANCH  18  19
ENDBRANCH  14  15
ENDBRANCH  12  13
TORSDOF 6
ENDMDL
MODEL 5
REMARK VINA RESULT:      -8.3     29.536     33.724
REMARK  Name = C:\Users\Docking\Desktop\test protocol\1iep_ligandH.pdb
REMARK  8 active torsions:
REMARK  status: ('A' for Active; 'I' for Inactive)
REMARK    1  A    between atoms: _5  and  _11
REMARK    2  A    between atoms: _19  and  _21
REMARK    3  A    between atoms: _22  and  _66
REMARK    4  A    between atoms: _27  and  _30
REMARK    5  A    between atoms: _32  and  _33
REMARK    6  A    between atoms: _38  and  _43
REMARK    7  A    between atoms: _43  and  _46
REMARK    8  A    between atoms: _53  and  _55
REMARK                            x       y       z     vdW  Elec       q    Type
REMARK                         _______ _______ _______ _____ _____    ______ ____
ROOT
ATOM     10  C   UNL     1      26.540  25.938  12.472  0.00  0.00    +0.038 A 
ATOM     11  C   UNL     1      26.873  27.264  12.098  0.00  0.00    +0.047 A 
ATOM     12  C   UNL     1      26.094  28.398  12.570  0.00  0.00    +0.035 A 
ATOM     32  C   UNL     1      24.981  28.144  13.424  0.00  0.00    +0.024 A 
ATOM     33  C   UNL     1      24.627  26.802  13.814  0.00  0.00    +0.007 A 
ATOM     34  C   UNL     1      25.391  25.680  13.349  0.00  0.00    -0.029 A 
ATOM     35  C   UNL     1      24.962  24.262  13.794  0.00  0.00    +0.045 C 
ENDROOT
BRANCH  10   9
ATOM      4  C   UNL     1      30.015  22.667  12.986  0.00  0.00    +0.077 A 
ATOM      5  C   UNL     1      30.314  23.108  14.318  0.00  0.00    +0.048 A 
ATOM      6  C   UNL     1      29.555  24.184  14.831  0.00  0.00    +0.116 A 
ATOM      7  N   UNL     1      28.573  24.767  14.061  0.00  0.00    -0.223 NA
ATOM      8  C   UNL     1      28.311  24.319  12.779  0.00  0.00    +0.220 A 
ATOM      9  N   UNL     1      27.323  24.887  11.990  0.00  0.00    -0.283 N 
ATOM     36  H   UNL     1      27.165  24.532  11.047  0.00  0.00    +0.155 HD
ATOM     37  N   UNL     1      29.023  23.295  12.266  0.00  0.00    -0.214 NA
BRANCH   4   3
ATOM      1  C   UNL     1      32.819  20.341  11.563  0.00  0.00    +0.020 A 
ATOM      2  C   UNL     1      32.180  21.451  12.232  0.00  0.00    +0.013 A 
ATOM      3  C   UNL     1      30.728  21.540  12.305  0.00  0.00    +0.019 A 
ATOM     38  C   UNL     1      29.944  20.481  11.687  0.00  0.00    +0.120 A 
ATOM     39  N   UNL     1      30.586  19.425  11.049  0.00  0.00    -0.263 NA
ATOM     40  C   UNL     1      31.984  19.329  10.970  0.00  0.00    +0.111 A 
ENDBRANCH   4   3
ENDBRANCH  10   9
BRANCH  12  13
ATOM     13  N   UNL     1      26.380  29.766  12.216  0.00  0.00    -0.281 N 
ATOM     14  C   UNL     1      26.956  30.747  13.007  0.00  0.00    +0.248 C 
ATOM     30  O   UNL     1      27.119  30.655  14.215  0.00  0.00    -0.270 OA
ATOM     31  H   UNL     1      26.127  30.046  11.269  0.00  0.00    +0.155 HD
BRANCH  14  15
ATOM     15  C   UNL     1      27.404  32.021  12.366  0.00  0.00    +0.037 A 
ATOM     16  C   UNL     1      28.240  32.013  11.163  0.00  0.00    +0.013 A 
ATOM     17  C   UNL     1      28.672  33.256  10.574  0.00  0.00    +0.005 A 
ATOM     18  C   UNL     1      28.266  34.518  11.188  0.00  0.00    -0.033 A 
ATOM     28  C   UNL     1      27.432  34.497  12.378  0.00  0.00    +0.005 A 
ATOM     29  C   UNL     1      27.007  33.281  12.958  0.00  0.00    +0.013 A 
BRANCH  18  19
ATOM     19  C   UNL     1      28.698  35.892  10.640  0.00  0.00    +0.119 C 
BRANCH  19  20
ATOM     20  N   UNL     1      27.658  36.708   9.944  0.00  0.00    -0.302 NA
ATOM     21  C   UNL     1      26.813  37.522  10.929  0.00  0.00    +0.066 C 
ATOM     22  C   UNL     1      25.746  38.387  10.183  0.00  0.00    -0.064 C 
ATOM     23  N   UNL     1      24.859  37.476   9.332  0.00  0.00    +0.379 N 
ATOM     24  C   UNL     1      23.818  38.279   8.675  0.00  0.00    -0.096 C 
ATOM     25  H   UNL     1      24.351  36.761  10.020  0.00  0.00    -0.082 HD
ATOM     26  C   UNL     1      25.691  36.661   8.352  0.00  0.00    -0.064 C 
ATOM     27  C   UNL     1      26.768  35.827   9.102  0.00  0.00    +0.066 C 
ENDBRANCH  19  20
ENDBRANCH  18  19
ENDBRANCH  14  15
ENDBRANCH  12  13
TORSDOF 6
ENDMDL
