MODEL 1
REMARK VINA RESULT:      -8.4      0.000      0.000
REMARK  Name = C:\Users\Docking\Desktop\test protocol\1iep_ligandH.pdb
REMARK  8 active torsions:
REMARK  status: ('A' for Active; 'I' for Inactive)
REMARK    1  A    between atoms: _5  and  _11
REMARK    2  A    between atoms: _19  and  _21
REMARK    3  A    between atoms: _22  and  _66
REMARK    4  A    between atoms: _27  and  _30
REMARK    5  A    between atoms: _32  and  _33
REMARK    6  A    between atoms: _38  and  _43
REMARK    7  A    between atoms: _43  and  _46
REMARK    8  A    between atoms: _53  and  _55
REMARK                            x       y       z     vdW  Elec       q    Type
REMARK                         _______ _______ _______ _____ _____    ______ ____
ROOT
ATOM     10  C   UNL     1      26.522  25.916  12.419  0.00  0.00    +0.038 A 
ATOM     11  C   UNL     1      26.856  27.238  12.031  0.00  0.00    +0.047 A 
ATOM     12  C   UNL     1      26.083  28.378  12.499  0.00  0.00    +0.035 A 
ATOM     32  C   UNL     1      24.976  28.134  13.364  0.00  0.00    +0.024 A 
ATOM     33  C   UNL     1      24.622  26.796  13.768  0.00  0.00    +0.007 A 
ATOM     34  C   UNL     1      25.380  25.668  13.307  0.00  0.00    -0.029 A 
ATOM     35  C   UNL     1      24.950  24.255  13.766  0.00  0.00    +0.045 C 
ENDROOT
BRANCH  10   9
ATOM      4  C   UNL     1      29.961  22.610  12.949  0.00  0.00    +0.077 A 
ATOM      5  C   UNL     1      30.253  23.043  14.285  0.00  0.00    +0.048 A 
ATOM      6  C   UNL     1      29.501  24.124  14.796  0.00  0.00    +0.116 A 
ATOM      7  N   UNL     1      28.531  24.720  14.020  0.00  0.00    -0.223 NA
ATOM      8  C   UNL     1      28.275  24.279  12.734  0.00  0.00    +0.220 A 
ATOM      9  N   UNL     1      27.299  24.859  11.939  0.00  0.00    -0.283 N 
ATOM     36  H   UNL     1      27.146  24.509  10.993  0.00  0.00    +0.155 HD
ATOM     37  N   UNL     1      28.981  23.249  12.223  0.00  0.00    -0.214 NA
BRANCH   4   3
ATOM      1  C   UNL     1      32.750  20.206  11.627  0.00  0.00    +0.020 A 
ATOM      2  C   UNL     1      32.116  21.318  12.299  0.00  0.00    +0.013 A 
ATOM      3  C   UNL     1      30.668  21.478  12.270  0.00  0.00    +0.019 A 
ATOM     38  C   UNL     1      29.883  20.488  11.548  0.00  0.00    +0.120 A 
ATOM     39  N   UNL     1      30.521  19.429  10.909  0.00  0.00    -0.263 NA
ATOM     40  C   UNL     1      31.914  19.266  10.928  0.00  0.00    +0.111 A 
ENDBRANCH   4   3
ENDBRANCH  10   9
BRANCH  12  13
ATOM     13  N   UNL     1      26.370  29.743  12.133  0.00  0.00    -0.281 N 
ATOM     14  C   UNL     1      26.984  30.719  12.899  0.00  0.00    +0.248 C 
ATOM     30  O   UNL     1      27.190  30.627  14.100  0.00  0.00    -0.270 OA
ATOM     31  H   UNL     1      26.085  30.023  11.194  0.00  0.00    +0.155 HD
BRANCH  14  15
ATOM     15  C   UNL     1      27.421  31.987  12.239  0.00  0.00    +0.037 A 
ATOM     16  C   UNL     1      28.244  31.969  11.028  0.00  0.00    +0.013 A 
ATOM     17  C   UNL     1      28.666  33.206  10.421  0.00  0.00    +0.005 A 
ATOM     18  C   UNL     1      28.262  34.474  11.024  0.00  0.00    -0.033 A 
ATOM     28  C   UNL     1      27.440  34.463  12.223  0.00  0.00    +0.005 A 
ATOM     29  C   UNL     1      27.026  33.252  12.822  0.00  0.00    +0.013 A 
BRANCH  18  19
ATOM     19  C   UNL     1      28.684  35.842  10.457  0.00  0.00    +0.119 C 
BRANCH  19  20
ATOM     20  N   UNL     1      27.629  36.658   9.784  0.00  0.00    -0.302 NA
ATOM     21  C   UNL     1      26.851  37.524  10.779  0.00  0.00    +0.066 C 
ATOM     22  C   UNL     1      25.767  38.388  10.056  0.00  0.00    -0.064 C 
ATOM     23  N   UNL     1      24.819  37.469   9.283  0.00  0.00    +0.379 N 
ATOM     24  C   UNL     1      23.764  38.273   8.649  0.00  0.00    -0.096 C 
ATOM     25  H   UNL     1      24.331  36.790  10.020  0.00  0.00    -0.082 HD
ATOM     26  C   UNL     1      25.584  36.601   8.293  0.00  0.00    -0.064 C 
ATOM     27  C   UNL     1      26.679  35.770   9.018  0.00  0.00    +0.066 C 
ENDBRANCH  19  20
ENDBRANCH  18  19
ENDBRANCH  14  15
ENDBRANCH  12  13
TORSDOF 6
ENDMDL
MODEL 2
REMARK VINA RESULT:      -8.3      3.729      5.805
REMARK  Name = C:\Users\Docking\Desktop\test protocol\1iep_ligandH.pdb
REMARK  8 active torsions:
REMARK  status: ('A' for Active; 'I' for Inactive)
REMARK    1  A    between atoms: _5  and  _11
REMARK    2  A    between atoms: _19  and  _21
REMARK    3  A    between atoms: _22  and  _66
REMARK    4  A    between atoms: _27  and  _30
REMARK    5  A    between atoms: _32  and  _33
REMARK    6  A    between atoms: _38  and  _43
REMARK    7  A    between atoms: _43  and  _46
REMARK    8  A    between atoms: _53  and  _55
REMARK                            x       y       z     vdW  Elec       q    Type
REMARK                         _______ _______ _______ _____ _____    ______ ____
ROOT
ATOM     10  C   UNL     1      25.589  27.312  13.082  0.00  0.00    +0.038 A 
ATOM     11  C   UNL     1      25.540  28.723  13.212  0.00  0.00    +0.047 A 
ATOM     12  C   UNL     1      26.426  29.581  12.440  0.00  0.00    +0.035 A 
ATOM     32  C   UNL     1      27.347  28.967  11.542  0.00  0.00    +0.024 A 
ATOM     33  C   UNL     1      27.410  27.534  11.397  0.00  0.00    +0.007 A 
ATOM     34  C   UNL     1      26.541  26.683  12.159  0.00  0.00    -0.029 A 
ATOM     35  C   UNL     1      26.657  25.152  11.968  0.00  0.00    +0.045 C 
ENDROOT
BRANCH  10   9
ATOM      4  C   UNL     1      24.399  25.031  17.134  0.00  0.00    +0.077 A 
ATOM      5  C   UNL     1      25.633  25.391  17.769  0.00  0.00    +0.048 A 
ATOM      6  C   UNL     1      26.550  26.159  17.016  0.00  0.00    +0.116 A 
ATOM      7  N   UNL     1      26.245  26.532  15.726  0.00  0.00    -0.223 NA
ATOM      8  C   UNL     1      25.046  26.166  15.142  0.00  0.00    +0.220 A 
ATOM      9  N   UNL     1      24.715  26.536  13.848  0.00  0.00    -0.283 N 
ATOM     36  H   UNL     1      23.824  26.240  13.451  0.00  0.00    +0.155 HD
ATOM     37  N   UNL     1      24.154  25.432  15.839  0.00  0.00    -0.214 NA
BRANCH   4   3
ATOM      1  C   UNL     1      21.356  22.651  17.751  0.00  0.00    +0.020 A 
ATOM      2  C   UNL     1      22.371  23.411  17.059  0.00  0.00    +0.013 A 
ATOM      3  C   UNL     1      23.327  24.225  17.800  0.00  0.00    +0.019 A 
ATOM     38  C   UNL     1      23.227  24.248  19.252  0.00  0.00    +0.120 A 
ATOM     39  N   UNL     1      22.238  23.507  19.890  0.00  0.00    -0.263 NA
ATOM     40  C   UNL     1      21.312  22.722  19.188  0.00  0.00    +0.111 A 
ENDBRANCH   4   3
ENDBRANCH  10   9
BRANCH  12  13
ATOM     13  N   UNL     1      26.428  31.020  12.536  0.00  0.00    -0.281 N 
ATOM     14  C   UNL     1      27.479  31.847  12.896  0.00  0.00    +0.248 C 
ATOM     30  O   UNL     1      28.523  31.460  13.400  0.00  0.00    -0.270 OA
ATOM     31  H   UNL     1      25.548  31.484  12.311  0.00  0.00    +0.155 HD
BRANCH  14  15
ATOM     15  C   UNL     1      27.345  33.320  12.679  0.00  0.00    +0.037 A 
ATOM     16  C   UNL     1      28.388  34.084  11.990  0.00  0.00    +0.013 A 
ATOM     17  C   UNL     1      28.242  35.507  11.809  0.00  0.00    +0.005 A 
ATOM     18  C   UNL     1      27.046  36.174  12.317  0.00  0.00    -0.033 A 
ATOM     28  C   UNL     1      26.024  35.391  12.992  0.00  0.00    +0.005 A 
ATOM     29  C   UNL     1      26.165  33.997  13.172  0.00  0.00    +0.013 A 
BRANCH  18  19
ATOM     19  C   UNL     1      26.815  37.692  12.187  0.00  0.00    +0.119 C 
BRANCH  19  20
ATOM     20  N   UNL     1      25.457  38.143  11.762  0.00  0.00    -0.302 NA
ATOM     21  C   UNL     1      25.475  38.789  10.373  0.00  0.00    +0.066 C 
ATOM     22  C   UNL     1      24.042  39.235   9.935  0.00  0.00    -0.064 C 
ATOM     23  N   UNL     1      23.471  40.202  10.974  0.00  0.00    +0.379 N 
ATOM     24  C   UNL     1      22.148  40.668  10.535  0.00  0.00    -0.096 C 
ATOM     25  H   UNL     1      24.146  41.088  11.017  0.00  0.00    -0.082 HD
ATOM     26  C   UNL     1      23.453  39.569  12.358  0.00  0.00    -0.064 C 
ATOM     27  C   UNL     1      24.876  39.102  12.772  0.00  0.00    +0.066 C 
ENDBRANCH  19  20
ENDBRANCH  18  19
ENDBRANCH  14  15
ENDBRANCH  12  13
TORSDOF 6
ENDMDL
MODEL 3
REMARK VINA RESULT:      -8.1      3.570      5.804
REMARK  Name = C:\Users\Docking\Desktop\test protocol\1iep_ligandH.pdb
REMARK  8 active torsions:
REMARK  status: ('A' for Active; 'I' for Inactive)
REMARK    1  A    between atoms: _5  and  _11
REMARK    2  A    between atoms: _19  and  _21
REMARK    3  A    between atoms: _22  and  _66
REMARK    4  A    between atoms: _27  and  _30
REMARK    5  A    between atoms: _32  and  _33
REMARK    6  A    between atoms: _38  and  _43
REMARK    7  A    between atoms: _43  and  _46
REMARK    8  A    between atoms: _53  and  _55
REMARK                            x       y       z     vdW  Elec       q    Type
REMARK                         _______ _______ _______ _____ _____    ______ ____
ROOT
ATOM     10  C   UNL     1      25.591  27.108  13.045  0.00  0.00    +0.038 A 
ATOM     11  C   UNL     1      25.489  28.522  13.071  0.00  0.00    +0.047 A 
ATOM     12  C   UNL     1      26.373  29.355  12.271  0.00  0.00    +0.035 A 
ATOM     32  C   UNL     1      27.348  28.714  11.453  0.00  0.00    +0.024 A 
ATOM     33  C   UNL     1      27.466  27.278  11.414  0.00  0.00    +0.007 A 
ATOM     34  C   UNL     1      26.598  26.451  12.203  0.00  0.00    -0.029 A 
ATOM     35  C   UNL     1      26.774  24.916  12.128  0.00  0.00    +0.045 C 
ENDROOT
BRANCH  10   9
ATOM      4  C   UNL     1      24.386  24.971  17.170  0.00  0.00    +0.077 A 
ATOM      5  C   UNL     1      25.614  25.361  17.800  0.00  0.00    +0.048 A 
ATOM      6  C   UNL     1      26.532  26.105  17.025  0.00  0.00    +0.116 A 
ATOM      7  N   UNL     1      26.234  26.429  15.720  0.00  0.00    -0.223 NA
ATOM      8  C   UNL     1      25.041  26.035  15.142  0.00  0.00    +0.220 A 
ATOM      9  N   UNL     1      24.716  26.356  13.833  0.00  0.00    -0.283 N 
ATOM     36  H   UNL     1      23.829  26.041  13.442  0.00  0.00    +0.155 HD
ATOM     37  N   UNL     1      24.148  25.323  15.860  0.00  0.00    -0.214 NA
BRANCH   4   3
ATOM      1  C   UNL     1      22.137  23.341  19.924  0.00  0.00    +0.020 A 
ATOM      2  C   UNL     1      23.191  24.114  19.309  0.00  0.00    +0.013 A 
ATOM      3  C   UNL     1      23.314  24.185  17.859  0.00  0.00    +0.019 A 
ATOM     38  C   UNL     1      22.345  23.456  17.053  0.00  0.00    +0.120 A 
ATOM     39  N   UNL     1      21.342  22.719  17.673  0.00  0.00    -0.263 NA
ATOM     40  C   UNL     1      21.215  22.642  19.068  0.00  0.00    +0.111 A 
ENDBRANCH   4   3
ENDBRANCH  10   9
BRANCH  12  13
ATOM     13  N   UNL     1      26.322  30.796  12.264  0.00  0.00    -0.281 N 
ATOM     14  C   UNL     1      27.343  31.686  12.552  0.00  0.00    +0.248 C 
ATOM     30  O   UNL     1      28.405  31.375  13.071  0.00  0.00    -0.270 OA
ATOM     31  H   UNL     1      25.423  31.211  12.016  0.00  0.00    +0.155 HD
BRANCH  14  15
ATOM     15  C   UNL     1      27.153  33.133  12.231  0.00  0.00    +0.037 A 
ATOM     16  C   UNL     1      26.430  34.025  13.142  0.00  0.00    +0.013 A 
ATOM     17  C   UNL     1      26.246  35.413  12.800  0.00  0.00    +0.005 A 
ATOM     18  C   UNL     1      26.786  35.919  11.541  0.00  0.00    -0.033 A 
ATOM     28  C   UNL     1      27.503  35.013  10.658  0.00  0.00    +0.005 A 
ATOM     29  C   UNL     1      27.685  33.652  10.989  0.00  0.00    +0.013 A 
BRANCH  18  19
ATOM     19  C   UNL     1      26.619  37.380  11.085  0.00  0.00    +0.119 C 
BRANCH  19  20
ATOM     20  N   UNL     1      27.473  37.846   9.952  0.00  0.00    -0.302 NA
ATOM     21  C   UNL     1      28.735  38.561  10.441  0.00  0.00    +0.066 C 
ATOM     22  C   UNL     1      29.629  39.022   9.243  0.00  0.00    -0.064 C 
ATOM     23  N   UNL     1      28.813  39.931   8.322  0.00  0.00    +0.379 N 
ATOM     24  C   UNL     1      29.667  40.412   7.226  0.00  0.00    -0.096 C 
ATOM     25  H   UNL     1      28.495  40.818   8.918  0.00  0.00    -0.082 HD
ATOM     26  C   UNL     1      27.555  39.228   7.833  0.00  0.00    -0.064 C 
ATOM     27  C   UNL     1      26.689  38.748   9.032  0.00  0.00    +0.066 C 
ENDBRANCH  19  20
ENDBRANCH  18  19
ENDBRANCH  14  15
ENDBRANCH  12  13
TORSDOF 6
ENDMDL
MODEL 4
REMARK VINA RESULT:      -8.0     30.652     34.595
REMARK  Name = C:\Users\Docking\Desktop\test protocol\1iep_ligandH.pdb
REMARK  8 active torsions:
REMARK  status: ('A' for Active; 'I' for Inactive)
REMARK    1  A    between atoms: _5  and  _11
REMARK    2  A    between atoms: _19  and  _21
REMARK    3  A    between atoms: _22  and  _66
REMARK    4  A    between atoms: _27  and  _30
REMARK    5  A    between atoms: _32  and  _33
REMARK    6  A    between atoms: _38  and  _43
REMARK    7  A    between atoms: _43  and  _46
REMARK    8  A    between atoms: _53  and  _55
REMARK                            x       y       z     vdW  Elec       q    Type
REMARK                         _______ _______ _______ _____ _____    ______ ____
ROOT
ATOM     10  C   UNL     1      15.583  29.303  39.867  0.00  0.00    +0.038 A 
ATOM     11  C   UNL     1      15.154  27.952  39.900  0.00  0.00    +0.047 A 
ATOM     12  C   UNL     1      15.990  26.910  40.475  0.00  0.00    +0.035 A 
ATOM     32  C   UNL     1      17.259  27.280  41.009  0.00  0.00    +0.024 A 
ATOM     33  C   UNL     1      17.712  28.649  40.982  0.00  0.00    +0.007 A 
ATOM     34  C   UNL     1      16.892  29.681  40.414  0.00  0.00    -0.029 A 
ATOM     35  C   UNL     1      17.432  31.130  40.407  0.00  0.00    +0.045 C 
ENDROOT
BRANCH  10   9
ATOM      4  C   UNL     1      11.987  32.468  40.154  0.00  0.00    +0.077 A 
ATOM      5  C   UNL     1      11.752  32.165  41.536  0.00  0.00    +0.048 A 
ATOM      6  C   UNL     1      12.573  31.184  42.134  0.00  0.00    +0.116 A 
ATOM      7  N   UNL     1      13.554  30.559  41.395  0.00  0.00    -0.223 NA
ATOM      8  C   UNL     1      13.754  30.873  40.063  0.00  0.00    +0.220 A 
ATOM      9  N   UNL     1      14.739  30.263  39.303  0.00  0.00    -0.283 N 
ATOM     36  H   UNL     1      14.850  30.518  38.322  0.00  0.00    +0.155 HD
ATOM     37  N   UNL     1      12.981  31.806  39.469  0.00  0.00    -0.214 NA
BRANCH   4   3
ATOM      1  C   UNL     1       9.090  34.315  38.283  0.00  0.00    +0.020 A 
ATOM      2  C   UNL     1       9.801  33.302  39.029  0.00  0.00    +0.013 A 
ATOM      3  C   UNL     1      11.203  33.485  39.382  0.00  0.00    +0.019 A 
ATOM     38  C   UNL     1      11.862  34.713  38.964  0.00  0.00    +0.120 A 
ATOM     39  N   UNL     1      11.152  35.670  38.245  0.00  0.00    -0.263 NA
ATOM     40  C   UNL     1       9.803  35.505  37.897  0.00  0.00    +0.111 A 
ENDBRANCH   4   3
ENDBRANCH  10   9
BRANCH  12  13
ATOM     13  N   UNL     1      15.610  25.520  40.529  0.00  0.00    -0.281 N 
ATOM     14  C   UNL     1      16.296  24.429  40.021  0.00  0.00    +0.248 C 
ATOM     30  O   UNL     1      17.242  24.505  39.251  0.00  0.00    -0.270 OA
ATOM     31  H   UNL     1      14.729  25.316  40.999  0.00  0.00    +0.155 HD
BRANCH  14  15
ATOM     15  C   UNL     1      15.860  23.055  40.414  0.00  0.00    +0.037 A 
ATOM     16  C   UNL     1      16.353  21.870  39.708  0.00  0.00    +0.013 A 
ATOM     17  C   UNL     1      15.903  20.557  40.096  0.00  0.00    +0.005 A 
ATOM     18  C   UNL     1      14.954  20.422  41.199  0.00  0.00    -0.033 A 
ATOM     28  C   UNL     1      14.484  21.614  41.885  0.00  0.00    +0.005 A 
ATOM     29  C   UNL     1      14.923  22.903  41.507  0.00  0.00    +0.013 A 
BRANCH  18  19
ATOM     19  C   UNL     1      14.403  19.062  41.667  0.00  0.00    +0.119 C 
BRANCH  19  20
ATOM     20  N   UNL     1      12.973  19.014  42.093  0.00  0.00    -0.302 NA
ATOM     21  C   UNL     1      12.821  18.544  43.543  0.00  0.00    +0.066 C 
ATOM     22  C   UNL     1      11.320  18.521  43.980  0.00  0.00    -0.064 C 
ATOM     23  N   UNL     1      10.530  17.617  43.033  0.00  0.00    +0.379 N 
ATOM     24  C   UNL     1       9.130  17.547  43.475  0.00  0.00    -0.096 C 
ATOM     25  H   UNL     1      10.960  16.591  43.107  0.00  0.00    -0.082 HD
ATOM     26  C   UNL     1      10.677  18.075  41.589  0.00  0.00    -0.064 C 
ATOM     27  C   UNL     1      12.175  18.123  41.174  0.00  0.00    +0.066 C 
ENDBRANCH  19  20
ENDBRANCH  18  19
ENDBRANCH  14  15
ENDBRANCH  12  13
TORSDOF 6
ENDMDL
MODEL 5
REMARK VINA RESULT:      -8.0     27.308     30.253
REMARK  Name = C:\Users\Docking\Desktop\test protocol\1iep_ligandH.pdb
REMARK  8 active torsions:
REMARK  status: ('A' for Active; 'I' for Inactive)
REMARK    1  A    between atoms: _5  and  _11
REMARK    2  A    between atoms: _19  and  _21
REMARK    3  A    between atoms: _22  and  _66
REMARK    4  A    between atoms: _27  and  _30
REMARK    5  A    between atoms: _32  and  _33
REMARK    6  A    between atoms: _38  and  _43
REMARK    7  A    between atoms: _43  and  _46
REMARK    8  A    between atoms: _53  and  _55
REMARK                            x       y       z     vdW  Elec       q    Type
REMARK                         _______ _______ _______ _____ _____    ______ ____
ROOT
ATOM     10  C   UNL     1      15.400   8.603  27.881  0.00  0.00    +0.038 A 
ATOM     11  C   UNL     1      14.149   9.009  27.350  0.00  0.00    +0.047 A 
ATOM     12  C   UNL     1      13.226   8.043  26.774  0.00  0.00    +0.035 A 
ATOM     32  C   UNL     1      13.609   6.670  26.758  0.00  0.00    +0.024 A 
ATOM     33  C   UNL     1      14.877   6.240  27.292  0.00  0.00    +0.007 A 
ATOM     34  C   UNL     1      15.793   7.189  27.859  0.00  0.00    -0.029 A 
ATOM     35  C   UNL     1      17.141   6.672  28.411  0.00  0.00    +0.045 C 
ENDROOT
BRANCH  10   9
ATOM      4  C   UNL     1      17.316  10.949  31.604  0.00  0.00    +0.077 A 
ATOM      5  C   UNL     1      16.545  10.197  32.551  0.00  0.00    +0.048 A 
ATOM      6  C   UNL     1      15.661   9.220  32.039  0.00  0.00    +0.116 A 
ATOM      7  N   UNL     1      15.565   9.019  30.679  0.00  0.00    -0.223 NA
ATOM      8  C   UNL     1      16.322   9.764  29.793  0.00  0.00    +0.220 A 
ATOM      9  N   UNL     1      16.247   9.573  28.421  0.00  0.00    -0.283 N 
ATOM     36  H   UNL     1      16.817  10.147  27.801  0.00  0.00    +0.155 HD
ATOM     37  N   UNL     1      17.172  10.703  30.257  0.00  0.00    -0.214 NA
BRANCH   4   3
ATOM      1  C   UNL     1      19.224  14.355  31.851  0.00  0.00    +0.020 A 
ATOM      2  C   UNL     1      18.255  13.364  31.444  0.00  0.00    +0.013 A 
ATOM      3  C   UNL     1      18.295  12.013  31.991  0.00  0.00    +0.019 A 
ATOM     38  C   UNL     1      19.337  11.696  32.955  0.00  0.00    +0.120 A 
ATOM     39  N   UNL     1      20.258  12.670  33.328  0.00  0.00    -0.263 NA
ATOM     40  C   UNL     1      20.230  13.972  32.807  0.00  0.00    +0.111 A 
ENDBRANCH   4   3
ENDBRANCH  10   9
BRANCH  12  13
ATOM     13  N   UNL     1      11.946   8.397  26.213  0.00  0.00    -0.281 N 
ATOM     14  C   UNL     1      10.809   8.817  26.884  0.00  0.00    +0.248 C 
ATOM     30  O   UNL     1      10.655   8.746  28.094  0.00  0.00    -0.270 OA
ATOM     31  H   UNL     1      11.869   8.331  25.198  0.00  0.00    +0.155 HD
BRANCH  14  15
ATOM     15  C   UNL     1       9.673   9.384  26.095  0.00  0.00    +0.037 A 
ATOM     16  C   UNL     1       8.952  10.576  26.550  0.00  0.00    +0.013 A 
ATOM     17  C   UNL     1       7.849  11.092  25.779  0.00  0.00    +0.005 A 
ATOM     18  C   UNL     1       7.462  10.416  24.543  0.00  0.00    -0.033 A 
ATOM     28  C   UNL     1       8.197   9.239  24.112  0.00  0.00    +0.005 A 
ATOM     29  C   UNL     1       9.278   8.730  24.866  0.00  0.00    +0.013 A 
BRANCH  18  19
ATOM     19  C   UNL     1       6.284  10.885  23.668  0.00  0.00    +0.119 C 
BRANCH  19  20
ATOM     20  N   UNL     1       4.954  11.031  24.332  0.00  0.00    -0.302 NA
ATOM     21  C   UNL     1       3.839  10.338  23.544  0.00  0.00    +0.066 C 
ATOM     22  C   UNL     1       2.459  10.482  24.264  0.00  0.00    -0.064 C 
ATOM     23  N   UNL     1       2.142  11.966  24.461  0.00  0.00    +0.379 N 
ATOM     24  C   UNL     1       0.819  12.106  25.086  0.00  0.00    -0.096 C 
ATOM     25  H   UNL     1       2.091  12.437  23.452  0.00  0.00    -0.082 HD
ATOM     26  C   UNL     1       3.247  12.663  25.242  0.00  0.00    -0.064 C 
ATOM     27  C   UNL     1       4.619  12.489  24.532  0.00  0.00    +0.066 C 
ENDBRANCH  19  20
ENDBRANCH  18  19
ENDBRANCH  14  15
ENDBRANCH  12  13
TORSDOF 6
ENDMDL
