MODEL 1
REMARK VINA RESULT:      -8.9      0.000      0.000
REMARK  Name = C:\Users\Docking\Desktop\test protocol\1iep_ligandH.pdb
REMARK  8 active torsions:
REMARK  status: ('A' for Active; 'I' for Inactive)
REMARK    1  A    between atoms: _5  and  _11
REMARK    2  A    between atoms: _19  and  _21
REMARK    3  A    between atoms: _22  and  _66
REMARK    4  A    between atoms: _27  and  _30
REMARK    5  A    between atoms: _32  and  _33
REMARK    6  A    between atoms: _38  and  _43
REMARK    7  A    between atoms: _43  and  _46
REMARK    8  A    between atoms: _53  and  _55
REMARK                            x       y       z     vdW  Elec       q    Type
REMARK                         _______ _______ _______ _____ _____    ______ ____
ROOT
ATOM     10  C   UNL     1       6.675  18.670 137.892  0.00  0.00    +0.038 A 
ATOM     11  C   UNL     1       5.634  19.324 137.183  0.00  0.00    +0.047 A 
ATOM     12  C   UNL     1       5.801  19.714 135.792  0.00  0.00    +0.035 A 
ATOM     32  C   UNL     1       7.040  19.420 135.152  0.00  0.00    +0.024 A 
ATOM     33  C   UNL     1       8.109  18.757 135.857  0.00  0.00    +0.007 A 
ATOM     34  C   UNL     1       7.951  18.372 137.230  0.00  0.00    -0.029 A 
ATOM     35  C   UNL     1       9.132  17.669 137.939  0.00  0.00    +0.045 C 
ENDROOT
BRANCH  10   9
ATOM      4  C   UNL     1       5.121  15.635 141.271  0.00  0.00    +0.077 A 
ATOM      5  C   UNL     1       4.675  14.684 140.294  0.00  0.00    +0.048 A 
ATOM      6  C   UNL     1       4.857  15.016 138.933  0.00  0.00    +0.116 A 
ATOM      7  N   UNL     1       5.443  16.214 138.586  0.00  0.00    -0.223 NA
ATOM      8  C   UNL     1       5.861  17.110 139.552  0.00  0.00    +0.220 A 
ATOM      9  N   UNL     1       6.460  18.317 139.226  0.00  0.00    -0.283 N 
ATOM     36  H   UNL     1       6.748  18.954 139.968  0.00  0.00    +0.155 HD
ATOM     37  N   UNL     1       5.697  16.817 140.859  0.00  0.00    -0.214 NA
BRANCH   4   3
ATOM      1  C   UNL     1       5.983  15.022 145.036  0.00  0.00    +0.020 A 
ATOM      2  C   UNL     1       6.154  15.218 143.615  0.00  0.00    +0.013 A 
ATOM      3  C   UNL     1       5.001  15.427 142.748  0.00  0.00    +0.019 A 
ATOM     38  C   UNL     1       3.679  15.432 143.356  0.00  0.00    +0.120 A 
ATOM     39  N   UNL     1       3.545  15.239 144.727  0.00  0.00    -0.263 NA
ATOM     40  C   UNL     1       4.647  15.035 145.571  0.00  0.00    +0.111 A 
ENDBRANCH   4   3
ENDBRANCH  10   9
BRANCH  12  13
ATOM     13  N   UNL     1       4.784  20.388 135.024  0.00  0.00    -0.281 N 
ATOM     14  C   UNL     1       4.723  21.730 134.683  0.00  0.00    +0.248 C 
ATOM     30  O   UNL     1       5.429  22.599 135.170  0.00  0.00    -0.270 OA
ATOM     31  H   UNL     1       4.015  19.806 134.692  0.00  0.00    +0.155 HD
BRANCH  14  15
ATOM     15  C   UNL     1       3.723  22.171 133.663  0.00  0.00    +0.037 A 
ATOM     16  C   UNL     1       2.706  21.250 133.149  0.00  0.00    +0.013 A 
ATOM     17  C   UNL     1       1.764  21.696 132.153  0.00  0.00    +0.005 A 
ATOM     18  C   UNL     1       1.834  23.072 131.666  0.00  0.00    -0.033 A 
ATOM     28  C   UNL     1       2.850  23.965 132.198  0.00  0.00    +0.005 A 
ATOM     29  C   UNL     1       3.776  23.531 133.173  0.00  0.00    +0.013 A 
BRANCH  18  19
ATOM     19  C   UNL     1       0.883  23.628 130.590  0.00  0.00    +0.119 C 
BRANCH  19  20
ATOM     20  N   UNL     1      -0.316  22.806 130.247  0.00  0.00    -0.302 NA
ATOM     21  C   UNL     1      -0.126  22.028 128.942  0.00  0.00    +0.066 C 
ATOM     22  C   UNL     1      -1.381  21.157 128.610  0.00  0.00    -0.064 C 
ATOM     23  N   UNL     1      -2.616  22.057 128.529  0.00  0.00    +0.379 N 
ATOM     24  C   UNL     1      -3.788  21.249 128.161  0.00  0.00    -0.096 C 
ATOM     25  H   UNL     1      -2.443  22.795 127.712  0.00  0.00    -0.082 HD
ATOM     26  C   UNL     1      -2.811  22.836 129.822  0.00  0.00    -0.064 C 
ATOM     27  C   UNL     1      -1.547  23.676 130.158  0.00  0.00    +0.066 C 
ENDBRANCH  19  20
ENDBRANCH  18  19
ENDBRANCH  14  15
ENDBRANCH  12  13
TORSDOF 6
ENDMDL
MODEL 2
REMARK VINA RESULT:      -8.8      4.247     12.537
REMARK  Name = C:\Users\Docking\Desktop\test protocol\1iep_ligandH.pdb
REMARK  8 active torsions:
REMARK  status: ('A' for Active; 'I' for Inactive)
REMARK    1  A    between atoms: _5  and  _11
REMARK    2  A    between atoms: _19  and  _21
REMARK    3  A    between atoms: _22  and  _66
REMARK    4  A    between atoms: _27  and  _30
REMARK    5  A    between atoms: _32  and  _33
REMARK    6  A    between atoms: _38  and  _43
REMARK    7  A    between atoms: _43  and  _46
REMARK    8  A    between atoms: _53  and  _55
REMARK                            x       y       z     vdW  Elec       q    Type
REMARK                         _______ _______ _______ _____ _____    ______ ____
ROOT
ATOM     10  C   UNL     1       5.582  16.877 138.672  0.00  0.00    +0.038 A 
ATOM     11  C   UNL     1       4.702  16.578 139.743  0.00  0.00    +0.047 A 
ATOM     12  C   UNL     1       5.054  15.593 140.754  0.00  0.00    +0.035 A 
ATOM     32  C   UNL     1       6.313  14.933 140.645  0.00  0.00    +0.024 A 
ATOM     33  C   UNL     1       7.219  15.224 139.562  0.00  0.00    +0.007 A 
ATOM     34  C   UNL     1       6.876  16.193 138.560  0.00  0.00    -0.029 A 
ATOM     35  C   UNL     1       7.884  16.460 137.418  0.00  0.00    +0.045 C 
ENDROOT
BRANCH  10   9
ATOM      4  C   UNL     1       5.374  21.392 137.058  0.00  0.00    +0.077 A 
ATOM      5  C   UNL     1       6.076  21.897 138.203  0.00  0.00    +0.048 A 
ATOM      6  C   UNL     1       6.467  20.962 139.188  0.00  0.00    +0.116 A 
ATOM      7  N   UNL     1       6.173  19.625 139.029  0.00  0.00    -0.223 NA
ATOM      8  C   UNL     1       5.493  19.172 137.913  0.00  0.00    +0.220 A 
ATOM      9  N   UNL     1       5.193  17.831 137.729  0.00  0.00    -0.283 N 
ATOM     36  H   UNL     1       4.683  17.538 136.896  0.00  0.00    +0.155 HD
ATOM     37  N   UNL     1       5.107  20.045 136.959  0.00  0.00    -0.214 NA
BRANCH   4   3
ATOM      1  C   UNL     1       3.232  22.878 134.141  0.00  0.00    +0.020 A 
ATOM      2  C   UNL     1       3.647  22.014 135.223  0.00  0.00    +0.013 A 
ATOM      3  C   UNL     1       4.898  22.255 135.931  0.00  0.00    +0.019 A 
ATOM     38  C   UNL     1       5.713  23.387 135.516  0.00  0.00    +0.120 A 
ATOM     39  N   UNL     1       5.289  24.200 134.470  0.00  0.00    -0.263 NA
ATOM     40  C   UNL     1       4.088  23.977 133.780  0.00  0.00    +0.111 A 
ENDBRANCH   4   3
ENDBRANCH  10   9
BRANCH  12  13
ATOM     13  N   UNL     1       4.198  15.243 141.860  0.00  0.00    -0.281 N 
ATOM     14  C   UNL     1       4.438  15.418 143.213  0.00  0.00    +0.248 C 
ATOM     30  O   UNL     1       5.525  15.710 143.689  0.00  0.00    -0.270 OA
ATOM     31  H   UNL     1       3.305  14.813 141.615  0.00  0.00    +0.155 HD
BRANCH  14  15
ATOM     15  C   UNL     1       3.313  15.227 144.177  0.00  0.00    +0.037 A 
ATOM     16  C   UNL     1       3.541  15.241 145.624  0.00  0.00    +0.013 A 
ATOM     17  C   UNL     1       2.441  15.038 146.532  0.00  0.00    +0.005 A 
ATOM     18  C   UNL     1       1.100  14.820 145.995  0.00  0.00    -0.033 A 
ATOM     28  C   UNL     1       0.900  14.816 144.555  0.00  0.00    +0.005 A 
ATOM     29  C   UNL     1       1.977  15.014 143.662  0.00  0.00    +0.013 A 
BRANCH  18  19
ATOM     19  C   UNL     1      -0.130  14.573 146.889  0.00  0.00    +0.119 C 
BRANCH  19  20
ATOM     20  N   UNL     1      -1.409  14.212 146.208  0.00  0.00    -0.302 NA
ATOM     21  C   UNL     1      -2.623  14.851 146.889  0.00  0.00    +0.066 C 
ATOM     22  C   UNL     1      -3.950  14.481 146.151  0.00  0.00    -0.064 C 
ATOM     23  N   UNL     1      -4.096  12.959 146.101  0.00  0.00    +0.379 N 
ATOM     24  C   UNL     1      -5.371  12.609 145.459  0.00  0.00    -0.096 C 
ATOM     25  H   UNL     1      -4.133  12.589 147.152  0.00  0.00    -0.082 HD
ATOM     26  C   UNL     1      -2.892  12.316 145.428  0.00  0.00    -0.064 C 
ATOM     27  C   UNL     1      -1.576  12.713 146.152  0.00  0.00    +0.066 C 
ENDBRANCH  19  20
ENDBRANCH  18  19
ENDBRANCH  14  15
ENDBRANCH  12  13
TORSDOF 6
ENDMDL
MODEL 3
REMARK VINA RESULT:      -8.6     18.448     22.263
REMARK  Name = C:\Users\Docking\Desktop\test protocol\1iep_ligandH.pdb
REMARK  8 active torsions:
REMARK  status: ('A' for Active; 'I' for Inactive)
REMARK    1  A    between atoms: _5  and  _11
REMARK    2  A    between atoms: _19  and  _21
REMARK    3  A    between atoms: _22  and  _66
REMARK    4  A    between atoms: _27  and  _30
REMARK    5  A    between atoms: _32  and  _33
REMARK    6  A    between atoms: _38  and  _43
REMARK    7  A    between atoms: _43  and  _46
REMARK    8  A    between atoms: _53  and  _55
REMARK                            x       y       z     vdW  Elec       q    Type
REMARK                         _______ _______ _______ _____ _____    ______ ____
ROOT
ATOM     10  C   UNL     1      -9.767  25.163 150.407  0.00  0.00    +0.038 A 
ATOM     11  C   UNL     1      -8.422  25.528 150.148  0.00  0.00    +0.047 A 
ATOM     12  C   UNL     1      -7.445  25.617 151.222  0.00  0.00    +0.035 A 
ATOM     32  C   UNL     1      -7.873  25.323 152.550  0.00  0.00    +0.024 A 
ATOM     33  C   UNL     1      -9.238  24.951 152.832  0.00  0.00    +0.007 A 
ATOM     34  C   UNL     1     -10.206  24.865 151.776  0.00  0.00    -0.029 A 
ATOM     35  C   UNL     1     -11.656  24.468 152.137  0.00  0.00    +0.045 C 
ENDROOT
BRANCH  10   9
ATOM      4  C   UNL     1     -12.693  27.207 147.197  0.00  0.00    +0.077 A 
ATOM      5  C   UNL     1     -12.436  28.521 147.712  0.00  0.00    +0.048 A 
ATOM      6  C   UNL     1     -11.551  28.627 148.808  0.00  0.00    +0.116 A 
ATOM      7  N   UNL     1     -10.971  27.496 149.341  0.00  0.00    -0.223 NA
ATOM      8  C   UNL     1     -11.241  26.244 148.822  0.00  0.00    +0.220 A 
ATOM      9  N   UNL     1     -10.663  25.094 149.337  0.00  0.00    -0.283 N 
ATOM     36  H   UNL     1     -10.894  24.188 148.931  0.00  0.00    +0.155 HD
ATOM     37  N   UNL     1     -12.084  26.116 147.776  0.00  0.00    -0.214 NA
BRANCH   4   3
ATOM      1  C   UNL     1     -14.048  26.562 143.585  0.00  0.00    +0.020 A 
ATOM      2  C   UNL     1     -13.128  26.829 144.666  0.00  0.00    +0.013 A 
ATOM      3  C   UNL     1     -13.602  26.932 146.040  0.00  0.00    +0.019 A 
ATOM     38  C   UNL     1     -15.025  26.756 146.288  0.00  0.00    +0.120 A 
ATOM     39  N   UNL     1     -15.888  26.500 145.227  0.00  0.00    -0.263 NA
ATOM     40  C   UNL     1     -15.443  26.402 143.900  0.00  0.00    +0.111 A 
ENDBRANCH   4   3
ENDBRANCH  10   9
BRANCH  12  13
ATOM     13  N   UNL     1      -6.067  25.990 151.020  0.00  0.00    -0.281 N 
ATOM     14  C   UNL     1      -5.573  27.184 150.520  0.00  0.00    +0.248 C 
ATOM     30  O   UNL     1      -6.253  28.035 149.967  0.00  0.00    -0.270 OA
ATOM     31  H   UNL     1      -5.372  25.290 151.278  0.00  0.00    +0.155 HD
BRANCH  14  15
ATOM     15  C   UNL     1      -4.110  27.465 150.638  0.00  0.00    +0.037 A 
ATOM     16  C   UNL     1      -3.254  26.678 151.529  0.00  0.00    +0.013 A 
ATOM     17  C   UNL     1      -1.849  26.982 151.637  0.00  0.00    +0.005 A 
ATOM     18  C   UNL     1      -1.291  28.078 150.849  0.00  0.00    -0.033 A 
ATOM     28  C   UNL     1      -2.162  28.839 149.969  0.00  0.00    +0.005 A 
ATOM     29  C   UNL     1      -3.539  28.545 149.861  0.00  0.00    +0.013 A 
BRANCH  18  19
ATOM     19  C   UNL     1       0.193  28.486 150.917  0.00  0.00    +0.119 C 
BRANCH  19  20
ATOM     20  N   UNL     1       0.495  29.933 151.127  0.00  0.00    -0.302 NA
ATOM     21  C   UNL     1       1.034  30.599 149.858  0.00  0.00    +0.066 C 
ATOM     22  C   UNL     1       1.323  32.117 150.089  0.00  0.00    -0.064 C 
ATOM     23  N   UNL     1       2.313  32.274 151.245  0.00  0.00    +0.379 N 
ATOM     24  C   UNL     1       2.632  33.698 151.427  0.00  0.00    -0.096 C 
ATOM     25  H   UNL     1       3.254  31.751 150.956  0.00  0.00    -0.082 HD
ATOM     26  C   UNL     1       1.787  31.613 152.511  0.00  0.00    -0.064 C 
ATOM     27  C   UNL     1       1.475  30.111 152.261  0.00  0.00    +0.066 C 
ENDBRANCH  19  20
ENDBRANCH  18  19
ENDBRANCH  14  15
ENDBRANCH  12  13
TORSDOF 6
ENDMDL
MODEL 4
REMARK VINA RESULT:      -8.6      4.894     12.381
REMARK  Name = C:\Users\Docking\Desktop\test protocol\1iep_ligandH.pdb
REMARK  8 active torsions:
REMARK  status: ('A' for Active; 'I' for Inactive)
REMARK    1  A    between atoms: _5  and  _11
REMARK    2  A    between atoms: _19  and  _21
REMARK    3  A    between atoms: _22  and  _66
REMARK    4  A    between atoms: _27  and  _30
REMARK    5  A    between atoms: _32  and  _33
REMARK    6  A    between atoms: _38  and  _43
REMARK    7  A    between atoms: _43  and  _46
REMARK    8  A    between atoms: _53  and  _55
REMARK                            x       y       z     vdW  Elec       q    Type
REMARK                         _______ _______ _______ _____ _____    ______ ____
ROOT
ATOM     10  C   UNL     1       5.920  17.222 138.066  0.00  0.00    +0.038 A 
ATOM     11  C   UNL     1       4.840  17.046 138.968  0.00  0.00    +0.047 A 
ATOM     12  C   UNL     1       4.873  16.010 139.989  0.00  0.00    +0.035 A 
ATOM     32  C   UNL     1       6.024  15.172 140.064  0.00  0.00    +0.024 A 
ATOM     33  C   UNL     1       7.131  15.336 139.154  0.00  0.00    +0.007 A 
ATOM     34  C   UNL     1       7.102  16.355 138.144  0.00  0.00    -0.029 A 
ATOM     35  C   UNL     1       8.314  16.482 137.191  0.00  0.00    +0.045 C 
ENDROOT
BRANCH  10   9
ATOM      4  C   UNL     1       6.533  21.762 136.634  0.00  0.00    +0.077 A 
ATOM      5  C   UNL     1       7.040  22.160 137.916  0.00  0.00    +0.048 A 
ATOM      6  C   UNL     1       7.120  21.168 138.918  0.00  0.00    +0.116 A 
ATOM      7  N   UNL     1       6.721  19.877 138.648  0.00  0.00    -0.223 NA
ATOM      8  C   UNL     1       6.235  19.527 137.402  0.00  0.00    +0.220 A 
ATOM      9  N   UNL     1       5.836  18.233 137.106  0.00  0.00    -0.283 N 
ATOM     36  H   UNL     1       5.476  18.016 136.177  0.00  0.00    +0.155 HD
ATOM     37  N   UNL     1       6.147  20.456 136.428  0.00  0.00    -0.214 NA
BRANCH   4   3
ATOM      1  C   UNL     1       6.903  24.844 134.254  0.00  0.00    +0.020 A 
ATOM      2  C   UNL     1       7.074  23.980 135.399  0.00  0.00    +0.013 A 
ATOM      3  C   UNL     1       6.391  22.695 135.472  0.00  0.00    +0.019 A 
ATOM     38  C   UNL     1       5.535  22.310 134.359  0.00  0.00    +0.120 A 
ATOM     39  N   UNL     1       5.388  23.163 133.270  0.00  0.00    -0.263 NA
ATOM     40  C   UNL     1       6.040  24.403 133.190  0.00  0.00    +0.111 A 
ENDBRANCH   4   3
ENDBRANCH  10   9
BRANCH  12  13
ATOM     13  N   UNL     1       3.803  15.779 140.927  0.00  0.00    -0.281 N 
ATOM     14  C   UNL     1       2.986  14.665 141.029  0.00  0.00    +0.248 C 
ATOM     30  O   UNL     1       2.911  13.783 140.186  0.00  0.00    -0.270 OA
ATOM     31  H   UNL     1       3.627  16.527 141.598  0.00  0.00    +0.155 HD
BRANCH  14  15
ATOM     15  C   UNL     1       2.115  14.517 142.235  0.00  0.00    +0.037 A 
ATOM     16  C   UNL     1       2.294  15.371 143.411  0.00  0.00    +0.013 A 
ATOM     17  C   UNL     1       1.451  15.196 144.567  0.00  0.00    +0.005 A 
ATOM     18  C   UNL     1       0.420  14.161 144.552  0.00  0.00    -0.033 A 
ATOM     28  C   UNL     1       0.261  13.330 143.369  0.00  0.00    +0.005 A 
ATOM     29  C   UNL     1       1.086  13.499 142.235  0.00  0.00    +0.013 A 
BRANCH  18  19
ATOM     19  C   UNL     1      -0.511  13.889 145.749  0.00  0.00    +0.119 C 
BRANCH  19  20
ATOM     20  N   UNL     1      -1.976  13.815 145.472  0.00  0.00    -0.302 NA
ATOM     21  C   UNL     1      -2.794  14.609 146.494  0.00  0.00    +0.066 C 
ATOM     22  C   UNL     1      -4.324  14.539 146.177  0.00  0.00    -0.064 C 
ATOM     23  N   UNL     1      -4.769  13.076 146.146  0.00  0.00    +0.379 N 
ATOM     24  C   UNL     1      -6.218  13.009 145.906  0.00  0.00    -0.096 C 
ATOM     25  H   UNL     1      -4.573  12.642 147.154  0.00  0.00    -0.082 HD
ATOM     26  C   UNL     1      -3.959  12.278 145.134  0.00  0.00    -0.064 C 
ATOM     27  C   UNL     1      -2.438  12.379 145.441  0.00  0.00    +0.066 C 
ENDBRANCH  19  20
ENDBRANCH  18  19
ENDBRANCH  14  15
ENDBRANCH  12  13
TORSDOF 6
ENDMDL
MODEL 5
REMARK VINA RESULT:      -8.6      2.320     12.973
REMARK  Name = C:\Users\Docking\Desktop\test protocol\1iep_ligandH.pdb
REMARK  8 active torsions:
REMARK  status: ('A' for Active; 'I' for Inactive)
REMARK    1  A    between atoms: _5  and  _11
REMARK    2  A    between atoms: _19  and  _21
REMARK    3  A    between atoms: _22  and  _66
REMARK    4  A    between atoms: _27  and  _30
REMARK    5  A    between atoms: _32  and  _33
REMARK    6  A    between atoms: _38  and  _43
REMARK    7  A    between atoms: _43  and  _46
REMARK    8  A    between atoms: _53  and  _55
REMARK                            x       y       z     vdW  Elec       q    Type
REMARK                         _______ _______ _______ _____ _____    ______ ____
ROOT
ATOM     10  C   UNL     1       4.510  22.441 135.202  0.00  0.00    +0.038 A 
ATOM     11  C   UNL     1       4.431  21.238 135.949  0.00  0.00    +0.047 A 
ATOM     12  C   UNL     1       5.585  20.722 136.669  0.00  0.00    +0.035 A 
ATOM     32  C   UNL     1       6.803  21.459 136.608  0.00  0.00    +0.024 A 
ATOM     33  C   UNL     1       6.902  22.683 135.852  0.00  0.00    +0.007 A 
ATOM     34  C   UNL     1       5.767  23.195 135.138  0.00  0.00    -0.029 A 
ATOM     35  C   UNL     1       5.932  24.509 134.340  0.00  0.00    +0.045 C 
ENDROOT
BRANCH  10   9
ATOM      4  C   UNL     1       1.576  22.481 131.404  0.00  0.00    +0.077 A 
ATOM      5  C   UNL     1       2.396  21.548 130.686  0.00  0.00    +0.048 A 
ATOM      6  C   UNL     1       3.568  21.087 131.327  0.00  0.00    +0.116 A 
ATOM      7  N   UNL     1       3.886  21.533 132.591  0.00  0.00    -0.223 NA
ATOM      8  C   UNL     1       3.074  22.435 133.255  0.00  0.00    +0.220 A 
ATOM      9  N   UNL     1       3.371  22.890 134.530  0.00  0.00    -0.283 N 
ATOM     36  H   UNL     1       2.750  23.561 134.983  0.00  0.00    +0.155 HD
ATOM     37  N   UNL     1       1.950  22.891 132.664  0.00  0.00    -0.214 NA
BRANCH   4   3
ATOM      1  C   UNL     1      -1.019  24.876 129.720  0.00  0.00    +0.020 A 
ATOM      2  C   UNL     1       0.235  24.367 130.228  0.00  0.00    +0.013 A 
ATOM      3  C   UNL     1       0.304  23.056 130.861  0.00  0.00    +0.019 A 
ATOM     38  C   UNL     1      -0.922  22.279 130.966  0.00  0.00    +0.120 A 
ATOM     39  N   UNL     1      -2.114  22.796 130.469  0.00  0.00    -0.263 NA
ATOM     40  C   UNL     1      -2.194  24.057 129.859  0.00  0.00    +0.111 A 
ENDBRANCH   4   3
ENDBRANCH  10   9
BRANCH  12  13
ATOM     13  N   UNL     1       5.567  19.502 137.437  0.00  0.00    -0.281 N 
ATOM     14  C   UNL     1       5.593  18.199 136.967  0.00  0.00    +0.248 C 
ATOM     30  O   UNL     1       5.419  17.882 135.800  0.00  0.00    -0.270 OA
ATOM     31  H   UNL     1       5.530  19.612 138.451  0.00  0.00    +0.155 HD
BRANCH  14  15
ATOM     15  C   UNL     1       5.832  17.087 137.936  0.00  0.00    +0.037 A 
ATOM     16  C   UNL     1       7.029  16.247 137.849  0.00  0.00    +0.013 A 
ATOM     17  C   UNL     1       7.226  15.169 138.786  0.00  0.00    +0.005 A 
ATOM     18  C   UNL     1       6.224  14.927 139.820  0.00  0.00    -0.033 A 
ATOM     28  C   UNL     1       5.048  15.779 139.888  0.00  0.00    +0.005 A 
ATOM     29  C   UNL     1       4.851  16.835 138.970  0.00  0.00    +0.013 A 
BRANCH  18  19
ATOM     19  C   UNL     1       6.342  13.787 140.849  0.00  0.00    +0.119 C 
BRANCH  19  20
ATOM     20  N   UNL     1       7.272  13.997 141.999  0.00  0.00    -0.302 NA
ATOM     21  C   UNL     1       7.914  12.687 142.466  0.00  0.00    +0.066 C 
ATOM     22  C   UNL     1       8.900  12.929 143.654  0.00  0.00    -0.064 C 
ATOM     23  N   UNL     1       8.152  13.606 144.804  0.00  0.00    +0.379 N 
ATOM     24  C   UNL     1       9.063  13.782 145.945  0.00  0.00    -0.096 C 
ATOM     25  H   UNL     1       7.335  12.919 145.126  0.00  0.00    -0.082 HD
ATOM     26  C   UNL     1       7.509  14.908 144.348  0.00  0.00    -0.064 C 
ATOM     27  C   UNL     1       6.553  14.661 143.148  0.00  0.00    +0.066 C 
ENDBRANCH  19  20
ENDBRANCH  18  19
ENDBRANCH  14  15
ENDBRANCH  12  13
TORSDOF 6
ENDMDL
