MODEL 1
REMARK VINA RESULT:     -10.3      0.000      0.000
REMARK  Name = C:\Users\Docking\Desktop\test protocol\1iep_ligandH.pdb
REMARK  8 active torsions:
REMARK  status: ('A' for Active; 'I' for Inactive)
REMARK    1  A    between atoms: _5  and  _11
REMARK    2  A    between atoms: _19  and  _21
REMARK    3  A    between atoms: _22  and  _66
REMARK    4  A    between atoms: _27  and  _30
REMARK    5  A    between atoms: _32  and  _33
REMARK    6  A    between atoms: _38  and  _43
REMARK    7  A    between atoms: _43  and  _46
REMARK    8  A    between atoms: _53  and  _55
REMARK                            x       y       z     vdW  Elec       q    Type
REMARK                         _______ _______ _______ _____ _____    ______ ____
ROOT
ATOM     10  C   UNL     1       5.594  21.921 136.359  0.00  0.00    +0.038 A 
ATOM     11  C   UNL     1       5.345  20.701 137.038  0.00  0.00    +0.047 A 
ATOM     12  C   UNL     1       6.295  20.167 138.001  0.00  0.00    +0.035 A 
ATOM     32  C   UNL     1       7.490  20.904 138.251  0.00  0.00    +0.024 A 
ATOM     33  C   UNL     1       7.760  22.146 137.569  0.00  0.00    +0.007 A 
ATOM     34  C   UNL     1       6.827  22.676 136.616  0.00  0.00    -0.029 A 
ATOM     35  C   UNL     1       7.172  24.008 135.910  0.00  0.00    +0.045 C 
ENDROOT
BRANCH  10   9
ATOM      4  C   UNL     1       3.776  22.214 131.927  0.00  0.00    +0.077 A 
ATOM      5  C   UNL     1       4.817  21.391 131.382  0.00  0.00    +0.048 A 
ATOM      6  C   UNL     1       5.805  20.918 132.275  0.00  0.00    +0.116 A 
ATOM      7  N   UNL     1       5.747  21.250 133.611  0.00  0.00    -0.223 NA
ATOM      8  C   UNL     1       4.730  22.047 134.103  0.00  0.00    +0.220 A 
ATOM      9  N   UNL     1       4.647  22.387 135.445  0.00  0.00    -0.283 N 
ATOM     36  H   UNL     1       3.885  22.984 135.768  0.00  0.00    +0.155 HD
ATOM     37  N   UNL     1       3.775  22.513 133.271  0.00  0.00    -0.214 NA
BRANCH   4   3
ATOM      1  C   UNL     1       1.767  24.193 129.217  0.00  0.00    +0.020 A 
ATOM      2  C   UNL     1       2.881  23.667 129.972  0.00  0.00    +0.013 A 
ATOM      3  C   UNL     1       2.659  22.787 131.112  0.00  0.00    +0.019 A 
ATOM     38  C   UNL     1       1.287  22.455 131.464  0.00  0.00    +0.120 A 
ATOM     39  N   UNL     1       0.234  22.978 130.720  0.00  0.00    -0.263 NA
ATOM     40  C   UNL     1       0.435  23.827 129.622  0.00  0.00    +0.111 A 
ENDBRANCH   4   3
ENDBRANCH  10   9
BRANCH  12  13
ATOM     13  N   UNL     1       6.100  18.930 138.714  0.00  0.00    -0.281 N 
ATOM     14  C   UNL     1       6.390  17.645 138.286  0.00  0.00    +0.248 C 
ATOM     30  O   UNL     1       6.665  17.346 137.133  0.00  0.00    -0.270 OA
ATOM     31  H   UNL     1       5.699  19.011 139.649  0.00  0.00    +0.155 HD
BRANCH  14  15
ATOM     15  C   UNL     1       6.355  16.527 139.278  0.00  0.00    +0.037 A 
ATOM     16  C   UNL     1       5.760  16.708 140.605  0.00  0.00    +0.013 A 
ATOM     17  C   UNL     1       5.754  15.618 141.549  0.00  0.00    +0.005 A 
ATOM     18  C   UNL     1       6.345  14.338 141.168  0.00  0.00    -0.033 A 
ATOM     28  C   UNL     1       6.924  14.185 139.844  0.00  0.00    +0.005 A 
ATOM     29  C   UNL     1       6.932  15.250 138.916  0.00  0.00    +0.013 A 
BRANCH  18  19
ATOM     19  C   UNL     1       6.402  13.128 142.119  0.00  0.00    +0.119 C 
BRANCH  19  20
ATOM     20  N   UNL     1       6.903  13.370 143.505  0.00  0.00    -0.302 NA
ATOM     21  C   UNL     1       6.195  14.552 144.173  0.00  0.00    +0.066 C 
ATOM     22  C   UNL     1       6.715  14.777 145.630  0.00  0.00    -0.064 C 
ATOM     23  N   UNL     1       8.228  15.000 145.600  0.00  0.00    +0.379 N 
ATOM     24  C   UNL     1       8.712  15.269 146.962  0.00  0.00    -0.096 C 
ATOM     25  H   UNL     1       8.424  15.909 144.985  0.00  0.00    -0.082 HD
ATOM     26  C   UNL     1       8.940  13.830 144.935  0.00  0.00    -0.064 C 
ATOM     27  C   UNL     1       8.395  13.596 143.498  0.00  0.00    +0.066 C 
ENDBRANCH  19  20
ENDBRANCH  18  19
ENDBRANCH  14  15
ENDBRANCH  12  13
TORSDOF 6
ENDMDL
MODEL 2
REMARK VINA RESULT:     -10.3      2.309     12.798
REMARK  Name = C:\Users\Docking\Desktop\test protocol\1iep_ligandH.pdb
REMARK  8 active torsions:
REMARK  status: ('A' for Active; 'I' for Inactive)
REMARK    1  A    between atoms: _5  and  _11
REMARK    2  A    between atoms: _19  and  _21
REMARK    3  A    between atoms: _22  and  _66
REMARK    4  A    between atoms: _27  and  _30
REMARK    5  A    between atoms: _32  and  _33
REMARK    6  A    between atoms: _38  and  _43
REMARK    7  A    between atoms: _43  and  _46
REMARK    8  A    between atoms: _53  and  _55
REMARK                            x       y       z     vdW  Elec       q    Type
REMARK                         _______ _______ _______ _____ _____    ______ ____
ROOT
ATOM     10  C   UNL     1       6.931  18.649 137.355  0.00  0.00    +0.038 A 
ATOM     11  C   UNL     1       5.966  19.411 136.648  0.00  0.00    +0.047 A 
ATOM     12  C   UNL     1       6.183  19.803 135.264  0.00  0.00    +0.035 A 
ATOM     32  C   UNL     1       7.393  19.400 134.630  0.00  0.00    +0.024 A 
ATOM     33  C   UNL     1       8.386  18.626 135.333  0.00  0.00    +0.007 A 
ATOM     34  C   UNL     1       8.178  18.238 136.699  0.00  0.00    -0.029 A 
ATOM     35  C   UNL     1       9.279  17.414 137.406  0.00  0.00    +0.045 C 
ENDROOT
BRANCH  10   9
ATOM      4  C   UNL     1       5.406  15.562 140.699  0.00  0.00    +0.077 A 
ATOM      5  C   UNL     1       5.073  14.571 139.716  0.00  0.00    +0.048 A 
ATOM      6  C   UNL     1       5.303  14.898 138.361  0.00  0.00    +0.116 A 
ATOM      7  N   UNL     1       5.828  16.127 138.025  0.00  0.00    -0.223 NA
ATOM      8  C   UNL     1       6.136  17.061 138.997  0.00  0.00    +0.220 A 
ATOM      9  N   UNL     1       6.671  18.300 138.682  0.00  0.00    -0.283 N 
ATOM     36  H   UNL     1       6.878  18.964 139.428  0.00  0.00    +0.155 HD
ATOM     37  N   UNL     1       5.924  16.774 140.298  0.00  0.00    -0.214 NA
BRANCH   4   3
ATOM      1  C   UNL     1       6.110  15.065 144.514  0.00  0.00    +0.020 A 
ATOM      2  C   UNL     1       6.341  15.254 143.100  0.00  0.00    +0.013 A 
ATOM      3  C   UNL     1       5.223  15.365 142.171  0.00  0.00    +0.019 A 
ATOM     38  C   UNL     1       3.874  15.279 142.709  0.00  0.00    +0.120 A 
ATOM     39  N   UNL     1       3.682  15.095 144.075  0.00  0.00    -0.263 NA
ATOM     40  C   UNL     1       4.750  14.986 144.978  0.00  0.00    +0.111 A 
ENDBRANCH   4   3
ENDBRANCH  10   9
BRANCH  12  13
ATOM     13  N   UNL     1       5.242  20.584 134.499  0.00  0.00    -0.281 N 
ATOM     14  C   UNL     1       5.385  21.885 134.045  0.00  0.00    +0.248 C 
ATOM     30  O   UNL     1       6.262  22.653 134.414  0.00  0.00    -0.270 OA
ATOM     31  H   UNL     1       4.364  20.121 134.263  0.00  0.00    +0.155 HD
BRANCH  14  15
ATOM     15  C   UNL     1       4.405  22.414 133.049  0.00  0.00    +0.037 A 
ATOM     16  C   UNL     1       4.330  21.867 131.692  0.00  0.00    +0.013 A 
ATOM     17  C   UNL     1       3.386  22.407 130.746  0.00  0.00    +0.005 A 
ATOM     18  C   UNL     1       2.509  23.502 131.154  0.00  0.00    -0.033 A 
ATOM     28  C   UNL     1       2.601  24.022 132.508  0.00  0.00    +0.005 A 
ATOM     29  C   UNL     1       3.525  23.496 133.438  0.00  0.00    +0.013 A 
BRANCH  18  19
ATOM     19  C   UNL     1       1.487  24.154 130.204  0.00  0.00    +0.119 C 
BRANCH  19  20
ATOM     20  N   UNL     1       0.222  23.405 129.943  0.00  0.00    -0.302 NA
ATOM     21  C   UNL     1      -0.977  24.343 129.776  0.00  0.00    +0.066 C 
ATOM     22  C   UNL     1      -2.288  23.545 129.482  0.00  0.00    -0.064 C 
ATOM     23  N   UNL     1      -2.537  22.544 130.611  0.00  0.00    +0.379 N 
ATOM     24  C   UNL     1      -3.800  21.832 130.366  0.00  0.00    -0.096 C 
ATOM     25  H   UNL     1      -2.653  23.123 131.556  0.00  0.00    -0.082 HD
ATOM     26  C   UNL     1      -1.349  21.609 130.785  0.00  0.00    -0.064 C 
ATOM     27  C   UNL     1      -0.046  22.414 131.049  0.00  0.00    +0.066 C 
ENDBRANCH  19  20
ENDBRANCH  18  19
ENDBRANCH  14  15
ENDBRANCH  12  13
TORSDOF 6
ENDMDL
MODEL 3
REMARK VINA RESULT:      -9.9      2.715     12.734
REMARK  Name = C:\Users\Docking\Desktop\test protocol\1iep_ligandH.pdb
REMARK  8 active torsions:
REMARK  status: ('A' for Active; 'I' for Inactive)
REMARK    1  A    between atoms: _5  and  _11
REMARK    2  A    between atoms: _19  and  _21
REMARK    3  A    between atoms: _22  and  _66
REMARK    4  A    between atoms: _27  and  _30
REMARK    5  A    between atoms: _32  and  _33
REMARK    6  A    between atoms: _38  and  _43
REMARK    7  A    between atoms: _43  and  _46
REMARK    8  A    between atoms: _53  and  _55
REMARK                            x       y       z     vdW  Elec       q    Type
REMARK                         _______ _______ _______ _____ _____    ______ ____
ROOT
ATOM     10  C   UNL     1       5.435  21.477 137.469  0.00  0.00    +0.038 A 
ATOM     11  C   UNL     1       4.557  21.670 136.371  0.00  0.00    +0.047 A 
ATOM     12  C   UNL     1       4.623  22.873 135.557  0.00  0.00    +0.035 A 
ATOM     32  C   UNL     1       5.597  23.860 135.887  0.00  0.00    +0.024 A 
ATOM     33  C   UNL     1       6.496  23.681 137.000  0.00  0.00    +0.007 A 
ATOM     34  C   UNL     1       6.434  22.497 137.809  0.00  0.00    -0.029 A 
ATOM     35  C   UNL     1       7.419  22.362 138.994  0.00  0.00    +0.045 C 
ENDROOT
BRANCH  10   9
ATOM      4  C   UNL     1       6.787  16.996 138.528  0.00  0.00    +0.077 A 
ATOM      5  C   UNL     1       7.773  16.984 137.485  0.00  0.00    +0.048 A 
ATOM      6  C   UNL     1       7.895  18.148 136.694  0.00  0.00    +0.116 A 
ATOM      7  N   UNL     1       7.087  19.238 136.937  0.00  0.00    -0.223 NA
ATOM      8  C   UNL     1       6.145  19.216 137.950  0.00  0.00    +0.220 A 
ATOM      9  N   UNL     1       5.328  20.303 138.217  0.00  0.00    -0.283 N 
ATOM     36  H   UNL     1       4.640  20.244 138.968  0.00  0.00    +0.155 HD
ATOM     37  N   UNL     1       6.008  18.115 138.718  0.00  0.00    -0.214 NA
BRANCH   4   3
ATOM      1  C   UNL     1       6.255  14.836 141.745  0.00  0.00    +0.020 A 
ATOM      2  C   UNL     1       6.497  15.982 140.900  0.00  0.00    +0.013 A 
ATOM      3  C   UNL     1       6.541  15.842 139.450  0.00  0.00    +0.019 A 
ATOM     38  C   UNL     1       6.334  14.518 138.883  0.00  0.00    +0.120 A 
ATOM     39  N   UNL     1       6.104  13.432 139.722  0.00  0.00    -0.263 NA
ATOM     40  C   UNL     1       6.061  13.555 141.119  0.00  0.00    +0.111 A 
ENDBRANCH   4   3
ENDBRANCH  10   9
BRANCH  12  13
ATOM     13  N   UNL     1       3.753  23.127 134.435  0.00  0.00    -0.281 N 
ATOM     14  C   UNL     1       3.781  22.533 133.184  0.00  0.00    +0.248 C 
ATOM     30  O   UNL     1       4.699  21.841 132.768  0.00  0.00    -0.270 OA
ATOM     31  H   UNL     1       3.029  23.830 134.581  0.00  0.00    +0.155 HD
BRANCH  14  15
ATOM     15  C   UNL     1       2.630  22.750 132.256  0.00  0.00    +0.037 A 
ATOM     16  C   UNL     1       2.609  23.878 131.322  0.00  0.00    +0.013 A 
ATOM     17  C   UNL     1       1.478  24.074 130.450  0.00  0.00    +0.005 A 
ATOM     18  C   UNL     1       0.359  23.137 130.507  0.00  0.00    -0.033 A 
ATOM     28  C   UNL     1       0.408  22.023 131.439  0.00  0.00    +0.005 A 
ATOM     29  C   UNL     1       1.514  21.828 132.296  0.00  0.00    +0.013 A 
BRANCH  18  19
ATOM     19  C   UNL     1      -0.898  23.280 129.628  0.00  0.00    +0.119 C 
BRANCH  19  20
ATOM     20  N   UNL     1      -1.779  22.083 129.494  0.00  0.00    -0.302 NA
ATOM     21  C   UNL     1      -2.060  21.736 128.029  0.00  0.00    +0.066 C 
ATOM     22  C   UNL     1      -2.965  20.467 127.908  0.00  0.00    -0.064 C 
ATOM     23  N   UNL     1      -4.271  20.701 128.668  0.00  0.00    +0.379 N 
ATOM     24  C   UNL     1      -5.149  19.532 128.508  0.00  0.00    -0.096 C 
ATOM     25  H   UNL     1      -4.782  21.575 128.202  0.00  0.00    -0.082 HD
ATOM     26  C   UNL     1      -4.001  21.049 130.126  0.00  0.00    -0.064 C 
ATOM     27  C   UNL     1      -3.077  22.294 130.235  0.00  0.00    +0.066 C 
ENDBRANCH  19  20
ENDBRANCH  18  19
ENDBRANCH  14  15
ENDBRANCH  12  13
TORSDOF 6
ENDMDL
MODEL 4
REMARK VINA RESULT:      -9.8      7.009     11.252
REMARK  Name = C:\Users\Docking\Desktop\test protocol\1iep_ligandH.pdb
REMARK  8 active torsions:
REMARK  status: ('A' for Active; 'I' for Inactive)
REMARK    1  A    between atoms: _5  and  _11
REMARK    2  A    between atoms: _19  and  _21
REMARK    3  A    between atoms: _22  and  _66
REMARK    4  A    between atoms: _27  and  _30
REMARK    5  A    between atoms: _32  and  _33
REMARK    6  A    between atoms: _38  and  _43
REMARK    7  A    between atoms: _43  and  _46
REMARK    8  A    between atoms: _53  and  _55
REMARK                            x       y       z     vdW  Elec       q    Type
REMARK                         _______ _______ _______ _____ _____    ______ ____
ROOT
ATOM     10  C   UNL     1       5.938  15.298 143.912  0.00  0.00    +0.038 A 
ATOM     11  C   UNL     1       4.558  15.367 144.234  0.00  0.00    +0.047 A 
ATOM     12  C   UNL     1       4.073  14.981 145.550  0.00  0.00    +0.035 A 
ATOM     32  C   UNL     1       5.021  14.533 146.515  0.00  0.00    +0.024 A 
ATOM     33  C   UNL     1       6.427  14.456 146.205  0.00  0.00    +0.007 A 
ATOM     34  C   UNL     1       6.911  14.833 144.908  0.00  0.00    -0.029 A 
ATOM     35  C   UNL     1       8.428  14.725 144.628  0.00  0.00    +0.045 C 
ENDROOT
BRANCH  10   9
ATOM      4  C   UNL     1       6.326  14.543 139.188  0.00  0.00    +0.077 A 
ATOM      5  C   UNL     1       5.678  13.266 139.279  0.00  0.00    +0.048 A 
ATOM      6  C   UNL     1       5.267  12.837 140.561  0.00  0.00    +0.116 A 
ATOM      7  N   UNL     1       5.491  13.634 141.663  0.00  0.00    -0.223 NA
ATOM      8  C   UNL     1       6.120  14.860 141.540  0.00  0.00    +0.220 A 
ATOM      9  N   UNL     1       6.349  15.681 142.633  0.00  0.00    -0.283 N 
ATOM     36  H   UNL     1       6.823  16.574 142.502  0.00  0.00    +0.155 HD
ATOM     37  N   UNL     1       6.524  15.291 140.327  0.00  0.00    -0.214 NA
BRANCH   4   3
ATOM      1  C   UNL     1       7.070  15.131 135.393  0.00  0.00    +0.020 A 
ATOM      2  C   UNL     1       6.577  14.518 136.605  0.00  0.00    +0.013 A 
ATOM      3  C   UNL     1       6.815  15.136 137.903  0.00  0.00    +0.019 A 
ATOM     38  C   UNL     1       7.560  16.385 137.941  0.00  0.00    +0.120 A 
ATOM     39  N   UNL     1       8.025  16.951 136.758  0.00  0.00    -0.263 NA
ATOM     40  C   UNL     1       7.803  16.365 135.503  0.00  0.00    +0.111 A 
ENDBRANCH   4   3
ENDBRANCH  10   9
BRANCH  12  13
ATOM     13  N   UNL     1       2.683  15.022 145.931  0.00  0.00    -0.281 N 
ATOM     14  C   UNL     1       1.572  14.848 145.122  0.00  0.00    +0.248 C 
ATOM     30  O   UNL     1       1.601  14.843 143.900  0.00  0.00    -0.270 OA
ATOM     31  H   UNL     1       2.495  15.200 146.918  0.00  0.00    +0.155 HD
BRANCH  14  15
ATOM     15  C   UNL     1       0.233  14.668 145.762  0.00  0.00    +0.037 A 
ATOM     16  C   UNL     1      -0.984  15.195 145.139  0.00  0.00    +0.013 A 
ATOM     17  C   UNL     1      -2.260  15.023 145.786  0.00  0.00    +0.005 A 
ATOM     18  C   UNL     1      -2.326  14.318 147.064  0.00  0.00    -0.033 A 
ATOM     28  C   UNL     1      -1.104  13.800 147.657  0.00  0.00    +0.005 A 
ATOM     29  C   UNL     1       0.149  13.968 147.026  0.00  0.00    +0.013 A 
BRANCH  18  19
ATOM     19  C   UNL     1      -3.642  14.106 147.835  0.00  0.00    +0.119 C 
BRANCH  19  20
ATOM     20  N   UNL     1      -3.648  14.458 149.287  0.00  0.00    -0.302 NA
ATOM     21  C   UNL     1      -4.847  13.851 150.020  0.00  0.00    +0.066 C 
ATOM     22  C   UNL     1      -4.826  14.211 151.541  0.00  0.00    -0.064 C 
ATOM     23  N   UNL     1      -4.806  15.732 151.703  0.00  0.00    +0.379 N 
ATOM     24  C   UNL     1      -4.844  16.074 153.132  0.00  0.00    -0.096 C 
ATOM     25  H   UNL     1      -5.734  16.134 151.233  0.00  0.00    -0.082 HD
ATOM     26  C   UNL     1      -3.618  16.344 150.974  0.00  0.00    -0.064 C 
ATOM     27  C   UNL     1      -3.633  15.956 149.469  0.00  0.00    +0.066 C 
ENDBRANCH  19  20
ENDBRANCH  18  19
ENDBRANCH  14  15
ENDBRANCH  12  13
TORSDOF 6
ENDMDL
MODEL 5
REMARK VINA RESULT:      -9.7      4.013     12.359
REMARK  Name = C:\Users\Docking\Desktop\test protocol\1iep_ligandH.pdb
REMARK  8 active torsions:
REMARK  status: ('A' for Active; 'I' for Inactive)
REMARK    1  A    between atoms: _5  and  _11
REMARK    2  A    between atoms: _19  and  _21
REMARK    3  A    between atoms: _22  and  _66
REMARK    4  A    between atoms: _27  and  _30
REMARK    5  A    between atoms: _32  and  _33
REMARK    6  A    between atoms: _38  and  _43
REMARK    7  A    between atoms: _43  and  _46
REMARK    8  A    between atoms: _53  and  _55
REMARK                            x       y       z     vdW  Elec       q    Type
REMARK                         _______ _______ _______ _____ _____    ______ ____
ROOT
ATOM     10  C   UNL     1       4.357  14.910 140.709  0.00  0.00    +0.038 A 
ATOM     11  C   UNL     1       4.552  16.236 140.245  0.00  0.00    +0.047 A 
ATOM     12  C   UNL     1       5.852  16.684 139.772  0.00  0.00    +0.035 A 
ATOM     32  C   UNL     1       6.932  15.754 139.783  0.00  0.00    +0.024 A 
ATOM     33  C   UNL     1       6.752  14.403 140.252  0.00  0.00    +0.007 A 
ATOM     34  C   UNL     1       5.473  13.956 140.722  0.00  0.00    -0.029 A 
ATOM     35  C   UNL     1       5.339  12.498 141.220  0.00  0.00    +0.045 C 
ENDROOT
BRANCH  10   9
ATOM      4  C   UNL     1       1.008  14.524 144.126  0.00  0.00    +0.077 A 
ATOM      5  C   UNL     1       1.870  15.098 145.118  0.00  0.00    +0.048 A 
ATOM      6  C   UNL     1       3.170  15.472 144.711  0.00  0.00    +0.116 A 
ATOM      7  N   UNL     1       3.567  15.283 143.405  0.00  0.00    -0.223 NA
ATOM      8  C   UNL     1       2.711  14.725 142.473  0.00  0.00    +0.220 A 
ATOM      9  N   UNL     1       3.087  14.533 141.152  0.00  0.00    -0.283 N 
ATOM     36  H   UNL     1       2.429  14.112 140.497  0.00  0.00    +0.155 HD
ATOM     37  N   UNL     1       1.465  14.358 142.837  0.00  0.00    -0.214 NA
BRANCH   4   3
ATOM      1  C   UNL     1      -2.573  14.212 145.668  0.00  0.00    +0.020 A 
ATOM      2  C   UNL     1      -1.224  14.676 145.442  0.00  0.00    +0.013 A 
ATOM      3  C   UNL     1      -0.396  14.081 144.401  0.00  0.00    +0.019 A 
ATOM     38  C   UNL     1      -0.968  13.011 143.598  0.00  0.00    +0.120 A 
ATOM     39  N   UNL     1      -2.270  12.584 143.839  0.00  0.00    -0.263 NA
ATOM     40  C   UNL     1      -3.076  13.147 144.839  0.00  0.00    +0.111 A 
ENDBRANCH   4   3
ENDBRANCH  10   9
BRANCH  12  13
ATOM     13  N   UNL     1       6.112  18.021 139.297  0.00  0.00    -0.281 N 
ATOM     14  C   UNL     1       6.635  18.403 138.073  0.00  0.00    +0.248 C 
ATOM     30  O   UNL     1       7.161  17.639 137.277  0.00  0.00    -0.270 OA
ATOM     31  H   UNL     1       5.882  18.777 139.942  0.00  0.00    +0.155 HD
BRANCH  14  15
ATOM     15  C   UNL     1       6.578  19.844 137.681  0.00  0.00    +0.037 A 
ATOM     16  C   UNL     1       7.800  20.609 137.421  0.00  0.00    +0.013 A 
ATOM     17  C   UNL     1       7.718  22.003 137.062  0.00  0.00    +0.005 A 
ATOM     18  C   UNL     1       6.407  22.640 136.959  0.00  0.00    -0.033 A 
ATOM     28  C   UNL     1       5.211  21.856 137.218  0.00  0.00    +0.005 A 
ATOM     29  C   UNL     1       5.288  20.490 137.571  0.00  0.00    +0.013 A 
BRANCH  18  19
ATOM     19  C   UNL     1       6.226  24.127 136.602  0.00  0.00    +0.119 C 
BRANCH  19  20
ATOM     20  N   UNL     1       5.808  24.449 135.205  0.00  0.00    -0.302 NA
ATOM     21  C   UNL     1       4.629  23.587 134.745  0.00  0.00    +0.066 C 
ATOM     22  C   UNL     1       4.191  23.952 133.290  0.00  0.00    -0.064 C 
ATOM     23  N   UNL     1       5.382  23.789 132.345  0.00  0.00    +0.379 N 
ATOM     24  C   UNL     1       4.959  24.076 130.966  0.00  0.00    -0.096 C 
ATOM     25  H   UNL     1       5.702  22.722 132.385  0.00  0.00    -0.082 HD
ATOM     26  C   UNL     1       6.560  24.641 132.796  0.00  0.00    -0.064 C 
ATOM     27  C   UNL     1       6.969  24.290 134.254  0.00  0.00    +0.066 C 
ENDBRANCH  19  20
ENDBRANCH  18  19
ENDBRANCH  14  15
ENDBRANCH  12  13
TORSDOF 6
ENDMDL
