MODEL 1
REMARK VINA RESULT:      -8.7      0.000      0.000
REMARK  Name = C:\Users\Docking\Desktop\test protocol\1iep_ligandH.pdb
REMARK  8 active torsions:
REMARK  status: ('A' for Active; 'I' for Inactive)
REMARK    1  A    between atoms: _5  and  _11
REMARK    2  A    between atoms: _19  and  _21
REMARK    3  A    between atoms: _22  and  _66
REMARK    4  A    between atoms: _27  and  _30
REMARK    5  A    between atoms: _32  and  _33
REMARK    6  A    between atoms: _38  and  _43
REMARK    7  A    between atoms: _43  and  _46
REMARK    8  A    between atoms: _53  and  _55
REMARK                            x       y       z     vdW  Elec       q    Type
REMARK                         _______ _______ _______ _____ _____    ______ ____
ROOT
ATOM     10  C   UNL     1     -16.249  33.970  30.343  0.00  0.00    +0.038 A 
ATOM     11  C   UNL     1     -17.104  34.747  29.520  0.00  0.00    +0.047 A 
ATOM     12  C   UNL     1     -17.976  35.763  30.088  0.00  0.00    +0.035 A 
ATOM     32  C   UNL     1     -17.949  35.964  31.499  0.00  0.00    +0.024 A 
ATOM     33  C   UNL     1     -17.087  35.183  32.350  0.00  0.00    +0.007 A 
ATOM     34  C   UNL     1     -16.227  34.177  31.796  0.00  0.00    -0.029 A 
ATOM     35  C   UNL     1     -15.329  33.365  32.757  0.00  0.00    +0.045 C 
ENDROOT
BRANCH  10   9
ATOM      4  C   UNL     1     -15.218  29.431  29.171  0.00  0.00    +0.077 A 
ATOM      5  C   UNL     1     -16.390  28.932  29.831  0.00  0.00    +0.048 A 
ATOM      6  C   UNL     1     -17.229  29.876  30.465  0.00  0.00    +0.116 A 
ATOM      7  N   UNL     1     -16.909  31.216  30.436  0.00  0.00    -0.223 NA
ATOM      8  C   UNL     1     -15.770  31.663  29.793  0.00  0.00    +0.220 A 
ATOM      9  N   UNL     1     -15.433  33.007  29.744  0.00  0.00    -0.283 N 
ATOM     36  H   UNL     1     -14.580  33.297  29.266  0.00  0.00    +0.155 HD
ATOM     37  N   UNL     1     -14.952  30.782  29.180  0.00  0.00    -0.214 NA
BRANCH   4   3
ATOM      1  C   UNL     1     -12.756  26.522  28.288  0.00  0.00    +0.020 A 
ATOM      2  C   UNL     1     -13.703  27.328  29.024  0.00  0.00    +0.013 A 
ATOM      3  C   UNL     1     -14.235  28.559  28.453  0.00  0.00    +0.019 A 
ATOM     38  C   UNL     1     -13.787  28.948  27.124  0.00  0.00    +0.120 A 
ATOM     39  N   UNL     1     -12.873  28.152  26.440  0.00  0.00    -0.263 NA
ATOM     40  C   UNL     1     -12.353  26.967  26.980  0.00  0.00    +0.111 A 
ENDBRANCH   4   3
ENDBRANCH  10   9
BRANCH  12  13
ATOM     13  N   UNL     1     -18.871  36.577  29.303  0.00  0.00    -0.281 N 
ATOM     14  C   UNL     1     -18.711  37.901  28.929  0.00  0.00    +0.248 C 
ATOM     30  O   UNL     1     -17.870  38.655  29.396  0.00  0.00    -0.270 OA
ATOM     31  H   UNL     1     -19.726  36.121  28.984  0.00  0.00    +0.155 HD
BRANCH  14  15
ATOM     15  C   UNL     1     -19.628  38.476  27.899  0.00  0.00    +0.037 A 
ATOM     16  C   UNL     1     -21.030  38.058  27.810  0.00  0.00    +0.013 A 
ATOM     17  C   UNL     1     -21.888  38.616  26.796  0.00  0.00    +0.005 A 
ATOM     18  C   UNL     1     -21.347  39.600  25.861  0.00  0.00    -0.033 A 
ATOM     28  C   UNL     1     -19.955  40.001  25.975  0.00  0.00    +0.005 A 
ATOM     29  C   UNL     1     -19.110  39.456  26.968  0.00  0.00    +0.013 A 
BRANCH  18  19
ATOM     19  C   UNL     1     -22.185  40.232  24.734  0.00  0.00    +0.119 C 
BRANCH  19  20
ATOM     20  N   UNL     1     -22.445  41.701  24.816  0.00  0.00    -0.302 NA
ATOM     21  C   UNL     1     -23.004  42.110  26.181  0.00  0.00    +0.066 C 
ATOM     22  C   UNL     1     -23.249  43.652  26.258  0.00  0.00    -0.064 C 
ATOM     23  N   UNL     1     -24.200  44.071  25.135  0.00  0.00    +0.379 N 
ATOM     24  C   UNL     1     -24.478  45.511  25.239  0.00  0.00    -0.096 C 
ATOM     25  H   UNL     1     -25.162  43.528  25.287  0.00  0.00    -0.082 HD
ATOM     26  C   UNL     1     -23.652  43.665  23.774  0.00  0.00    -0.064 C 
ATOM     27  C   UNL     1     -23.385  42.135  23.719  0.00  0.00    +0.066 C 
ENDBRANCH  19  20
ENDBRANCH  18  19
ENDBRANCH  14  15
ENDBRANCH  12  13
TORSDOF 6
ENDMDL
MODEL 2
REMARK VINA RESULT:      -8.6      1.730      2.655
REMARK  Name = C:\Users\Docking\Desktop\test protocol\1iep_ligandH.pdb
REMARK  8 active torsions:
REMARK  status: ('A' for Active; 'I' for Inactive)
REMARK    1  A    between atoms: _5  and  _11
REMARK    2  A    between atoms: _19  and  _21
REMARK    3  A    between atoms: _22  and  _66
REMARK    4  A    between atoms: _27  and  _30
REMARK    5  A    between atoms: _32  and  _33
REMARK    6  A    between atoms: _38  and  _43
REMARK    7  A    between atoms: _43  and  _46
REMARK    8  A    between atoms: _53  and  _55
REMARK                            x       y       z     vdW  Elec       q    Type
REMARK                         _______ _______ _______ _____ _____    ______ ____
ROOT
ATOM     10  C   UNL     1     -16.188  33.894  30.430  0.00  0.00    +0.038 A 
ATOM     11  C   UNL     1     -17.061  34.670  29.626  0.00  0.00    +0.047 A 
ATOM     12  C   UNL     1     -17.917  35.690  30.211  0.00  0.00    +0.035 A 
ATOM     32  C   UNL     1     -17.857  35.895  31.621  0.00  0.00    +0.024 A 
ATOM     33  C   UNL     1     -16.976  35.115  32.454  0.00  0.00    +0.007 A 
ATOM     34  C   UNL     1     -16.131  34.106  31.882  0.00  0.00    -0.029 A 
ATOM     35  C   UNL     1     -15.211  33.295  32.824  0.00  0.00    +0.045 C 
ENDROOT
BRANCH  10   9
ATOM      4  C   UNL     1     -15.231  29.359  29.186  0.00  0.00    +0.077 A 
ATOM      5  C   UNL     1     -16.410  28.868  29.838  0.00  0.00    +0.048 A 
ATOM      6  C   UNL     1     -17.233  29.815  30.489  0.00  0.00    +0.116 A 
ATOM      7  N   UNL     1     -16.892  31.150  30.481  0.00  0.00    -0.223 NA
ATOM      8  C   UNL     1     -15.747  31.589  29.843  0.00  0.00    +0.220 A 
ATOM      9  N   UNL     1     -15.388  32.928  29.816  0.00  0.00    -0.283 N 
ATOM     36  H   UNL     1     -14.532  33.211  29.341  0.00  0.00    +0.155 HD
ATOM     37  N   UNL     1     -14.944  30.705  29.216  0.00  0.00    -0.214 NA
BRANCH   4   3
ATOM      1  C   UNL     1     -12.805  26.433  28.260  0.00  0.00    +0.020 A 
ATOM      2  C   UNL     1     -13.737  27.243  29.010  0.00  0.00    +0.013 A 
ATOM      3  C   UNL     1     -14.263  28.483  28.452  0.00  0.00    +0.019 A 
ATOM     38  C   UNL     1     -13.824  28.877  27.122  0.00  0.00    +0.120 A 
ATOM     39  N   UNL     1     -12.924  28.077  26.424  0.00  0.00    -0.263 NA
ATOM     40  C   UNL     1     -12.410  26.883  26.951  0.00  0.00    +0.111 A 
ENDBRANCH   4   3
ENDBRANCH  10   9
BRANCH  12  13
ATOM     13  N   UNL     1     -18.829  36.503  29.446  0.00  0.00    -0.281 N 
ATOM     14  C   UNL     1     -18.694  37.837  29.097  0.00  0.00    +0.248 C 
ATOM     30  O   UNL     1     -17.863  38.595  29.575  0.00  0.00    -0.270 OA
ATOM     31  H   UNL     1     -19.678  36.039  29.121  0.00  0.00    +0.155 HD
BRANCH  14  15
ATOM     15  C   UNL     1     -19.625  38.415  28.081  0.00  0.00    +0.037 A 
ATOM     16  C   UNL     1     -21.068  38.172  28.147  0.00  0.00    +0.013 A 
ATOM     17  C   UNL     1     -21.942  38.728  27.144  0.00  0.00    +0.005 A 
ATOM     18  C   UNL     1     -21.374  39.535  26.067  0.00  0.00    -0.033 A 
ATOM     28  C   UNL     1     -19.939  39.765  26.028  0.00  0.00    +0.005 A 
ATOM     29  C   UNL     1     -19.079  39.221  27.009  0.00  0.00    +0.013 A 
BRANCH  18  19
ATOM     19  C   UNL     1     -22.228  40.150  24.942  0.00  0.00    +0.119 C 
BRANCH  19  20
ATOM     20  N   UNL     1     -22.527  39.287  23.761  0.00  0.00    -0.302 NA
ATOM     21  C   UNL     1     -22.929  40.111  22.535  0.00  0.00    +0.066 C 
ATOM     22  C   UNL     1     -23.217  39.194  21.302  0.00  0.00    -0.064 C 
ATOM     23  N   UNL     1     -24.312  38.189  21.662  0.00  0.00    +0.379 N 
ATOM     24  C   UNL     1     -24.626  37.363  20.487  0.00  0.00    -0.096 C 
ATOM     25  H   UNL     1     -25.229  38.767  21.923  0.00  0.00    -0.082 HD
ATOM     26  C   UNL     1     -23.922  37.367  22.882  0.00  0.00    -0.064 C 
ATOM     27  C   UNL     1     -23.610  38.289  24.093  0.00  0.00    +0.066 C 
ENDBRANCH  19  20
ENDBRANCH  18  19
ENDBRANCH  14  15
ENDBRANCH  12  13
TORSDOF 6
ENDMDL
MODEL 3
REMARK VINA RESULT:      -8.6      2.465     14.373
REMARK  Name = C:\Users\Docking\Desktop\test protocol\1iep_ligandH.pdb
REMARK  8 active torsions:
REMARK  status: ('A' for Active; 'I' for Inactive)
REMARK    1  A    between atoms: _5  and  _11
REMARK    2  A    between atoms: _19  and  _21
REMARK    3  A    between atoms: _22  and  _66
REMARK    4  A    between atoms: _27  and  _30
REMARK    5  A    between atoms: _32  and  _33
REMARK    6  A    between atoms: _38  and  _43
REMARK    7  A    between atoms: _43  and  _46
REMARK    8  A    between atoms: _53  and  _55
REMARK                            x       y       z     vdW  Elec       q    Type
REMARK                         _______ _______ _______ _____ _____    ______ ____
ROOT
ATOM     10  C   UNL     1     -20.371  42.038  25.036  0.00  0.00    +0.038 A 
ATOM     11  C   UNL     1     -19.996  41.208  26.122  0.00  0.00    +0.047 A 
ATOM     12  C   UNL     1     -19.849  39.770  25.955  0.00  0.00    +0.035 A 
ATOM     32  C   UNL     1     -20.088  39.212  24.665  0.00  0.00    +0.024 A 
ATOM     33  C   UNL     1     -20.471  40.042  23.550  0.00  0.00    +0.007 A 
ATOM     34  C   UNL     1     -20.620  41.460  23.710  0.00  0.00    -0.029 A 
ATOM     35  C   UNL     1     -21.039  42.300  22.480  0.00  0.00    +0.045 C 
ENDROOT
BRANCH  10   9
ATOM      4  C   UNL     1     -22.999  45.966  25.873  0.00  0.00    +0.077 A 
ATOM      5  C   UNL     1     -24.226  45.223  25.850  0.00  0.00    +0.048 A 
ATOM      6  C   UNL     1     -24.137  43.833  25.612  0.00  0.00    +0.116 A 
ATOM      7  N   UNL     1     -22.909  43.241  25.414  0.00  0.00    -0.223 NA
ATOM      8  C   UNL     1     -21.745  43.988  25.441  0.00  0.00    +0.220 A 
ATOM      9  N   UNL     1     -20.498  43.412  25.253  0.00  0.00    -0.283 N 
ATOM     36  H   UNL     1     -19.664  43.999  25.273  0.00  0.00    +0.155 HD
ATOM     37  N   UNL     1     -21.803  45.317  25.665  0.00  0.00    -0.214 NA
BRANCH   4   3
ATOM      1  C   UNL     1     -21.725  49.659  26.078  0.00  0.00    +0.020 A 
ATOM      2  C   UNL     1     -21.741  48.236  25.826  0.00  0.00    +0.013 A 
ATOM      3  C   UNL     1     -22.928  47.442  26.116  0.00  0.00    +0.019 A 
ATOM     38  C   UNL     1     -24.091  48.123  26.665  0.00  0.00    +0.120 A 
ATOM     39  N   UNL     1     -24.046  49.494  26.899  0.00  0.00    -0.263 NA
ATOM     40  C   UNL     1     -22.909  50.268  26.625  0.00  0.00    +0.111 A 
ENDBRANCH   4   3
ENDBRANCH  10   9
BRANCH  12  13
ATOM     13  N   UNL     1     -19.479  38.876  27.023  0.00  0.00    -0.281 N 
ATOM     14  C   UNL     1     -20.306  38.285  27.964  0.00  0.00    +0.248 C 
ATOM     30  O   UNL     1     -21.468  38.606  28.162  0.00  0.00    -0.270 OA
ATOM     31  H   UNL     1     -18.486  38.651  27.095  0.00  0.00    +0.155 HD
BRANCH  14  15
ATOM     15  C   UNL     1     -19.759  37.188  28.819  0.00  0.00    +0.037 A 
ATOM     16  C   UNL     1     -20.590  36.048  29.218  0.00  0.00    +0.013 A 
ATOM     17  C   UNL     1     -20.042  35.012  30.057  0.00  0.00    +0.005 A 
ATOM     18  C   UNL     1     -18.654  35.110  30.502  0.00  0.00    -0.033 A 
ATOM     28  C   UNL     1     -17.851  36.249  30.088  0.00  0.00    +0.005 A 
ATOM     29  C   UNL     1     -18.385  37.267  29.266  0.00  0.00    +0.013 A 
BRANCH  18  19
ATOM     19  C   UNL     1     -17.993  34.062  31.417  0.00  0.00    +0.119 C 
BRANCH  19  20
ATOM     20  N   UNL     1     -17.708  32.721  30.825  0.00  0.00    -0.302 NA
ATOM     21  C   UNL     1     -16.959  31.810  31.801  0.00  0.00    +0.066 C 
ATOM     22  C   UNL     1     -16.688  30.403  31.173  0.00  0.00    -0.064 C 
ATOM     23  N   UNL     1     -15.899  30.571  29.874  0.00  0.00    +0.379 N 
ATOM     24  C   UNL     1     -15.593  29.247  29.312  0.00  0.00    -0.096 C 
ATOM     25  H   UNL     1     -14.931  31.063  30.128  0.00  0.00    -0.082 HD
ATOM     26  C   UNL     1     -16.636  31.478  28.899  0.00  0.00    -0.064 C 
ATOM     27  C   UNL     1     -16.925  32.863  29.543  0.00  0.00    +0.066 C 
ENDBRANCH  19  20
ENDBRANCH  18  19
ENDBRANCH  14  15
ENDBRANCH  12  13
TORSDOF 6
ENDMDL
MODEL 4
REMARK VINA RESULT:      -8.3      4.133      5.677
REMARK  Name = C:\Users\Docking\Desktop\test protocol\1iep_ligandH.pdb
REMARK  8 active torsions:
REMARK  status: ('A' for Active; 'I' for Inactive)
REMARK    1  A    between atoms: _5  and  _11
REMARK    2  A    between atoms: _19  and  _21
REMARK    3  A    between atoms: _22  and  _66
REMARK    4  A    between atoms: _27  and  _30
REMARK    5  A    between atoms: _32  and  _33
REMARK    6  A    between atoms: _38  and  _43
REMARK    7  A    between atoms: _43  and  _46
REMARK    8  A    between atoms: _53  and  _55
REMARK                            x       y       z     vdW  Elec       q    Type
REMARK                         _______ _______ _______ _____ _____    ______ ____
ROOT
ATOM     10  C   UNL     1     -19.609  35.575  30.895  0.00  0.00    +0.038 A 
ATOM     11  C   UNL     1     -19.594  36.703  30.035  0.00  0.00    +0.047 A 
ATOM     12  C   UNL     1     -20.429  36.754  28.846  0.00  0.00    +0.035 A 
ATOM     32  C   UNL     1     -21.271  35.639  28.563  0.00  0.00    +0.024 A 
ATOM     33  C   UNL     1     -21.298  34.484  29.426  0.00  0.00    +0.007 A 
ATOM     34  C   UNL     1     -20.474  34.427  30.599  0.00  0.00    -0.029 A 
ATOM     35  C   UNL     1     -20.539  33.160  31.484  0.00  0.00    +0.045 C 
ENDROOT
BRANCH  10   9
ATOM      4  C   UNL     1     -15.313  35.203  33.003  0.00  0.00    +0.077 A 
ATOM      5  C   UNL     1     -14.655  34.952  31.753  0.00  0.00    +0.048 A 
ATOM      6  C   UNL     1     -15.460  34.920  30.591  0.00  0.00    +0.116 A 
ATOM      7  N   UNL     1     -16.819  35.125  30.685  0.00  0.00    -0.223 NA
ATOM      8  C   UNL     1     -17.422  35.363  31.907  0.00  0.00    +0.220 A 
ATOM      9  N   UNL     1     -18.786  35.579  32.024  0.00  0.00    -0.283 N 
ATOM     36  H   UNL     1     -19.194  35.744  32.944  0.00  0.00    +0.155 HD
ATOM     37  N   UNL     1     -16.676  35.397  33.031  0.00  0.00    -0.214 NA
BRANCH   4   3
ATOM      1  C   UNL     1     -13.075  34.315  36.085  0.00  0.00    +0.020 A 
ATOM      2  C   UNL     1     -13.742  34.200  34.809  0.00  0.00    +0.013 A 
ATOM      3  C   UNL     1     -14.599  35.271  34.317  0.00  0.00    +0.019 A 
ATOM     38  C   UNL     1     -14.759  36.456  35.146  0.00  0.00    +0.120 A 
ATOM     39  N   UNL     1     -14.105  36.539  36.371  0.00  0.00    -0.263 NA
ATOM     40  C   UNL     1     -13.280  35.513  36.856  0.00  0.00    +0.111 A 
ENDBRANCH   4   3
ENDBRANCH  10   9
BRANCH  12  13
ATOM     13  N   UNL     1     -20.450  37.869  27.931  0.00  0.00    -0.281 N 
ATOM     14  C   UNL     1     -19.370  38.559  27.405  0.00  0.00    +0.248 C 
ATOM     30  O   UNL     1     -18.221  38.457  27.810  0.00  0.00    -0.270 OA
ATOM     31  H   UNL     1     -21.373  38.188  27.636  0.00  0.00    +0.155 HD
BRANCH  14  15
ATOM     15  C   UNL     1     -19.602  39.509  26.275  0.00  0.00    +0.037 A 
ATOM     16  C   UNL     1     -19.265  40.930  26.397  0.00  0.00    +0.013 A 
ATOM     17  C   UNL     1     -19.514  41.829  25.298  0.00  0.00    +0.005 A 
ATOM     18  C   UNL     1     -20.103  41.308  24.066  0.00  0.00    -0.033 A 
ATOM     28  C   UNL     1     -20.423  39.893  23.971  0.00  0.00    +0.005 A 
ATOM     29  C   UNL     1     -20.181  39.010  25.047  0.00  0.00    +0.013 A 
BRANCH  18  19
ATOM     19  C   UNL     1     -20.424  42.198  22.851  0.00  0.00    +0.119 C 
BRANCH  19  20
ATOM     20  N   UNL     1     -21.540  43.180  22.997  0.00  0.00    -0.302 NA
ATOM     21  C   UNL     1     -21.316  44.133  24.175  0.00  0.00    +0.066 C 
ATOM     22  C   UNL     1     -22.481  45.167  24.300  0.00  0.00    -0.064 C 
ATOM     23  N   UNL     1     -23.808  44.420  24.452  0.00  0.00    +0.379 N 
ATOM     24  C   UNL     1     -24.899  45.390  24.627  0.00  0.00    -0.096 C 
ATOM     25  H   UNL     1     -23.746  43.808  25.381  0.00  0.00    -0.082 HD
ATOM     26  C   UNL     1     -24.037  43.469  23.286  0.00  0.00    -0.064 C 
ATOM     27  C   UNL     1     -22.859  42.464  23.153  0.00  0.00    +0.066 C 
ENDBRANCH  19  20
ENDBRANCH  18  19
ENDBRANCH  14  15
ENDBRANCH  12  13
TORSDOF 6
ENDMDL
MODEL 5
REMARK VINA RESULT:      -8.3      3.410     14.341
REMARK  Name = C:\Users\Docking\Desktop\test protocol\1iep_ligandH.pdb
REMARK  8 active torsions:
REMARK  status: ('A' for Active; 'I' for Inactive)
REMARK    1  A    between atoms: _5  and  _11
REMARK    2  A    between atoms: _19  and  _21
REMARK    3  A    between atoms: _22  and  _66
REMARK    4  A    between atoms: _27  and  _30
REMARK    5  A    between atoms: _32  and  _33
REMARK    6  A    between atoms: _38  and  _43
REMARK    7  A    between atoms: _43  and  _46
REMARK    8  A    between atoms: _53  and  _55
REMARK                            x       y       z     vdW  Elec       q    Type
REMARK                         _______ _______ _______ _____ _____    ______ ____
ROOT
ATOM     10  C   UNL     1     -20.416  41.974  25.082  0.00  0.00    +0.038 A 
ATOM     11  C   UNL     1     -20.170  41.055  26.134  0.00  0.00    +0.047 A 
ATOM     12  C   UNL     1     -20.026  39.631  25.872  0.00  0.00    +0.035 A 
ATOM     32  C   UNL     1     -20.135  39.178  24.525  0.00  0.00    +0.024 A 
ATOM     33  C   UNL     1     -20.386  40.098  23.443  0.00  0.00    +0.007 A 
ATOM     34  C   UNL     1     -20.532  41.503  23.696  0.00  0.00    -0.029 A 
ATOM     35  C   UNL     1     -20.806  42.443  22.499  0.00  0.00    +0.045 C 
ENDROOT
BRANCH  10   9
ATOM      4  C   UNL     1     -23.062  45.881  25.956  0.00  0.00    +0.077 A 
ATOM      5  C   UNL     1     -24.290  45.167  25.753  0.00  0.00    +0.048 A 
ATOM      6  C   UNL     1     -24.197  43.798  25.419  0.00  0.00    +0.116 A 
ATOM      7  N   UNL     1     -22.962  43.197  25.298  0.00  0.00    -0.223 NA
ATOM      8  C   UNL     1     -21.798  43.915  25.499  0.00  0.00    +0.220 A 
ATOM      9  N   UNL     1     -20.546  43.329  25.391  0.00  0.00    -0.283 N 
ATOM     36  H   UNL     1     -19.710  43.895  25.539  0.00  0.00    +0.155 HD
ATOM     37  N   UNL     1     -21.860  45.225  25.818  0.00  0.00    -0.214 NA
BRANCH   4   3
ATOM      1  C   UNL     1     -21.754  49.507  26.620  0.00  0.00    +0.020 A 
ATOM      2  C   UNL     1     -21.764  48.108  26.260  0.00  0.00    +0.013 A 
ATOM      3  C   UNL     1     -22.997  47.333  26.317  0.00  0.00    +0.019 A 
ATOM     38  C   UNL     1     -24.212  48.008  26.744  0.00  0.00    +0.120 A 
ATOM     39  N   UNL     1     -24.173  49.357  27.086  0.00  0.00    -0.263 NA
ATOM     40  C   UNL     1     -22.992  50.113  27.037  0.00  0.00    +0.111 A 
ENDBRANCH   4   3
ENDBRANCH  10   9
BRANCH  12  13
ATOM     13  N   UNL     1     -19.784  38.650  26.900  0.00  0.00    -0.281 N 
ATOM     14  C   UNL     1     -20.670  38.182  27.856  0.00  0.00    +0.248 C 
ATOM     30  O   UNL     1     -21.751  38.695  28.107  0.00  0.00    -0.270 OA
ATOM     31  H   UNL     1     -18.845  38.253  26.927  0.00  0.00    +0.155 HD
BRANCH  14  15
ATOM     15  C   UNL     1     -20.297  36.978  28.659  0.00  0.00    +0.037 A 
ATOM     16  C   UNL     1     -21.256  35.897  28.899  0.00  0.00    +0.013 A 
ATOM     17  C   UNL     1     -20.875  34.755  29.692  0.00  0.00    +0.005 A 
ATOM     18  C   UNL     1     -19.526  34.687  30.248  0.00  0.00    -0.033 A 
ATOM     28  C   UNL     1     -18.593  35.771  29.990  0.00  0.00    +0.005 A 
ATOM     29  C   UNL     1     -18.963  36.892  29.214  0.00  0.00    +0.013 A 
BRANCH  18  19
ATOM     19  C   UNL     1     -19.040  33.516  31.123  0.00  0.00    +0.119 C 
BRANCH  19  20
ATOM     20  N   UNL     1     -17.614  33.539  31.566  0.00  0.00    -0.302 NA
ATOM     21  C   UNL     1     -16.888  32.233  31.233  0.00  0.00    +0.066 C 
ATOM     22  C   UNL     1     -15.391  32.283  31.682  0.00  0.00    -0.064 C 
ATOM     23  N   UNL     1     -15.322  32.574  33.183  0.00  0.00    +0.379 N 
ATOM     24  C   UNL     1     -13.919  32.564  33.620  0.00  0.00    -0.096 C 
ATOM     25  H   UNL     1     -15.847  31.745  33.712  0.00  0.00    -0.082 HD
ATOM     26  C   UNL     1     -16.044  33.870  33.523  0.00  0.00    -0.064 C 
ATOM     27  C   UNL     1     -17.523  33.821  33.045  0.00  0.00    +0.066 C 
ENDBRANCH  19  20
ENDBRANCH  18  19
ENDBRANCH  14  15
ENDBRANCH  12  13
TORSDOF 6
ENDMDL
