MODEL 1
REMARK VINA RESULT:      -8.1      0.000      0.000
REMARK  Name = C:\Users\Docking\Desktop\test protocol\1iep_ligandH.pdb
REMARK  8 active torsions:
REMARK  status: ('A' for Active; 'I' for Inactive)
REMARK    1  A    between atoms: _5  and  _11
REMARK    2  A    between atoms: _19  and  _21
REMARK    3  A    between atoms: _22  and  _66
REMARK    4  A    between atoms: _27  and  _30
REMARK    5  A    between atoms: _32  and  _33
REMARK    6  A    between atoms: _38  and  _43
REMARK    7  A    between atoms: _43  and  _46
REMARK    8  A    between atoms: _53  and  _55
REMARK                            x       y       z     vdW  Elec       q    Type
REMARK                         _______ _______ _______ _____ _____    ______ ____
ROOT
ATOM     10  C   UNL     1      50.497  40.556  27.189  0.00  0.00    +0.038 A 
ATOM     11  C   UNL     1      50.451  41.687  28.043  0.00  0.00    +0.047 A 
ATOM     12  C   UNL     1      51.038  42.956  27.644  0.00  0.00    +0.035 A 
ATOM     32  C   UNL     1      51.662  43.039  26.365  0.00  0.00    +0.024 A 
ATOM     33  C   UNL     1      51.719  41.899  25.484  0.00  0.00    +0.007 A 
ATOM     34  C   UNL     1      51.144  40.644  25.874  0.00  0.00    -0.029 A 
ATOM     35  C   UNL     1      51.240  39.453  24.892  0.00  0.00    +0.045 C 
ENDROOT
BRANCH  10   9
ATOM      4  C   UNL     1      50.616  36.451  29.674  0.00  0.00    +0.077 A 
ATOM      5  C   UNL     1      51.956  36.693  30.123  0.00  0.00    +0.048 A 
ATOM      6  C   UNL     1      52.583  37.882  29.686  0.00  0.00    +0.116 A 
ATOM      7  N   UNL     1      51.909  38.757  28.862  0.00  0.00    -0.223 NA
ATOM      8  C   UNL     1      50.617  38.492  28.445  0.00  0.00    +0.220 A 
ATOM      9  N   UNL     1      49.917  39.362  27.623  0.00  0.00    -0.283 N 
ATOM     36  H   UNL     1      48.969  39.127  27.332  0.00  0.00    +0.155 HD
ATOM     37  N   UNL     1      49.997  37.363  28.848  0.00  0.00    -0.214 NA
BRANCH   4   3
ATOM      1  C   UNL     1      47.668  33.929  30.178  0.00  0.00    +0.020 A 
ATOM      2  C   UNL     1      48.391  35.120  29.793  0.00  0.00    +0.013 A 
ATOM      3  C   UNL     1      49.820  35.241  30.052  0.00  0.00    +0.019 A 
ATOM     38  C   UNL     1      50.494  34.130  30.707  0.00  0.00    +0.120 A 
ATOM     39  N   UNL     1      49.772  32.996  31.067  0.00  0.00    -0.263 NA
ATOM     40  C   UNL     1      48.396  32.869  30.825  0.00  0.00    +0.111 A 
ENDBRANCH   4   3
ENDBRANCH  10   9
BRANCH  12  13
ATOM     13  N   UNL     1      51.029  44.136  28.472  0.00  0.00    -0.281 N 
ATOM     14  C   UNL     1      51.975  44.530  29.404  0.00  0.00    +0.248 C 
ATOM     30  O   UNL     1      52.873  43.814  29.822  0.00  0.00    -0.270 OA
ATOM     31  H   UNL     1      50.227  44.757  28.358  0.00  0.00    +0.155 HD
BRANCH  14  15
ATOM     15  C   UNL     1      51.905  45.914  29.963  0.00  0.00    +0.037 A 
ATOM     16  C   UNL     1      52.837  46.362  31.002  0.00  0.00    +0.013 A 
ATOM     17  C   UNL     1      52.737  47.697  31.536  0.00  0.00    +0.005 A 
ATOM     18  C   UNL     1      51.701  48.595  31.031  0.00  0.00    -0.033 A 
ATOM     28  C   UNL     1      50.794  48.127  29.996  0.00  0.00    +0.005 A 
ATOM     29  C   UNL     1      50.888  46.819  29.471  0.00  0.00    +0.013 A 
BRANCH  18  19
ATOM     19  C   UNL     1      51.507  50.029  31.558  0.00  0.00    +0.119 C 
BRANCH  19  20
ATOM     20  N   UNL     1      52.670  50.960  31.450  0.00  0.00    -0.302 NA
ATOM     21  C   UNL     1      52.313  52.380  31.900  0.00  0.00    +0.066 C 
ATOM     22  C   UNL     1      53.547  53.335  31.802  0.00  0.00    -0.064 C 
ATOM     23  N   UNL     1      54.073  53.338  30.366  0.00  0.00    +0.379 N 
ATOM     24  C   UNL     1      55.197  54.280  30.258  0.00  0.00    -0.096 C 
ATOM     25  H   UNL     1      53.255  53.711  29.707  0.00  0.00    -0.082 HD
ATOM     26  C   UNL     1      54.428  51.930  29.909  0.00  0.00    -0.064 C 
ATOM     27  C   UNL     1      53.203  50.982  30.039  0.00  0.00    +0.066 C 
ENDBRANCH  19  20
ENDBRANCH  18  19
ENDBRANCH  14  15
ENDBRANCH  12  13
TORSDOF 6
ENDMDL
MODEL 2
REMARK VINA RESULT:      -7.7     38.305     40.369
REMARK  Name = C:\Users\Docking\Desktop\test protocol\1iep_ligandH.pdb
REMARK  8 active torsions:
REMARK  status: ('A' for Active; 'I' for Inactive)
REMARK    1  A    between atoms: _5  and  _11
REMARK    2  A    between atoms: _19  and  _21
REMARK    3  A    between atoms: _22  and  _66
REMARK    4  A    between atoms: _27  and  _30
REMARK    5  A    between atoms: _32  and  _33
REMARK    6  A    between atoms: _38  and  _43
REMARK    7  A    between atoms: _43  and  _46
REMARK    8  A    between atoms: _53  and  _55
REMARK                            x       y       z     vdW  Elec       q    Type
REMARK                         _______ _______ _______ _____ _____    ______ ____
ROOT
ATOM     10  C   UNL     1      19.888  53.035   4.306  0.00  0.00    +0.038 A 
ATOM     11  C   UNL     1      21.134  53.338   3.701  0.00  0.00    +0.047 A 
ATOM     12  C   UNL     1      21.531  52.721   2.445  0.00  0.00    +0.035 A 
ATOM     32  C   UNL     1      20.631  51.802   1.830  0.00  0.00    +0.024 A 
ATOM     33  C   UNL     1      19.361  51.481   2.432  0.00  0.00    +0.007 A 
ATOM     34  C   UNL     1      18.965  52.085   3.672  0.00  0.00    -0.029 A 
ATOM     35  C   UNL     1      17.594  51.700   4.275  0.00  0.00    +0.045 C 
ENDROOT
BRANCH  10   9
ATOM      4  C   UNL     1      20.137  53.403   9.085  0.00  0.00    +0.077 A 
ATOM      5  C   UNL     1      20.974  52.242   9.190  0.00  0.00    +0.048 A 
ATOM      6  C   UNL     1      21.311  51.575   7.991  0.00  0.00    +0.116 A 
ATOM      7  N   UNL     1      20.841  52.043   6.783  0.00  0.00    -0.223 NA
ATOM      8  C   UNL     1      20.035  53.164   6.717  0.00  0.00    +0.220 A 
ATOM      9  N   UNL     1      19.558  53.657   5.512  0.00  0.00    -0.283 N 
ATOM     36  H   UNL     1      18.959  54.483   5.507  0.00  0.00    +0.155 HD
ATOM     37  N   UNL     1      19.698  53.818   7.848  0.00  0.00    -0.214 NA
BRANCH   4   3
ATOM      1  C   UNL     1      19.836  54.899  12.687  0.00  0.00    +0.020 A 
ATOM      2  C   UNL     1      20.298  54.088  11.584  0.00  0.00    +0.013 A 
ATOM      3  C   UNL     1      19.697  54.217  10.262  0.00  0.00    +0.019 A 
ATOM     38  C   UNL     1      18.624  55.184  10.088  0.00  0.00    +0.120 A 
ATOM     39  N   UNL     1      18.199  55.950  11.169  0.00  0.00    -0.263 NA
ATOM     40  C   UNL     1      18.768  55.834  12.446  0.00  0.00    +0.111 A 
ENDBRANCH   4   3
ENDBRANCH  10   9
BRANCH  12  13
ATOM     13  N   UNL     1      22.787  52.984   1.788  0.00  0.00    -0.281 N 
ATOM     14  C   UNL     1      24.028  52.439   2.074  0.00  0.00    +0.248 C 
ATOM     30  O   UNL     1      24.286  51.799   3.082  0.00  0.00    -0.270 OA
ATOM     31  H   UNL     1      22.758  53.653   1.018  0.00  0.00    +0.155 HD
BRANCH  14  15
ATOM     15  C   UNL     1      25.148  52.646   1.106  0.00  0.00    +0.037 A 
ATOM     16  C   UNL     1      24.906  53.195  -0.231  0.00  0.00    +0.013 A 
ATOM     17  C   UNL     1      26.002  53.370  -1.151  0.00  0.00    +0.005 A 
ATOM     18  C   UNL     1      27.351  52.995  -0.736  0.00  0.00    -0.033 A 
ATOM     28  C   UNL     1      27.564  52.457   0.598  0.00  0.00    +0.005 A 
ATOM     29  C   UNL     1      26.492  52.284   1.502  0.00  0.00    +0.013 A 
BRANCH  18  19
ATOM     19  C   UNL     1      28.577  53.126  -1.659  0.00  0.00    +0.119 C 
BRANCH  19  20
ATOM     20  N   UNL     1      29.346  54.405  -1.597  0.00  0.00    -0.302 NA
ATOM     21  C   UNL     1      29.967  54.768  -2.949  0.00  0.00    +0.066 C 
ATOM     22  C   UNL     1      30.749  56.120  -2.871  0.00  0.00    -0.064 C 
ATOM     23  N   UNL     1      31.826  56.022  -1.789  0.00  0.00    +0.379 N 
ATOM     24  C   UNL     1      32.600  57.271  -1.753  0.00  0.00    -0.096 C 
ATOM     25  H   UNL     1      32.521  55.200  -2.078  0.00  0.00    -0.082 HD
ATOM     26  C   UNL     1      31.217  55.658  -0.442  0.00  0.00    -0.064 C 
ATOM     27  C   UNL     1      30.418  54.329  -0.538  0.00  0.00    +0.066 C 
ENDBRANCH  19  20
ENDBRANCH  18  19
ENDBRANCH  14  15
ENDBRANCH  12  13
TORSDOF 6
ENDMDL
MODEL 3
REMARK VINA RESULT:      -7.5     25.222     29.039
REMARK  Name = C:\Users\Docking\Desktop\test protocol\1iep_ligandH.pdb
REMARK  8 active torsions:
REMARK  status: ('A' for Active; 'I' for Inactive)
REMARK    1  A    between atoms: _5  and  _11
REMARK    2  A    between atoms: _19  and  _21
REMARK    3  A    between atoms: _22  and  _66
REMARK    4  A    between atoms: _27  and  _30
REMARK    5  A    between atoms: _32  and  _33
REMARK    6  A    between atoms: _38  and  _43
REMARK    7  A    between atoms: _43  and  _46
REMARK    8  A    between atoms: _53  and  _55
REMARK                            x       y       z     vdW  Elec       q    Type
REMARK                         _______ _______ _______ _____ _____    ______ ____
ROOT
ATOM     10  C   UNL     1      32.135  60.782  25.959  0.00  0.00    +0.038 A 
ATOM     11  C   UNL     1      31.294  60.335  24.908  0.00  0.00    +0.047 A 
ATOM     12  C   UNL     1      30.278  61.204  24.335  0.00  0.00    +0.035 A 
ATOM     32  C   UNL     1      30.147  62.524  24.855  0.00  0.00    +0.024 A 
ATOM     33  C   UNL     1      30.992  62.995  25.924  0.00  0.00    +0.007 A 
ATOM     34  C   UNL     1      31.994  62.142  26.495  0.00  0.00    -0.029 A 
ATOM     35  C   UNL     1      32.868  62.697  27.644  0.00  0.00    +0.045 C 
ENDROOT
BRANCH  10   9
ATOM      4  C   UNL     1      33.542  57.374  29.031  0.00  0.00    +0.077 A 
ATOM      5  C   UNL     1      32.267  57.357  29.688  0.00  0.00    +0.048 A 
ATOM      6  C   UNL     1      31.278  58.245  29.209  0.00  0.00    +0.116 A 
ATOM      7  N   UNL     1      31.555  59.084  28.152  0.00  0.00    -0.223 NA
ATOM      8  C   UNL     1      32.796  59.077  27.542  0.00  0.00    +0.220 A 
ATOM      9  N   UNL     1      33.094  59.906  26.471  0.00  0.00    -0.283 N 
ATOM     36  H   UNL     1      34.023  59.876  26.054  0.00  0.00    +0.155 HD
ATOM     37  N   UNL     1      33.757  58.238  27.981  0.00  0.00    -0.214 NA
BRANCH   4   3
ATOM      1  C   UNL     1      35.737  54.230  29.803  0.00  0.00    +0.020 A 
ATOM      2  C   UNL     1      34.601  55.036  29.420  0.00  0.00    +0.013 A 
ATOM      3  C   UNL     1      34.687  56.491  29.419  0.00  0.00    +0.019 A 
ATOM     38  C   UNL     1      35.947  57.104  29.814  0.00  0.00    +0.120 A 
ATOM     39  N   UNL     1      37.023  56.302  30.179  0.00  0.00    -0.263 NA
ATOM     40  C   UNL     1      36.952  54.900  30.186  0.00  0.00    +0.111 A 
ENDBRANCH   4   3
ENDBRANCH  10   9
BRANCH  12  13
ATOM     13  N   UNL     1      29.390  60.802  23.272  0.00  0.00    -0.281 N 
ATOM     14  C   UNL     1      29.425  61.187  21.942  0.00  0.00    +0.248 C 
ATOM     30  O   UNL     1      30.100  62.108  21.507  0.00  0.00    -0.270 OA
ATOM     31  H   UNL     1      28.646  60.155  23.532  0.00  0.00    +0.155 HD
BRANCH  14  15
ATOM     15  C   UNL     1      28.577  60.453  20.955  0.00  0.00    +0.037 A 
ATOM     16  C   UNL     1      28.561  58.988  20.908  0.00  0.00    +0.013 A 
ATOM     17  C   UNL     1      27.746  58.305  19.934  0.00  0.00    +0.005 A 
ATOM     18  C   UNL     1      26.939  59.087  19.000  0.00  0.00    -0.033 A 
ATOM     28  C   UNL     1      26.970  60.538  19.072  0.00  0.00    +0.005 A 
ATOM     29  C   UNL     1      27.768  61.211  20.024  0.00  0.00    +0.013 A 
BRANCH  18  19
ATOM     19  C   UNL     1      26.057  58.442  17.915  0.00  0.00    +0.119 C 
BRANCH  19  20
ATOM     20  N   UNL     1      25.022  57.464  18.366  0.00  0.00    -0.302 NA
ATOM     21  C   UNL     1      24.231  56.882  17.192  0.00  0.00    +0.066 C 
ATOM     22  C   UNL     1      23.168  55.845  17.680  0.00  0.00    -0.064 C 
ATOM     23  N   UNL     1      22.230  56.514  18.686  0.00  0.00    +0.379 N 
ATOM     24  C   UNL     1      21.195  55.558  19.104  0.00  0.00    -0.096 C 
ATOM     25  H   UNL     1      21.722  57.358  18.164  0.00  0.00    -0.082 HD
ATOM     26  C   UNL     1      23.009  57.099  19.856  0.00  0.00    -0.064 C 
ATOM     27  C   UNL     1      24.083  58.106  19.357  0.00  0.00    +0.066 C 
ENDBRANCH  19  20
ENDBRANCH  18  19
ENDBRANCH  14  15
ENDBRANCH  12  13
TORSDOF 6
ENDMDL
MODEL 4
REMARK VINA RESULT:      -7.5      7.169     15.547
REMARK  Name = C:\Users\Docking\Desktop\test protocol\1iep_ligandH.pdb
REMARK  8 active torsions:
REMARK  status: ('A' for Active; 'I' for Inactive)
REMARK    1  A    between atoms: _5  and  _11
REMARK    2  A    between atoms: _19  and  _21
REMARK    3  A    between atoms: _22  and  _66
REMARK    4  A    between atoms: _27  and  _30
REMARK    5  A    between atoms: _32  and  _33
REMARK    6  A    between atoms: _38  and  _43
REMARK    7  A    between atoms: _43  and  _46
REMARK    8  A    between atoms: _53  and  _55
REMARK                            x       y       z     vdW  Elec       q    Type
REMARK                         _______ _______ _______ _____ _____    ______ ____
ROOT
ATOM     10  C   UNL     1      50.102  35.418  29.822  0.00  0.00    +0.038 A 
ATOM     11  C   UNL     1      48.869  34.718  29.850  0.00  0.00    +0.047 A 
ATOM     12  C   UNL     1      48.424  34.024  31.048  0.00  0.00    +0.035 A 
ATOM     32  C   UNL     1      49.259  34.066  32.202  0.00  0.00    +0.024 A 
ATOM     33  C   UNL     1      50.516  34.772  32.192  0.00  0.00    +0.007 A 
ATOM     34  C   UNL     1      50.962  35.456  31.012  0.00  0.00    -0.029 A 
ATOM     35  C   UNL     1      52.322  36.191  31.056  0.00  0.00    +0.045 C 
ENDROOT
BRANCH  10   9
ATOM      4  C   UNL     1      50.342  39.310  27.023  0.00  0.00    +0.077 A 
ATOM      5  C   UNL     1      49.630  40.112  27.976  0.00  0.00    +0.048 A 
ATOM      6  C   UNL     1      49.213  39.483  29.171  0.00  0.00    +0.116 A 
ATOM      7  N   UNL     1      49.493  38.151  29.386  0.00  0.00    -0.223 NA
ATOM      8  C   UNL     1      50.181  37.406  28.446  0.00  0.00    +0.220 A 
ATOM      9  N   UNL     1      50.480  36.067  28.645  0.00  0.00    -0.283 N 
ATOM     36  H   UNL     1      50.983  35.550  27.923  0.00  0.00    +0.155 HD
ATOM     37  N   UNL     1      50.588  37.983  27.296  0.00  0.00    -0.214 NA
BRANCH   4   3
ATOM      1  C   UNL     1      51.378  39.581  23.261  0.00  0.00    +0.020 A 
ATOM      2  C   UNL     1      50.877  39.029  24.499  0.00  0.00    +0.013 A 
ATOM      3  C   UNL     1      50.850  39.831  25.715  0.00  0.00    +0.019 A 
ATOM     38  C   UNL     1      51.341  41.200  25.645  0.00  0.00    +0.120 A 
ATOM     39  N   UNL     1      51.819  41.704  24.439  0.00  0.00    -0.263 NA
ATOM     40  C   UNL     1      51.851  40.940  23.263  0.00  0.00    +0.111 A 
ENDBRANCH   4   3
ENDBRANCH  10   9
BRANCH  12  13
ATOM     13  N   UNL     1      47.185  33.291  31.133  0.00  0.00    -0.281 N 
ATOM     14  C   UNL     1      46.944  31.981  30.751  0.00  0.00    +0.248 C 
ATOM     30  O   UNL     1      47.708  31.305  30.079  0.00  0.00    -0.270 OA
ATOM     31  H   UNL     1      46.390  33.798  31.520  0.00  0.00    +0.155 HD
BRANCH  14  15
ATOM     15  C   UNL     1      45.662  31.333  31.166  0.00  0.00    +0.037 A 
ATOM     16  C   UNL     1      44.887  30.515  30.230  0.00  0.00    +0.013 A 
ATOM     17  C   UNL     1      43.645  29.915  30.650  0.00  0.00    +0.005 A 
ATOM     18  C   UNL     1      43.172  30.131  32.015  0.00  0.00    -0.033 A 
ATOM     28  C   UNL     1      43.963  30.943  32.924  0.00  0.00    +0.005 A 
ATOM     29  C   UNL     1      45.180  31.533  32.516  0.00  0.00    +0.013 A 
BRANCH  18  19
ATOM     19  C   UNL     1      41.848  29.548  32.543  0.00  0.00    +0.119 C 
BRANCH  19  20
ATOM     20  N   UNL     1      40.598  29.923  31.817  0.00  0.00    -0.302 NA
ATOM     21  C   UNL     1      40.319  28.994  30.633  0.00  0.00    +0.066 C 
ATOM     22  C   UNL     1      38.996  29.387  29.899  0.00  0.00    -0.064 C 
ATOM     23  N   UNL     1      39.086  30.843  29.436  0.00  0.00    +0.379 N 
ATOM     24  C   UNL     1      37.867  31.198  28.695  0.00  0.00    -0.096 C 
ATOM     25  H   UNL     1      39.946  30.920  28.731  0.00  0.00    -0.082 HD
ATOM     26  C   UNL     1      39.365  31.773  30.608  0.00  0.00    -0.064 C 
ATOM     27  C   UNL     1      40.666  31.356  31.348  0.00  0.00    +0.066 C 
ENDBRANCH  19  20
ENDBRANCH  18  19
ENDBRANCH  14  15
ENDBRANCH  12  13
TORSDOF 6
ENDMDL
MODEL 5
REMARK VINA RESULT:      -7.4     16.312     22.298
REMARK  Name = C:\Users\Docking\Desktop\test protocol\1iep_ligandH.pdb
REMARK  8 active torsions:
REMARK  status: ('A' for Active; 'I' for Inactive)
REMARK    1  A    between atoms: _5  and  _11
REMARK    2  A    between atoms: _19  and  _21
REMARK    3  A    between atoms: _22  and  _66
REMARK    4  A    between atoms: _27  and  _30
REMARK    5  A    between atoms: _32  and  _33
REMARK    6  A    between atoms: _38  and  _43
REMARK    7  A    between atoms: _43  and  _46
REMARK    8  A    between atoms: _53  and  _55
REMARK                            x       y       z     vdW  Elec       q    Type
REMARK                         _______ _______ _______ _____ _____    ______ ____
ROOT
ATOM     10  C   UNL     1      46.824  60.341  26.312  0.00  0.00    +0.038 A 
ATOM     11  C   UNL     1      45.603  59.789  26.778  0.00  0.00    +0.047 A 
ATOM     12  C   UNL     1      45.320  58.369  26.645  0.00  0.00    +0.035 A 
ATOM     32  C   UNL     1      46.305  57.538  26.034  0.00  0.00    +0.024 A 
ATOM     33  C   UNL     1      47.550  58.082  25.554  0.00  0.00    +0.007 A 
ATOM     34  C   UNL     1      47.834  59.483  25.681  0.00  0.00    -0.029 A 
ATOM     35  C   UNL     1      49.184  60.013  25.143  0.00  0.00    +0.045 C 
ENDROOT
BRANCH  10   9
ATOM      4  C   UNL     1      46.631  64.863  24.717  0.00  0.00    +0.077 A 
ATOM      5  C   UNL     1      46.070  64.459  23.460  0.00  0.00    +0.048 A 
ATOM      6  C   UNL     1      45.854  63.077  23.261  0.00  0.00    +0.116 A 
ATOM      7  N   UNL     1      46.177  62.176  24.252  0.00  0.00    -0.223 NA
ATOM      8  C   UNL     1      46.718  62.599  25.452  0.00  0.00    +0.220 A 
ATOM      9  N   UNL     1      47.044  61.711  26.466  0.00  0.00    -0.283 N 
ATOM     36  H   UNL     1      47.448  62.063  27.334  0.00  0.00    +0.155 HD
ATOM     37  N   UNL     1      46.936  63.914  25.666  0.00  0.00    -0.214 NA
BRANCH   4   3
ATOM      1  C   UNL     1      48.248  68.070  26.267  0.00  0.00    +0.020 A 
ATOM      2  C   UNL     1      48.016  66.680  25.950  0.00  0.00    +0.013 A 
ATOM      3  C   UNL     1      46.916  66.288  25.078  0.00  0.00    +0.019 A 
ATOM     38  C   UNL     1      46.063  67.336  24.538  0.00  0.00    +0.120 A 
ATOM     39  N   UNL     1      46.310  68.667  24.862  0.00  0.00    -0.263 NA
ATOM     40  C   UNL     1      47.364  69.055  25.701  0.00  0.00    +0.111 A 
ENDBRANCH   4   3
ENDBRANCH  10   9
BRANCH  12  13
ATOM     13  N   UNL     1      44.095  57.753  27.092  0.00  0.00    -0.281 N 
ATOM     14  C   UNL     1      43.737  57.410  28.385  0.00  0.00    +0.248 C 
ATOM     30  O   UNL     1      44.508  57.385  29.332  0.00  0.00    -0.270 OA
ATOM     31  H   UNL     1      43.408  57.546  26.366  0.00  0.00    +0.155 HD
BRANCH  14  15
ATOM     15  C   UNL     1      42.320  57.024  28.663  0.00  0.00    +0.037 A 
ATOM     16  C   UNL     1      41.314  58.030  29.016  0.00  0.00    +0.013 A 
ATOM     17  C   UNL     1      39.958  57.629  29.296  0.00  0.00    +0.005 A 
ATOM     18  C   UNL     1      39.600  56.215  29.224  0.00  0.00    -0.033 A 
ATOM     28  C   UNL     1      40.616  55.239  28.867  0.00  0.00    +0.005 A 
ATOM     29  C   UNL     1      41.947  55.628  28.593  0.00  0.00    +0.013 A 
BRANCH  18  19
ATOM     19  C   UNL     1      38.183  55.694  29.528  0.00  0.00    +0.119 C 
BRANCH  19  20
ATOM     20  N   UNL     1      38.005  54.215  29.635  0.00  0.00    -0.302 NA
ATOM     21  C   UNL     1      36.685  53.749  29.014  0.00  0.00    +0.066 C 
ATOM     22  C   UNL     1      36.527  52.197  29.114  0.00  0.00    -0.064 C 
ATOM     23  N   UNL     1      36.616  51.771  30.581  0.00  0.00    +0.379 N 
ATOM     24  C   UNL     1      36.410  50.319  30.684  0.00  0.00    -0.096 C 
ATOM     25  H   UNL     1      35.784  52.271  31.129  0.00  0.00    -0.082 HD
ATOM     26  C   UNL     1      37.925  52.234  31.206  0.00  0.00    -0.064 C 
ATOM     27  C   UNL     1      38.086  53.774  31.075  0.00  0.00    +0.066 C 
ENDBRANCH  19  20
ENDBRANCH  18  19
ENDBRANCH  14  15
ENDBRANCH  12  13
TORSDOF 6
ENDMDL
