MODEL 1
REMARK VINA RESULT:      -8.1      0.000      0.000
REMARK  Name = C:\Users\Docking\Desktop\test protocol\1iep_ligandH.pdb
REMARK  8 active torsions:
REMARK  status: ('A' for Active; 'I' for Inactive)
REMARK    1  A    between atoms: _5  and  _11
REMARK    2  A    between atoms: _19  and  _21
REMARK    3  A    between atoms: _22  and  _66
REMARK    4  A    between atoms: _27  and  _30
REMARK    5  A    between atoms: _32  and  _33
REMARK    6  A    between atoms: _38  and  _43
REMARK    7  A    between atoms: _43  and  _46
REMARK    8  A    between atoms: _53  and  _55
REMARK                            x       y       z     vdW  Elec       q    Type
REMARK                         _______ _______ _______ _____ _____    ______ ____
ROOT
ATOM     10  C   UNL     1      -6.609  17.204  29.973  0.00  0.00    +0.038 A 
ATOM     11  C   UNL     1      -7.042  18.230  29.095  0.00  0.00    +0.047 A 
ATOM     12  C   UNL     1      -6.408  18.431  27.801  0.00  0.00    +0.035 A 
ATOM     32  C   UNL     1      -5.336  17.566  27.433  0.00  0.00    +0.024 A 
ATOM     33  C   UNL     1      -4.882  16.519  28.314  0.00  0.00    +0.007 A 
ATOM     34  C   UNL     1      -5.503  16.317  29.592  0.00  0.00    -0.029 A 
ATOM     35  C   UNL     1      -4.971  15.183  30.498  0.00  0.00    +0.045 C 
ENDROOT
BRANCH  10   9
ATOM      4  C   UNL     1     -10.069  15.363  32.743  0.00  0.00    +0.077 A 
ATOM      5  C   UNL     1     -10.658  14.657  31.641  0.00  0.00    +0.048 A 
ATOM      6  C   UNL     1     -10.044  14.801  30.377  0.00  0.00    +0.116 A 
ATOM      7  N   UNL     1      -8.925  15.592  30.237  0.00  0.00    -0.223 NA
ATOM      8  C   UNL     1      -8.383  16.260  31.320  0.00  0.00    +0.220 A 
ATOM      9  N   UNL     1      -7.254  17.056  31.203  0.00  0.00    -0.283 N 
ATOM     36  H   UNL     1      -6.890  17.538  32.025  0.00  0.00    +0.155 HD
ATOM     37  N   UNL     1      -8.952  16.141  32.537  0.00  0.00    -0.214 NA
BRANCH   4   3
ATOM      1  C   UNL     1     -11.224  14.074  36.251  0.00  0.00    +0.020 A 
ATOM      2  C   UNL     1     -10.703  14.071  34.903  0.00  0.00    +0.013 A 
ATOM      3  C   UNL     1     -10.601  15.309  34.142  0.00  0.00    +0.019 A 
ATOM     38  C   UNL     1     -11.037  16.543  34.778  0.00  0.00    +0.120 A 
ATOM     39  N   UNL     1     -11.535  16.515  36.077  0.00  0.00    -0.263 NA
ATOM     40  C   UNL     1     -11.639  15.329  36.819  0.00  0.00    +0.111 A 
ENDBRANCH   4   3
ENDBRANCH  10   9
BRANCH  12  13
ATOM     13  N   UNL     1      -6.799  19.461  26.871  0.00  0.00    -0.281 N 
ATOM     14  C   UNL     1      -8.046  19.667  26.304  0.00  0.00    +0.248 C 
ATOM     30  O   UNL     1      -8.966  18.863  26.347  0.00  0.00    -0.270 OA
ATOM     31  H   UNL     1      -6.068  20.118  26.598  0.00  0.00    +0.155 HD
BRANCH  14  15
ATOM     15  C   UNL     1      -8.304  20.944  25.572  0.00  0.00    +0.037 A 
ATOM     16  C   UNL     1      -7.542  21.299  24.372  0.00  0.00    +0.013 A 
ATOM     17  C   UNL     1      -7.799  22.545  23.695  0.00  0.00    +0.005 A 
ATOM     18  C   UNL     1      -8.825  23.445  24.215  0.00  0.00    -0.033 A 
ATOM     28  C   UNL     1      -9.570  23.065  25.404  0.00  0.00    +0.005 A 
ATOM     29  C   UNL     1      -9.320  21.845  26.072  0.00  0.00    +0.013 A 
BRANCH  18  19
ATOM     19  C   UNL     1      -9.152  24.804  23.569  0.00  0.00    +0.119 C 
BRANCH  19  20
ATOM     20  N   UNL     1     -10.241  24.832  22.548  0.00  0.00    -0.302 NA
ATOM     21  C   UNL     1      -9.708  25.146  21.147  0.00  0.00    +0.066 C 
ATOM     22  C   UNL     1     -10.857  25.149  20.088  0.00  0.00    -0.064 C 
ATOM     23  N   UNL     1     -11.925  26.163  20.500  0.00  0.00    +0.379 N 
ATOM     24  C   UNL     1     -12.979  26.209  19.476  0.00  0.00    -0.096 C 
ATOM     25  H   UNL     1     -11.443  27.167  20.535  0.00  0.00    -0.082 HD
ATOM     26  C   UNL     1     -12.459  25.859  21.893  0.00  0.00    -0.064 C 
ATOM     27  C   UNL     1     -11.305  25.830  22.933  0.00  0.00    +0.066 C 
ENDBRANCH  19  20
ENDBRANCH  18  19
ENDBRANCH  14  15
ENDBRANCH  12  13
TORSDOF 6
ENDMDL
MODEL 2
REMARK VINA RESULT:      -8.1      7.014     13.304
REMARK  Name = C:\Users\Docking\Desktop\test protocol\1iep_ligandH.pdb
REMARK  8 active torsions:
REMARK  status: ('A' for Active; 'I' for Inactive)
REMARK    1  A    between atoms: _5  and  _11
REMARK    2  A    between atoms: _19  and  _21
REMARK    3  A    between atoms: _22  and  _66
REMARK    4  A    between atoms: _27  and  _30
REMARK    5  A    between atoms: _32  and  _33
REMARK    6  A    between atoms: _38  and  _43
REMARK    7  A    between atoms: _43  and  _46
REMARK    8  A    between atoms: _53  and  _55
REMARK                            x       y       z     vdW  Elec       q    Type
REMARK                         _______ _______ _______ _____ _____    ______ ____
ROOT
ATOM     10  C   UNL     1      -5.540  15.979  30.832  0.00  0.00    +0.038 A 
ATOM     11  C   UNL     1      -6.432  15.765  31.914  0.00  0.00    +0.047 A 
ATOM     12  C   UNL     1      -7.642  16.558  32.061  0.00  0.00    +0.035 A 
ATOM     32  C   UNL     1      -7.915  17.560  31.084  0.00  0.00    +0.024 A 
ATOM     33  C   UNL     1      -7.019  17.792  29.979  0.00  0.00    +0.007 A 
ATOM     34  C   UNL     1      -5.823  17.014  29.830  0.00  0.00    -0.029 A 
ATOM     35  C   UNL     1      -4.896  17.310  28.629  0.00  0.00    +0.045 C 
ENDROOT
BRANCH  10   9
ATOM      4  C   UNL     1      -3.299  11.888  29.701  0.00  0.00    +0.077 A 
ATOM      5  C   UNL     1      -4.521  11.265  29.283  0.00  0.00    +0.048 A 
ATOM      6  C   UNL     1      -5.706  12.029  29.382  0.00  0.00    +0.116 A 
ATOM      7  N   UNL     1      -5.659  13.319  29.864  0.00  0.00    -0.223 NA
ATOM      8  C   UNL     1      -4.464  13.889  30.260  0.00  0.00    +0.220 A 
ATOM      9  N   UNL     1      -4.393  15.188  30.740  0.00  0.00    -0.283 N 
ATOM     36  H   UNL     1      -3.493  15.570  31.030  0.00  0.00    +0.155 HD
ATOM     37  N   UNL     1      -3.319  13.180  30.177  0.00  0.00    -0.214 NA
BRANCH   4   3
ATOM      1  C   UNL     1       0.558  11.242  29.613  0.00  0.00    +0.020 A 
ATOM      2  C   UNL     1      -0.704  11.944  29.659  0.00  0.00    +0.013 A 
ATOM      3  C   UNL     1      -1.964  11.211  29.655  0.00  0.00    +0.019 A 
ATOM     38  C   UNL     1      -1.912   9.758  29.604  0.00  0.00    +0.120 A 
ATOM     39  N   UNL     1      -0.682   9.110  29.559  0.00  0.00    -0.263 NA
ATOM     40  C   UNL     1       0.537   9.804  29.561  0.00  0.00    +0.111 A 
ENDBRANCH   4   3
ENDBRANCH  10   9
BRANCH  12  13
ATOM     13  N   UNL     1      -8.580  16.392  33.143  0.00  0.00    -0.281 N 
ATOM     14  C   UNL     1      -9.955  16.246  33.063  0.00  0.00    +0.248 C 
ATOM     30  O   UNL     1     -10.615  16.451  32.055  0.00  0.00    -0.270 OA
ATOM     31  H   UNL     1      -8.182  16.380  34.082  0.00  0.00    +0.155 HD
BRANCH  14  15
ATOM     15  C   UNL     1     -10.709  15.824  34.283  0.00  0.00    +0.037 A 
ATOM     16  C   UNL     1     -10.077  15.828  35.605  0.00  0.00    +0.013 A 
ATOM     17  C   UNL     1     -10.822  15.401  36.764  0.00  0.00    +0.005 A 
ATOM     18  C   UNL     1     -12.207  14.967  36.604  0.00  0.00    -0.033 A 
ATOM     28  C   UNL     1     -12.811  14.978  35.282  0.00  0.00    +0.005 A 
ATOM     29  C   UNL     1     -12.084  15.395  34.144  0.00  0.00    +0.013 A 
BRANCH  18  19
ATOM     19  C   UNL     1     -13.070  14.475  37.781  0.00  0.00    +0.119 C 
BRANCH  19  20
ATOM     20  N   UNL     1     -12.604  13.256  38.507  0.00  0.00    -0.302 NA
ATOM     21  C   UNL     1     -12.235  12.121  37.548  0.00  0.00    +0.066 C 
ATOM     22  C   UNL     1     -11.729  10.862  38.324  0.00  0.00    -0.064 C 
ATOM     23  N   UNL     1     -12.805  10.407  39.311  0.00  0.00    +0.379 N 
ATOM     24  C   UNL     1     -12.355   9.189  40.001  0.00  0.00    -0.096 C 
ATOM     25  H   UNL     1     -13.715  10.147  38.723  0.00  0.00    -0.082 HD
ATOM     26  C   UNL     1     -13.180  11.531  40.267  0.00  0.00    -0.064 C 
ATOM     27  C   UNL     1     -13.654  12.787  39.485  0.00  0.00    +0.066 C 
ENDBRANCH  19  20
ENDBRANCH  18  19
ENDBRANCH  14  15
ENDBRANCH  12  13
TORSDOF 6
ENDMDL
MODEL 3
REMARK VINA RESULT:      -7.9      2.432     12.964
REMARK  Name = C:\Users\Docking\Desktop\test protocol\1iep_ligandH.pdb
REMARK  8 active torsions:
REMARK  status: ('A' for Active; 'I' for Inactive)
REMARK    1  A    between atoms: _5  and  _11
REMARK    2  A    between atoms: _19  and  _21
REMARK    3  A    between atoms: _22  and  _66
REMARK    4  A    between atoms: _27  and  _30
REMARK    5  A    between atoms: _32  and  _33
REMARK    6  A    between atoms: _38  and  _43
REMARK    7  A    between atoms: _43  and  _46
REMARK    8  A    between atoms: _53  and  _55
REMARK                            x       y       z     vdW  Elec       q    Type
REMARK                         _______ _______ _______ _____ _____    ______ ____
ROOT
ATOM     10  C   UNL     1      -6.471  17.847  28.771  0.00  0.00    +0.038 A 
ATOM     11  C   UNL     1      -7.175  17.779  30.001  0.00  0.00    +0.047 A 
ATOM     12  C   UNL     1      -7.097  16.600  30.848  0.00  0.00    +0.035 A 
ATOM     32  C   UNL     1      -6.290  15.508  30.414  0.00  0.00    +0.024 A 
ATOM     33  C   UNL     1      -5.569  15.559  29.167  0.00  0.00    +0.007 A 
ATOM     34  C   UNL     1      -5.643  16.719  28.326  0.00  0.00    -0.029 A 
ATOM     35  C   UNL     1      -4.854  16.716  26.996  0.00  0.00    +0.045 C 
ENDROOT
BRANCH  10   9
ATOM      4  C   UNL     1      -8.883  20.726  25.784  0.00  0.00    +0.077 A 
ATOM      5  C   UNL     1     -10.009  19.837  25.741  0.00  0.00    +0.048 A 
ATOM      6  C   UNL     1      -9.924  18.646  26.497  0.00  0.00    +0.116 A 
ATOM      7  N   UNL     1      -8.793  18.375  27.236  0.00  0.00    -0.223 NA
ATOM      8  C   UNL     1      -7.725  19.253  27.254  0.00  0.00    +0.220 A 
ATOM      9  N   UNL     1      -6.581  19.004  27.997  0.00  0.00    -0.283 N 
ATOM     36  H   UNL     1      -5.812  19.673  27.978  0.00  0.00    +0.155 HD
ATOM     37  N   UNL     1      -7.781  20.396  26.540  0.00  0.00    -0.214 NA
BRANCH   4   3
ATOM      1  C   UNL     1      -9.485  24.435  24.696  0.00  0.00    +0.020 A 
ATOM      2  C   UNL     1      -9.578  23.204  25.447  0.00  0.00    +0.013 A 
ATOM      3  C   UNL     1      -8.824  22.025  25.042  0.00  0.00    +0.019 A 
ATOM     38  C   UNL     1      -7.976  22.126  23.863  0.00  0.00    +0.120 A 
ATOM     39  N   UNL     1      -7.907  23.324  23.159  0.00  0.00    -0.263 NA
ATOM     40  C   UNL     1      -8.630  24.464  23.538  0.00  0.00    +0.111 A 
ENDBRANCH   4   3
ENDBRANCH  10   9
BRANCH  12  13
ATOM     13  N   UNL     1      -7.796  16.470  32.103  0.00  0.00    -0.281 N 
ATOM     14  C   UNL     1      -9.151  16.264  32.306  0.00  0.00    +0.248 C 
ATOM     30  O   UNL     1     -10.004  16.373  31.438  0.00  0.00    -0.270 OA
ATOM     31  H   UNL     1      -7.222  16.539  32.944  0.00  0.00    +0.155 HD
BRANCH  14  15
ATOM     15  C   UNL     1      -9.629  15.898  33.674  0.00  0.00    +0.037 A 
ATOM     16  C   UNL     1      -9.478  16.819  34.803  0.00  0.00    +0.013 A 
ATOM     17  C   UNL     1      -9.932  16.434  36.116  0.00  0.00    +0.005 A 
ATOM     18  C   UNL     1     -10.543  15.121  36.306  0.00  0.00    -0.033 A 
ATOM     28  C   UNL     1     -10.686  14.229  35.167  0.00  0.00    +0.005 A 
ATOM     29  C   UNL     1     -10.241  14.603  33.879  0.00  0.00    +0.013 A 
BRANCH  18  19
ATOM     19  C   UNL     1     -11.037  14.619  37.675  0.00  0.00    +0.119 C 
BRANCH  19  20
ATOM     20  N   UNL     1     -12.054  13.524  37.676  0.00  0.00    -0.302 NA
ATOM     21  C   UNL     1     -13.485  14.069  37.701  0.00  0.00    +0.066 C 
ATOM     22  C   UNL     1     -14.535  12.912  37.678  0.00  0.00    -0.064 C 
ATOM     23  N   UNL     1     -14.289  11.981  38.867  0.00  0.00    +0.379 N 
ATOM     24  C   UNL     1     -15.311  10.924  38.882  0.00  0.00    -0.096 C 
ATOM     25  H   UNL     1     -14.411  12.583  39.798  0.00  0.00    -0.082 HD
ATOM     26  C   UNL     1     -12.868  11.437  38.852  0.00  0.00    -0.064 C 
ATOM     27  C   UNL     1     -11.832  12.596  38.845  0.00  0.00    +0.066 C 
ENDBRANCH  19  20
ENDBRANCH  18  19
ENDBRANCH  14  15
ENDBRANCH  12  13
TORSDOF 6
ENDMDL
MODEL 4
REMARK VINA RESULT:      -7.9      6.948     13.561
REMARK  Name = C:\Users\Docking\Desktop\test protocol\1iep_ligandH.pdb
REMARK  8 active torsions:
REMARK  status: ('A' for Active; 'I' for Inactive)
REMARK    1  A    between atoms: _5  and  _11
REMARK    2  A    between atoms: _19  and  _21
REMARK    3  A    between atoms: _22  and  _66
REMARK    4  A    between atoms: _27  and  _30
REMARK    5  A    between atoms: _32  and  _33
REMARK    6  A    between atoms: _38  and  _43
REMARK    7  A    between atoms: _43  and  _46
REMARK    8  A    between atoms: _53  and  _55
REMARK                            x       y       z     vdW  Elec       q    Type
REMARK                         _______ _______ _______ _____ _____    ______ ____
ROOT
ATOM     10  C   UNL     1      -6.155  16.245  31.152  0.00  0.00    +0.038 A 
ATOM     11  C   UNL     1      -6.926  15.785  32.250  0.00  0.00    +0.047 A 
ATOM     12  C   UNL     1      -8.207  16.392  32.577  0.00  0.00    +0.035 A 
ATOM     32  C   UNL     1      -8.674  17.464  31.763  0.00  0.00    +0.024 A 
ATOM     33  C   UNL     1      -7.903  17.946  30.644  0.00  0.00    +0.007 A 
ATOM     34  C   UNL     1      -6.637  17.352  30.318  0.00  0.00    -0.029 A 
ATOM     35  C   UNL     1      -5.850  17.913  29.110  0.00  0.00    +0.045 C 
ENDROOT
BRANCH  10   9
ATOM      4  C   UNL     1      -3.510  12.828  29.062  0.00  0.00    +0.077 A 
ATOM      5  C   UNL     1      -4.665  12.208  28.479  0.00  0.00    +0.048 A 
ATOM      6  C   UNL     1      -5.922  12.796  28.747  0.00  0.00    +0.116 A 
ATOM      7  N   UNL     1      -6.006  13.920  29.540  0.00  0.00    -0.223 NA
ATOM      8  C   UNL     1      -4.872  14.491  30.089  0.00  0.00    +0.220 A 
ATOM      9  N   UNL     1      -4.932  15.626  30.883  0.00  0.00    -0.283 N 
ATOM     36  H   UNL     1      -4.074  16.013  31.275  0.00  0.00    +0.155 HD
ATOM     37  N   UNL     1      -3.661  13.948  29.849  0.00  0.00    -0.214 NA
BRANCH   4   3
ATOM      1  C   UNL     1      -0.064  11.904  27.459  0.00  0.00    +0.020 A 
ATOM      2  C   UNL     1      -1.414  12.403  27.592  0.00  0.00    +0.013 A 
ATOM      3  C   UNL     1      -2.113  12.327  28.869  0.00  0.00    +0.019 A 
ATOM     38  C   UNL     1      -1.413  11.737  30.000  0.00  0.00    +0.120 A 
ATOM     39  N   UNL     1      -0.114  11.264  29.841  0.00  0.00    -0.263 NA
ATOM     40  C   UNL     1       0.568  11.330  28.617  0.00  0.00    +0.111 A 
ENDBRANCH   4   3
ENDBRANCH  10   9
BRANCH  12  13
ATOM     13  N   UNL     1      -9.029  15.972  33.684  0.00  0.00    -0.281 N 
ATOM     14  C   UNL     1     -10.065  15.052  33.675  0.00  0.00    +0.248 C 
ATOM     30  O   UNL     1     -10.583  14.605  32.663  0.00  0.00    -0.270 OA
ATOM     31  H   UNL     1      -8.823  16.406  34.584  0.00  0.00    +0.155 HD
BRANCH  14  15
ATOM     15  C   UNL     1     -10.613  14.569  34.979  0.00  0.00    +0.037 A 
ATOM     16  C   UNL     1     -11.355  13.309  35.072  0.00  0.00    +0.013 A 
ATOM     17  C   UNL     1     -11.888  12.874  36.339  0.00  0.00    +0.005 A 
ATOM     18  C   UNL     1     -11.679  13.701  37.525  0.00  0.00    -0.033 A 
ATOM     28  C   UNL     1     -10.935  14.944  37.405  0.00  0.00    +0.005 A 
ATOM     29  C   UNL     1     -10.412  15.374  36.165  0.00  0.00    +0.013 A 
BRANCH  18  19
ATOM     19  C   UNL     1     -12.230  13.327  38.913  0.00  0.00    +0.119 C 
BRANCH  19  20
ATOM     20  N   UNL     1     -13.701  13.098  39.026  0.00  0.00    -0.302 NA
ATOM     21  C   UNL     1     -14.487  14.412  39.045  0.00  0.00    +0.066 C 
ATOM     22  C   UNL     1     -16.026  14.154  39.140  0.00  0.00    -0.064 C 
ATOM     23  N   UNL     1     -16.325  13.326  40.392  0.00  0.00    +0.379 N 
ATOM     24  C   UNL     1     -17.777  13.131  40.516  0.00  0.00    -0.096 C 
ATOM     25  H   UNL     1     -15.986  13.916  41.275  0.00  0.00    -0.082 HD
ATOM     26  C   UNL     1     -15.545  12.019  40.382  0.00  0.00    -0.064 C 
ATOM     27  C   UNL     1     -14.019  12.286  40.257  0.00  0.00    +0.066 C 
ENDBRANCH  19  20
ENDBRANCH  18  19
ENDBRANCH  14  15
ENDBRANCH  12  13
TORSDOF 6
ENDMDL
MODEL 5
REMARK VINA RESULT:      -7.8      3.755     12.360
REMARK  Name = C:\Users\Docking\Desktop\test protocol\1iep_ligandH.pdb
REMARK  8 active torsions:
REMARK  status: ('A' for Active; 'I' for Inactive)
REMARK    1  A    between atoms: _5  and  _11
REMARK    2  A    between atoms: _19  and  _21
REMARK    3  A    between atoms: _22  and  _66
REMARK    4  A    between atoms: _27  and  _30
REMARK    5  A    between atoms: _32  and  _33
REMARK    6  A    between atoms: _38  and  _43
REMARK    7  A    between atoms: _43  and  _46
REMARK    8  A    between atoms: _53  and  _55
REMARK                            x       y       z     vdW  Elec       q    Type
REMARK                         _______ _______ _______ _____ _____    ______ ____
ROOT
ATOM     10  C   UNL     1     -10.115  23.874  25.340  0.00  0.00    +0.038 A 
ATOM     11  C   UNL     1      -9.808  22.798  26.211  0.00  0.00    +0.047 A 
ATOM     12  C   UNL     1      -9.330  21.524  25.695  0.00  0.00    +0.035 A 
ATOM     32  C   UNL     1      -9.175  21.383  24.285  0.00  0.00    +0.024 A 
ATOM     33  C   UNL     1      -9.484  22.466  23.385  0.00  0.00    +0.007 A 
ATOM     34  C   UNL     1      -9.957  23.723  23.888  0.00  0.00    -0.029 A 
ATOM     35  C   UNL     1     -10.279  24.848  22.876  0.00  0.00    +0.045 C 
ENDROOT
BRANCH  10   9
ATOM      4  C   UNL     1     -13.604  27.007  26.365  0.00  0.00    +0.077 A 
ATOM      5  C   UNL     1     -14.601  26.196  25.728  0.00  0.00    +0.048 A 
ATOM      6  C   UNL     1     -14.173  24.983  25.142  0.00  0.00    +0.116 A 
ATOM      7  N   UNL     1     -12.845  24.619  25.196  0.00  0.00    -0.223 NA
ATOM      8  C   UNL     1     -11.909  25.425  25.817  0.00  0.00    +0.220 A 
ATOM      9  N   UNL     1     -10.570  25.075  25.890  0.00  0.00    -0.283 N 
ATOM     36  H   UNL     1      -9.909  25.700  26.351  0.00  0.00    +0.155 HD
ATOM     37  N   UNL     1     -12.292  26.589  26.383  0.00  0.00    -0.214 NA
BRANCH   4   3
ATOM      1  C   UNL     1     -14.916  30.623  27.075  0.00  0.00    +0.020 A 
ATOM      2  C   UNL     1     -14.657  29.379  26.387  0.00  0.00    +0.013 A 
ATOM      3  C   UNL     1     -13.900  28.314  27.032  0.00  0.00    +0.019 A 
ATOM     38  C   UNL     1     -13.416  28.540  28.386  0.00  0.00    +0.120 A 
ATOM     39  N   UNL     1     -13.680  29.749  29.024  0.00  0.00    -0.263 NA
ATOM     40  C   UNL     1     -14.405  30.782  28.412  0.00  0.00    +0.111 A 
ENDBRANCH   4   3
ENDBRANCH  10   9
BRANCH  12  13
ATOM     13  N   UNL     1      -9.010  20.394  26.530  0.00  0.00    -0.281 N 
ATOM     14  C   UNL     1      -7.801  19.725  26.631  0.00  0.00    +0.248 C 
ATOM     30  O   UNL     1      -6.867  19.865  25.856  0.00  0.00    -0.270 OA
ATOM     31  H   UNL     1      -9.766  20.044  27.119  0.00  0.00    +0.155 HD
BRANCH  14  15
ATOM     15  C   UNL     1      -7.607  18.748  27.746  0.00  0.00    +0.037 A 
ATOM     16  C   UNL     1      -8.723  17.949  28.259  0.00  0.00    +0.013 A 
ATOM     17  C   UNL     1      -8.512  17.027  29.347  0.00  0.00    +0.005 A 
ATOM     18  C   UNL     1      -7.178  16.898  29.928  0.00  0.00    -0.033 A 
ATOM     28  C   UNL     1      -6.088  17.700  29.396  0.00  0.00    +0.005 A 
ATOM     29  C   UNL     1      -6.291  18.605  28.331  0.00  0.00    +0.013 A 
BRANCH  18  19
ATOM     19  C   UNL     1      -6.866  15.955  31.105  0.00  0.00    +0.119 C 
BRANCH  19  20
ATOM     20  N   UNL     1      -6.006  14.767  30.820  0.00  0.00    -0.302 NA
ATOM     21  C   UNL     1      -6.413  14.062  29.523  0.00  0.00    +0.066 C 
ATOM     22  C   UNL     1      -5.490  12.835  29.229  0.00  0.00    -0.064 C 
ATOM     23  N   UNL     1      -5.541  11.866  30.411  0.00  0.00    +0.379 N 
ATOM     24  C   UNL     1      -4.719  10.684  30.113  0.00  0.00    -0.096 C 
ATOM     25  H   UNL     1      -6.596  11.525  30.523  0.00  0.00    -0.082 HD
ATOM     26  C   UNL     1      -5.140  12.560  31.705  0.00  0.00    -0.064 C 
ATOM     27  C   UNL     1      -6.045  13.795  31.973  0.00  0.00    +0.066 C 
ENDBRANCH  19  20
ENDBRANCH  18  19
ENDBRANCH  14  15
ENDBRANCH  12  13
TORSDOF 6
ENDMDL
