MODEL 1
REMARK VINA RESULT:     -11.1      0.000      0.000
REMARK  Name = C:\Users\Docking\Desktop\test protocol\1iep_ligandH.pdb
REMARK  8 active torsions:
REMARK  status: ('A' for Active; 'I' for Inactive)
REMARK    1  A    between atoms: _5  and  _11
REMARK    2  A    between atoms: _19  and  _21
REMARK    3  A    between atoms: _22  and  _66
REMARK    4  A    between atoms: _27  and  _30
REMARK    5  A    between atoms: _32  and  _33
REMARK    6  A    between atoms: _38  and  _43
REMARK    7  A    between atoms: _43  and  _46
REMARK    8  A    between atoms: _53  and  _55
REMARK                            x       y       z     vdW  Elec       q    Type
REMARK                         _______ _______ _______ _____ _____    ______ ____
ROOT
ATOM     10  C   UNL     1       4.190  22.485 134.503  0.00  0.00    +0.038 A 
ATOM     11  C   UNL     1       4.212  21.214 135.132  0.00  0.00    +0.047 A 
ATOM     12  C   UNL     1       5.392  20.748 135.844  0.00  0.00    +0.035 A 
ATOM     32  C   UNL     1       6.531  21.604 135.898  0.00  0.00    +0.024 A 
ATOM     33  C   UNL     1       6.525  22.898 135.263  0.00  0.00    +0.007 A 
ATOM     34  C   UNL     1       5.365  23.362 134.557  0.00  0.00    -0.029 A 
ATOM     35  C   UNL     1       5.418  24.757 133.890  0.00  0.00    +0.045 C 
ENDROOT
BRANCH  10   9
ATOM      4  C   UNL     1       1.553  22.952 130.520  0.00  0.00    +0.077 A 
ATOM      5  C   UNL     1       2.582  22.381 129.700  0.00  0.00    +0.048 A 
ATOM      6  C   UNL     1       3.778  21.987 130.341  0.00  0.00    +0.116 A 
ATOM      7  N   UNL     1       3.922  22.155 131.701  0.00  0.00    -0.223 NA
ATOM      8  C   UNL     1       2.910  22.711 132.462  0.00  0.00    +0.220 A 
ATOM      9  N   UNL     1       3.030  22.882 133.833  0.00  0.00    -0.283 N 
ATOM     36  H   UNL     1       2.264  23.303 134.358  0.00  0.00    +0.155 HD
ATOM     37  N   UNL     1       1.759  23.097 131.874  0.00  0.00    -0.214 NA
BRANCH   4   3
ATOM      1  C   UNL     1      -2.271  23.217 129.741  0.00  0.00    +0.020 A 
ATOM      2  C   UNL     1      -1.022  22.729 130.277  0.00  0.00    +0.013 A 
ATOM      3  C   UNL     1       0.231  23.415 129.990  0.00  0.00    +0.019 A 
ATOM     38  C   UNL     1       0.185  24.602 129.150  0.00  0.00    +0.120 A 
ATOM     39  N   UNL     1      -1.033  25.049 128.646  0.00  0.00    -0.263 NA
ATOM     40  C   UNL     1      -2.245  24.395 128.915  0.00  0.00    +0.111 A 
ENDBRANCH   4   3
ENDBRANCH  10   9
BRANCH  12  13
ATOM     13  N   UNL     1       5.476  19.464 136.495  0.00  0.00    -0.281 N 
ATOM     14  C   UNL     1       6.246  18.372 136.128  0.00  0.00    +0.248 C 
ATOM     30  O   UNL     1       6.821  18.261 135.056  0.00  0.00    -0.270 OA
ATOM     31  H   UNL     1       4.898  19.346 137.327  0.00  0.00    +0.155 HD
BRANCH  14  15
ATOM     15  C   UNL     1       6.386  17.233 137.086  0.00  0.00    +0.037 A 
ATOM     16  C   UNL     1       6.995  15.965 136.675  0.00  0.00    +0.013 A 
ATOM     17  C   UNL     1       7.101  14.877 137.614  0.00  0.00    +0.005 A 
ATOM     18  C   UNL     1       6.599  15.052 138.974  0.00  0.00    -0.033 A 
ATOM     28  C   UNL     1       6.004  16.322 139.357  0.00  0.00    +0.005 A 
ATOM     29  C   UNL     1       5.897  17.391 138.439  0.00  0.00    +0.013 A 
BRANCH  18  19
ATOM     19  C   UNL     1       6.652  13.937 140.036  0.00  0.00    +0.119 C 
BRANCH  19  20
ATOM     20  N   UNL     1       7.403  14.227 141.294  0.00  0.00    -0.302 NA
ATOM     21  C   UNL     1       8.226  13.023 141.761  0.00  0.00    +0.066 C 
ATOM     22  C   UNL     1       9.023  13.351 143.066  0.00  0.00    -0.064 C 
ATOM     23  N   UNL     1       8.048  13.796 144.157  0.00  0.00    +0.379 N 
ATOM     24  C   UNL     1       8.787  14.049 145.403  0.00  0.00    -0.096 C 
ATOM     25  H   UNL     1       7.344  12.952 144.347  0.00  0.00    -0.082 HD
ATOM     26  C   UNL     1       7.223  14.991 143.700  0.00  0.00    -0.064 C 
ATOM     27  C   UNL     1       6.458  14.665 142.386  0.00  0.00    +0.066 C 
ENDBRANCH  19  20
ENDBRANCH  18  19
ENDBRANCH  14  15
ENDBRANCH  12  13
TORSDOF 6
ENDMDL
MODEL 2
REMARK VINA RESULT:     -10.4      1.203      1.880
REMARK  Name = C:\Users\Docking\Desktop\test protocol\1iep_ligandH.pdb
REMARK  8 active torsions:
REMARK  status: ('A' for Active; 'I' for Inactive)
REMARK    1  A    between atoms: _5  and  _11
REMARK    2  A    between atoms: _19  and  _21
REMARK    3  A    between atoms: _22  and  _66
REMARK    4  A    between atoms: _27  and  _30
REMARK    5  A    between atoms: _32  and  _33
REMARK    6  A    between atoms: _38  and  _43
REMARK    7  A    between atoms: _43  and  _46
REMARK    8  A    between atoms: _53  and  _55
REMARK                            x       y       z     vdW  Elec       q    Type
REMARK                         _______ _______ _______ _____ _____    ______ ____
ROOT
ATOM     10  C   UNL     1       5.480  22.360 134.416  0.00  0.00    +0.038 A 
ATOM     11  C   UNL     1       5.253  21.070 134.959  0.00  0.00    +0.047 A 
ATOM     12  C   UNL     1       5.956  20.620 136.150  0.00  0.00    +0.035 A 
ATOM     32  C   UNL     1       6.882  21.513 136.765  0.00  0.00    +0.024 A 
ATOM     33  C   UNL     1       7.126  22.827 136.226  0.00  0.00    +0.007 A 
ATOM     34  C   UNL     1       6.437  23.275 135.050  0.00  0.00    -0.029 A 
ATOM     35  C   UNL     1       6.742  24.693 134.512  0.00  0.00    +0.045 C 
ENDROOT
BRANCH  10   9
ATOM      4  C   UNL     1       1.526  22.399 131.694  0.00  0.00    +0.077 A 
ATOM      5  C   UNL     1       0.809  21.571 132.620  0.00  0.00    +0.048 A 
ATOM      6  C   UNL     1       1.496  21.151 133.781  0.00  0.00    +0.116 A 
ATOM      7  N   UNL     1       2.802  21.536 133.991  0.00  0.00    -0.223 NA
ATOM      8  C   UNL     1       3.466  22.334 133.076  0.00  0.00    +0.220 A 
ATOM      9  N   UNL     1       4.777  22.740 133.270  0.00  0.00    -0.283 N 
ATOM     36  H   UNL     1       5.233  23.322 132.569  0.00  0.00    +0.155 HD
ATOM     37  N   UNL     1       2.832  22.747 131.959  0.00  0.00    -0.214 NA
BRANCH   4   3
ATOM      1  C   UNL     1       1.046  24.292 128.305  0.00  0.00    +0.020 A 
ATOM      2  C   UNL     1       1.662  23.811 129.520  0.00  0.00    +0.013 A 
ATOM      3  C   UNL     1       0.936  22.927 130.424  0.00  0.00    +0.019 A 
ATOM     38  C   UNL     1      -0.421  22.545 130.065  0.00  0.00    +0.120 A 
ATOM     39  N   UNL     1      -0.989  23.025 128.889  0.00  0.00    -0.263 NA
ATOM     40  C   UNL     1      -0.301  23.877 128.012  0.00  0.00    +0.111 A 
ENDBRANCH   4   3
ENDBRANCH  10   9
BRANCH  12  13
ATOM     13  N   UNL     1       5.773  19.318 136.742  0.00  0.00    -0.281 N 
ATOM     14  C   UNL     1       6.647  18.244 136.725  0.00  0.00    +0.248 C 
ATOM     30  O   UNL     1       7.636  18.169 136.010  0.00  0.00    -0.270 OA
ATOM     31  H   UNL     1       4.892  19.171 137.234  0.00  0.00    +0.155 HD
BRANCH  14  15
ATOM     15  C   UNL     1       6.377  17.078 137.620  0.00  0.00    +0.037 A 
ATOM     16  C   UNL     1       7.181  15.856 137.540  0.00  0.00    +0.013 A 
ATOM     17  C   UNL     1       6.888  14.739 138.403  0.00  0.00    +0.005 A 
ATOM     18  C   UNL     1       5.785  14.841 139.356  0.00  0.00    -0.033 A 
ATOM     28  C   UNL     1       5.007  16.067 139.418  0.00  0.00    +0.005 A 
ATOM     29  C   UNL     1       5.291  17.163 138.573  0.00  0.00    +0.013 A 
BRANCH  18  19
ATOM     19  C   UNL     1       5.388  13.692 140.301  0.00  0.00    +0.119 C 
BRANCH  19  20
ATOM     20  N   UNL     1       6.057  13.642 141.636  0.00  0.00    -0.302 NA
ATOM     21  C   UNL     1       5.758  14.887 142.475  0.00  0.00    +0.066 C 
ATOM     22  C   UNL     1       6.447  14.808 143.876  0.00  0.00    -0.064 C 
ATOM     23  N   UNL     1       7.955  14.628 143.691  0.00  0.00    +0.379 N 
ATOM     24  C   UNL     1       8.612  14.611 145.005  0.00  0.00    -0.096 C 
ATOM     25  H   UNL     1       8.335  15.516 143.134  0.00  0.00    -0.082 HD
ATOM     26  C   UNL     1       8.260  13.394 142.855  0.00  0.00    -0.064 C 
ATOM     27  C   UNL     1       7.547  13.469 141.476  0.00  0.00    +0.066 C 
ENDBRANCH  19  20
ENDBRANCH  18  19
ENDBRANCH  14  15
ENDBRANCH  12  13
TORSDOF 6
ENDMDL
MODEL 3
REMARK VINA RESULT:     -10.4      3.321     12.533
REMARK  Name = C:\Users\Docking\Desktop\test protocol\1iep_ligandH.pdb
REMARK  8 active torsions:
REMARK  status: ('A' for Active; 'I' for Inactive)
REMARK    1  A    between atoms: _5  and  _11
REMARK    2  A    between atoms: _19  and  _21
REMARK    3  A    between atoms: _22  and  _66
REMARK    4  A    between atoms: _27  and  _30
REMARK    5  A    between atoms: _32  and  _33
REMARK    6  A    between atoms: _38  and  _43
REMARK    7  A    between atoms: _43  and  _46
REMARK    8  A    between atoms: _53  and  _55
REMARK                            x       y       z     vdW  Elec       q    Type
REMARK                         _______ _______ _______ _____ _____    ______ ____
ROOT
ATOM     10  C   UNL     1       5.726  16.740 139.233  0.00  0.00    +0.038 A 
ATOM     11  C   UNL     1       5.483  17.869 138.409  0.00  0.00    +0.047 A 
ATOM     12  C   UNL     1       6.164  18.031 137.134  0.00  0.00    +0.035 A 
ATOM     32  C   UNL     1       7.085  17.021 136.728  0.00  0.00    +0.024 A 
ATOM     33  C   UNL     1       7.344  15.868 137.553  0.00  0.00    +0.007 A 
ATOM     34  C   UNL     1       6.677  15.704 138.812  0.00  0.00    -0.029 A 
ATOM     35  C   UNL     1       6.999  14.451 139.659  0.00  0.00    +0.045 C 
ENDROOT
BRANCH  10   9
ATOM      4  C   UNL     1       2.135  15.061 141.940  0.00  0.00    +0.077 A 
ATOM      5  C   UNL     1       1.554  14.355 140.835  0.00  0.00    +0.048 A 
ATOM      6  C   UNL     1       2.206  14.455 139.585  0.00  0.00    +0.116 A 
ATOM      7  N   UNL     1       3.353  15.208 139.461  0.00  0.00    -0.223 NA
ATOM      8  C   UNL     1       3.886  15.879 140.547  0.00  0.00    +0.220 A 
ATOM      9  N   UNL     1       5.043  16.635 140.447  0.00  0.00    -0.283 N 
ATOM     36  H   UNL     1       5.401  17.121 141.269  0.00  0.00    +0.155 HD
ATOM     37  N   UNL     1       3.282  15.800 141.750  0.00  0.00    -0.214 NA
BRANCH   4   3
ATOM      1  C   UNL     1      -0.325  14.716 144.961  0.00  0.00    +0.020 A 
ATOM      2  C   UNL     1       0.175  14.711 143.606  0.00  0.00    +0.013 A 
ATOM      3  C   UNL     1       1.564  15.051 143.324  0.00  0.00    +0.019 A 
ATOM     38  C   UNL     1       2.428  15.392 144.445  0.00  0.00    +0.120 A 
ATOM     39  N   UNL     1       1.917  15.389 145.739  0.00  0.00    -0.263 NA
ATOM     40  C   UNL     1       0.582  15.066 146.022  0.00  0.00    +0.111 A 
ENDBRANCH   4   3
ENDBRANCH  10   9
BRANCH  12  13
ATOM     13  N   UNL     1       5.965  19.160 136.260  0.00  0.00    -0.281 N 
ATOM     14  C   UNL     1       6.724  20.315 136.174  0.00  0.00    +0.248 C 
ATOM     30  O   UNL     1       7.571  20.648 136.990  0.00  0.00    -0.270 OA
ATOM     31  H   UNL     1       5.167  19.100 135.627  0.00  0.00    +0.155 HD
BRANCH  14  15
ATOM     15  C   UNL     1       6.501  21.242 135.022  0.00  0.00    +0.037 A 
ATOM     16  C   UNL     1       6.381  20.737 133.652  0.00  0.00    +0.013 A 
ATOM     17  C   UNL     1       6.183  21.654 132.558  0.00  0.00    +0.005 A 
ATOM     18  C   UNL     1       6.101  23.087 132.831  0.00  0.00    -0.033 A 
ATOM     28  C   UNL     1       6.218  23.560 134.200  0.00  0.00    +0.005 A 
ATOM     29  C   UNL     1       6.414  22.664 135.275  0.00  0.00    +0.013 A 
BRANCH  18  19
ATOM     19  C   UNL     1       5.913  24.139 131.722  0.00  0.00    +0.119 C 
BRANCH  19  20
ATOM     20  N   UNL     1       4.565  24.227 131.085  0.00  0.00    -0.302 NA
ATOM     21  C   UNL     1       3.438  23.940 132.082  0.00  0.00    +0.066 C 
ATOM     22  C   UNL     1       2.034  24.058 131.404  0.00  0.00    -0.064 C 
ATOM     23  N   UNL     1       1.963  23.098 130.214  0.00  0.00    +0.379 N 
ATOM     24  C   UNL     1       0.625  23.165 129.610  0.00  0.00    -0.096 C 
ATOM     25  H   UNL     1       2.107  22.064 130.605  0.00  0.00    -0.082 HD
ATOM     26  C   UNL     1       3.082  23.375 129.220  0.00  0.00    -0.064 C 
ATOM     27  C   UNL     1       4.471  23.284 129.910  0.00  0.00    +0.066 C 
ENDBRANCH  19  20
ENDBRANCH  18  19
ENDBRANCH  14  15
ENDBRANCH  12  13
TORSDOF 6
ENDMDL
MODEL 4
REMARK VINA RESULT:     -10.2      2.258      3.122
REMARK  Name = C:\Users\Docking\Desktop\test protocol\1iep_ligandH.pdb
REMARK  8 active torsions:
REMARK  status: ('A' for Active; 'I' for Inactive)
REMARK    1  A    between atoms: _5  and  _11
REMARK    2  A    between atoms: _19  and  _21
REMARK    3  A    between atoms: _22  and  _66
REMARK    4  A    between atoms: _27  and  _30
REMARK    5  A    between atoms: _32  and  _33
REMARK    6  A    between atoms: _38  and  _43
REMARK    7  A    between atoms: _43  and  _46
REMARK    8  A    between atoms: _53  and  _55
REMARK                            x       y       z     vdW  Elec       q    Type
REMARK                         _______ _______ _______ _____ _____    ______ ____
ROOT
ATOM     10  C   UNL     1       4.403  22.225 133.430  0.00  0.00    +0.038 A 
ATOM     11  C   UNL     1       4.455  20.944 134.038  0.00  0.00    +0.047 A 
ATOM     12  C   UNL     1       5.496  20.607 134.996  0.00  0.00    +0.035 A 
ATOM     32  C   UNL     1       6.468  21.600 135.315  0.00  0.00    +0.024 A 
ATOM     33  C   UNL     1       6.431  22.906 134.706  0.00  0.00    +0.007 A 
ATOM     34  C   UNL     1       5.408  23.243 133.758  0.00  0.00    -0.029 A 
ATOM     35  C   UNL     1       5.422  24.657 133.132  0.00  0.00    +0.045 C 
ENDROOT
BRANCH  10   9
ATOM      4  C   UNL     1      -0.138  21.843 131.925  0.00  0.00    +0.077 A 
ATOM      5  C   UNL     1      -0.500  21.013 133.038  0.00  0.00    +0.048 A 
ATOM      6  C   UNL     1       0.514  20.702 133.972  0.00  0.00    +0.116 A 
ATOM      7  N   UNL     1       1.791  21.190 133.796  0.00  0.00    -0.223 NA
ATOM      8  C   UNL     1       2.106  21.986 132.710  0.00  0.00    +0.220 A 
ATOM      9  N   UNL     1       3.382  22.494 132.517  0.00  0.00    -0.283 N 
ATOM     36  H   UNL     1       3.576  23.072 131.699  0.00  0.00    +0.155 HD
ATOM     37  N   UNL     1       1.156  22.296 131.803  0.00  0.00    -0.214 NA
BRANCH   4   3
ATOM      1  C   UNL     1      -3.420  22.769 130.010  0.00  0.00    +0.020 A 
ATOM      2  C   UNL     1      -2.536  22.360 131.076  0.00  0.00    +0.013 A 
ATOM      3  C   UNL     1      -1.099  22.261 130.855  0.00  0.00    +0.019 A 
ATOM     38  C   UNL     1      -0.584  22.588 129.534  0.00  0.00    +0.120 A 
ATOM     39  N   UNL     1      -1.460  22.978 128.526  0.00  0.00    -0.263 NA
ATOM     40  C   UNL     1      -2.845  23.075 128.726  0.00  0.00    +0.111 A 
ENDBRANCH   4   3
ENDBRANCH  10   9
BRANCH  12  13
ATOM     13  N   UNL     1       5.603  19.321 135.639  0.00  0.00    -0.281 N 
ATOM     14  C   UNL     1       6.693  18.466 135.657  0.00  0.00    +0.248 C 
ATOM     30  O   UNL     1       7.675  18.583 134.939  0.00  0.00    -0.270 OA
ATOM     31  H   UNL     1       4.775  19.002 136.142  0.00  0.00    +0.155 HD
BRANCH  14  15
ATOM     15  C   UNL     1       6.684  17.305 136.598  0.00  0.00    +0.037 A 
ATOM     16  C   UNL     1       7.026  15.955 136.143  0.00  0.00    +0.013 A 
ATOM     17  C   UNL     1       6.994  14.850 137.067  0.00  0.00    +0.005 A 
ATOM     18  C   UNL     1       6.619  15.091 138.459  0.00  0.00    -0.033 A 
ATOM     28  C   UNL     1       6.290  16.441 138.885  0.00  0.00    +0.005 A 
ATOM     29  C   UNL     1       6.319  17.526 137.981  0.00  0.00    +0.013 A 
BRANCH  18  19
ATOM     19  C   UNL     1       6.537  13.968 139.509  0.00  0.00    +0.119 C 
BRANCH  19  20
ATOM     20  N   UNL     1       5.440  12.966 139.355  0.00  0.00    -0.302 NA
ATOM     21  C   UNL     1       4.069  13.560 139.689  0.00  0.00    +0.066 C 
ATOM     22  C   UNL     1       2.931  12.504 139.500  0.00  0.00    -0.064 C 
ATOM     23  N   UNL     1       3.220  11.285 140.377  0.00  0.00    +0.379 N 
ATOM     24  C   UNL     1       2.122  10.315 140.247  0.00  0.00    -0.096 C 
ATOM     25  H   UNL     1       3.244  11.628 141.437  0.00  0.00    -0.082 HD
ATOM     26  C   UNL     1       4.583  10.689 140.054  0.00  0.00    -0.064 C 
ATOM     27  C   UNL     1       5.704  11.754 140.216  0.00  0.00    +0.066 C 
ENDBRANCH  19  20
ENDBRANCH  18  19
ENDBRANCH  14  15
ENDBRANCH  12  13
TORSDOF 6
ENDMDL
MODEL 5
REMARK VINA RESULT:      -9.8      5.186      7.924
REMARK  Name = C:\Users\Docking\Desktop\test protocol\1iep_ligandH.pdb
REMARK  8 active torsions:
REMARK  status: ('A' for Active; 'I' for Inactive)
REMARK    1  A    between atoms: _5  and  _11
REMARK    2  A    between atoms: _19  and  _21
REMARK    3  A    between atoms: _22  and  _66
REMARK    4  A    between atoms: _27  and  _30
REMARK    5  A    between atoms: _32  and  _33
REMARK    6  A    between atoms: _38  and  _43
REMARK    7  A    between atoms: _43  and  _46
REMARK    8  A    between atoms: _53  and  _55
REMARK                            x       y       z     vdW  Elec       q    Type
REMARK                         _______ _______ _______ _____ _____    ______ ____
ROOT
ATOM     10  C   UNL     1       6.066  17.845 137.254  0.00  0.00    +0.038 A 
ATOM     11  C   UNL     1       5.075  17.663 138.252  0.00  0.00    +0.047 A 
ATOM     12  C   UNL     1       5.278  16.735 139.354  0.00  0.00    +0.035 A 
ATOM     32  C   UNL     1       6.504  16.010 139.410  0.00  0.00    +0.024 A 
ATOM     33  C   UNL     1       7.522  16.183 138.403  0.00  0.00    +0.007 A 
ATOM     34  C   UNL     1       7.326  17.095 137.313  0.00  0.00    -0.029 A 
ATOM     35  C   UNL     1       8.449  17.234 136.259  0.00  0.00    +0.045 C 
ENDROOT
BRANCH  10   9
ATOM      4  C   UNL     1       6.324  22.224 135.307  0.00  0.00    +0.077 A 
ATOM      5  C   UNL     1       6.985  22.763 136.461  0.00  0.00    +0.048 A 
ATOM      6  C   UNL     1       7.233  21.882 137.537  0.00  0.00    +0.116 A 
ATOM      7  N   UNL     1       6.846  20.562 137.454  0.00  0.00    -0.223 NA
ATOM      8  C   UNL     1       6.209  20.075 136.327  0.00  0.00    +0.220 A 
ATOM      9  N   UNL     1       5.819  18.749 136.219  0.00  0.00    -0.283 N 
ATOM     36  H   UNL     1       5.345  18.431 135.374  0.00  0.00    +0.155 HD
ATOM     37  N   UNL     1       5.960  20.897 135.287  0.00  0.00    -0.214 NA
BRANCH   4   3
ATOM      1  C   UNL     1       6.279  25.042 132.594  0.00  0.00    +0.020 A 
ATOM      2  C   UNL     1       6.632  24.305 133.786  0.00  0.00    +0.013 A 
ATOM      3  C   UNL     1       5.996  23.029 134.088  0.00  0.00    +0.019 A 
ATOM     38  C   UNL     1       4.998  22.523 133.157  0.00  0.00    +0.120 A 
ATOM     39  N   UNL     1       4.677  23.256 132.019  0.00  0.00    -0.263 NA
ATOM     40  C   UNL     1       5.282  24.486 131.718  0.00  0.00    +0.111 A 
ENDBRANCH   4   3
ENDBRANCH  10   9
BRANCH  12  13
ATOM     13  N   UNL     1       4.304  16.502 140.391  0.00  0.00    -0.281 N 
ATOM     14  C   UNL     1       3.813  15.287 140.842  0.00  0.00    +0.248 C 
ATOM     30  O   UNL     1       3.980  14.220 140.271  0.00  0.00    -0.270 OA
ATOM     31  H   UNL     1       3.931  17.334 140.850  0.00  0.00    +0.155 HD
BRANCH  14  15
ATOM     15  C   UNL     1       3.008  15.256 142.101  0.00  0.00    +0.037 A 
ATOM     16  C   UNL     1       3.616  15.556 143.399  0.00  0.00    +0.013 A 
ATOM     17  C   UNL     1       2.821  15.502 144.600  0.00  0.00    +0.005 A 
ATOM     18  C   UNL     1       1.406  15.147 144.507  0.00  0.00    -0.033 A 
ATOM     28  C   UNL     1       0.827  14.859 143.205  0.00  0.00    +0.005 A 
ATOM     29  C   UNL     1       1.604  14.910 142.026  0.00  0.00    +0.013 A 
BRANCH  18  19
ATOM     19  C   UNL     1       0.487  15.044 145.739  0.00  0.00    +0.119 C 
BRANCH  19  20
ATOM     20  N   UNL     1      -0.669  14.102 145.653  0.00  0.00    -0.302 NA
ATOM     21  C   UNL     1      -2.002  14.841 145.503  0.00  0.00    +0.066 C 
ATOM     22  C   UNL     1      -3.198  13.840 145.392  0.00  0.00    -0.064 C 
ATOM     23  N   UNL     1      -3.216  12.933 146.623  0.00  0.00    +0.379 N 
ATOM     24  C   UNL     1      -4.374  12.030 146.550  0.00  0.00    -0.096 C 
ATOM     25  H   UNL     1      -3.350  13.582 147.519  0.00  0.00    -0.082 HD
ATOM     26  C   UNL     1      -1.893  12.197 146.781  0.00  0.00    -0.064 C 
ATOM     27  C   UNL     1      -0.708  13.200 146.861  0.00  0.00    +0.066 C 
ENDBRANCH  19  20
ENDBRANCH  18  19
ENDBRANCH  14  15
ENDBRANCH  12  13
TORSDOF 6
ENDMDL
