MODEL 1
REMARK VINA RESULT:      -7.7      0.000      0.000
REMARK  Name = C:\Users\Docking\Desktop\test protocol\1iep_ligandH.pdb
REMARK  8 active torsions:
REMARK  status: ('A' for Active; 'I' for Inactive)
REMARK    1  A    between atoms: _5  and  _11
REMARK    2  A    between atoms: _19  and  _21
REMARK    3  A    between atoms: _22  and  _66
REMARK    4  A    between atoms: _27  and  _30
REMARK    5  A    between atoms: _32  and  _33
REMARK    6  A    between atoms: _38  and  _43
REMARK    7  A    between atoms: _43  and  _46
REMARK    8  A    between atoms: _53  and  _55
REMARK                            x       y       z     vdW  Elec       q    Type
REMARK                         _______ _______ _______ _____ _____    ______ ____
ROOT
ATOM     10  C   UNL     1      16.326  -7.226   0.959  0.00  0.00    +0.038 A 
ATOM     11  C   UNL     1      16.216  -6.221  -0.036  0.00  0.00    +0.047 A 
ATOM     12  C   UNL     1      16.695  -4.869   0.205  0.00  0.00    +0.035 A 
ATOM     32  C   UNL     1      17.284  -4.576   1.469  0.00  0.00    +0.024 A 
ATOM     33  C   UNL     1      17.403  -5.585   2.492  0.00  0.00    +0.007 A 
ATOM     34  C   UNL     1      16.930  -6.920   2.262  0.00  0.00    -0.029 A 
ATOM     35  C   UNL     1      17.077  -7.960   3.397  0.00  0.00    +0.045 C 
ENDROOT
BRANCH  10   9
ATOM      4  C   UNL     1      16.822 -11.598  -0.960  0.00  0.00    +0.077 A 
ATOM      5  C   UNL     1      18.131 -11.294  -1.461  0.00  0.00    +0.048 A 
ATOM      6  C   UNL     1      18.638  -9.999  -1.210  0.00  0.00    +0.116 A 
ATOM      7  N   UNL     1      17.883  -9.084  -0.508  0.00  0.00    -0.223 NA
ATOM      8  C   UNL     1      16.623  -9.409  -0.040  0.00  0.00    +0.220 A 
ATOM      9  N   UNL     1      15.849  -8.508   0.675  0.00  0.00    -0.283 N 
ATOM     36  H   UNL     1      14.922  -8.784   0.996  0.00  0.00    +0.155 HD
ATOM     37  N   UNL     1      16.116 -10.639  -0.268  0.00  0.00    -0.214 NA
BRANCH   4   3
ATOM      1  C   UNL     1      15.699 -15.312  -0.466  0.00  0.00    +0.020 A 
ATOM      2  C   UNL     1      16.372 -14.053  -0.247  0.00  0.00    +0.013 A 
ATOM      3  C   UNL     1      16.151 -12.924  -1.142  0.00  0.00    +0.019 A 
ATOM     38  C   UNL     1      15.235 -13.103  -2.258  0.00  0.00    +0.120 A 
ATOM     39  N   UNL     1      14.602 -14.328  -2.445  0.00  0.00    -0.263 NA
ATOM     40  C   UNL     1      14.808 -15.422  -1.592  0.00  0.00    +0.111 A 
ENDBRANCH   4   3
ENDBRANCH  10   9
BRANCH  12  13
ATOM     13  N   UNL     1      16.603  -3.805  -0.764  0.00  0.00    -0.281 N 
ATOM     14  C   UNL     1      16.968  -3.836  -2.100  0.00  0.00    +0.248 C 
ATOM     30  O   UNL     1      17.632  -4.724  -2.615  0.00  0.00    -0.270 OA
ATOM     31  H   UNL     1      16.222  -2.922  -0.424  0.00  0.00    +0.155 HD
BRANCH  14  15
ATOM     15  C   UNL     1      16.548  -2.711  -2.990  0.00  0.00    +0.037 A 
ATOM     16  C   UNL     1      16.656  -1.316  -2.555  0.00  0.00    +0.013 A 
ATOM     17  C   UNL     1      16.227  -0.251  -3.426  0.00  0.00    +0.005 A 
ATOM     18  C   UNL     1      15.687  -0.578  -4.743  0.00  0.00    -0.033 A 
ATOM     28  C   UNL     1      15.595  -1.969  -5.152  0.00  0.00    +0.005 A 
ATOM     29  C   UNL     1      16.013  -3.016  -4.300  0.00  0.00    +0.013 A 
BRANCH  18  19
ATOM     19  C   UNL     1      15.185   0.493  -5.730  0.00  0.00    +0.119 C 
BRANCH  19  20
ATOM     20  N   UNL     1      16.189   1.085  -6.665  0.00  0.00    -0.302 NA
ATOM     21  C   UNL     1      17.017   2.186  -5.996  0.00  0.00    +0.066 C 
ATOM     22  C   UNL     1      18.077   2.778  -6.981  0.00  0.00    -0.064 C 
ATOM     23  N   UNL     1      17.368   3.315  -8.226  0.00  0.00    +0.379 N 
ATOM     24  C   UNL     1      18.355   3.924  -9.129  0.00  0.00    -0.096 C 
ATOM     25  H   UNL     1      16.668   4.118  -7.897  0.00  0.00    -0.082 HD
ATOM     26  C   UNL     1      16.539   2.227  -8.896  0.00  0.00    -0.064 C 
ATOM     27  C   UNL     1      15.510   1.625  -7.900  0.00  0.00    +0.066 C 
ENDBRANCH  19  20
ENDBRANCH  18  19
ENDBRANCH  14  15
ENDBRANCH  12  13
TORSDOF 6
ENDMDL
MODEL 2
REMARK VINA RESULT:      -7.5      1.932      2.859
REMARK  Name = C:\Users\Docking\Desktop\test protocol\1iep_ligandH.pdb
REMARK  8 active torsions:
REMARK  status: ('A' for Active; 'I' for Inactive)
REMARK    1  A    between atoms: _5  and  _11
REMARK    2  A    between atoms: _19  and  _21
REMARK    3  A    between atoms: _22  and  _66
REMARK    4  A    between atoms: _27  and  _30
REMARK    5  A    between atoms: _32  and  _33
REMARK    6  A    between atoms: _38  and  _43
REMARK    7  A    between atoms: _43  and  _46
REMARK    8  A    between atoms: _53  and  _55
REMARK                            x       y       z     vdW  Elec       q    Type
REMARK                         _______ _______ _______ _____ _____    ______ ____
ROOT
ATOM     10  C   UNL     1      16.726  -7.478   0.692  0.00  0.00    +0.038 A 
ATOM     11  C   UNL     1      16.417  -6.430  -0.212  0.00  0.00    +0.047 A 
ATOM     12  C   UNL     1      16.966  -5.095  -0.031  0.00  0.00    +0.035 A 
ATOM     32  C   UNL     1      17.829  -4.864   1.080  0.00  0.00    +0.024 A 
ATOM     33  C   UNL     1      18.153  -5.918   2.009  0.00  0.00    +0.007 A 
ATOM     34  C   UNL     1      17.612  -7.236   1.837  0.00  0.00    -0.029 A 
ATOM     35  C   UNL     1      17.989  -8.327   2.867  0.00  0.00    +0.045 C 
ENDROOT
BRANCH  10   9
ATOM      4  C   UNL     1      16.853 -11.882  -1.213  0.00  0.00    +0.077 A 
ATOM      5  C   UNL     1      18.119 -11.638  -1.842  0.00  0.00    +0.048 A 
ATOM      6  C   UNL     1      18.701 -10.364  -1.656  0.00  0.00    +0.116 A 
ATOM      7  N   UNL     1      18.056  -9.413  -0.896  0.00  0.00    -0.223 NA
ATOM      8  C   UNL     1      16.835  -9.680  -0.305  0.00  0.00    +0.220 A 
ATOM      9  N   UNL     1      16.172  -8.741   0.470  0.00  0.00    -0.283 N 
ATOM     36  H   UNL     1      15.269  -8.975   0.883  0.00  0.00    +0.155 HD
ATOM     37  N   UNL     1      16.258 -10.889  -0.468  0.00  0.00    -0.214 NA
BRANCH   4   3
ATOM      1  C   UNL     1      15.567 -15.510  -0.514  0.00  0.00    +0.020 A 
ATOM      2  C   UNL     1      16.307 -14.277  -0.372  0.00  0.00    +0.013 A 
ATOM      3  C   UNL     1      16.114 -13.180  -1.313  0.00  0.00    +0.019 A 
ATOM     38  C   UNL     1      15.156 -13.365  -2.393  0.00  0.00    +0.120 A 
ATOM     39  N   UNL     1      14.459 -14.564  -2.505  0.00  0.00    -0.263 NA
ATOM     40  C   UNL     1      14.638 -15.626  -1.607  0.00  0.00    +0.111 A 
ENDBRANCH   4   3
ENDBRANCH  10   9
BRANCH  12  13
ATOM     13  N   UNL     1      16.682  -3.988  -0.911  0.00  0.00    -0.281 N 
ATOM     14  C   UNL     1      17.270  -3.697  -2.131  0.00  0.00    +0.248 C 
ATOM     30  O   UNL     1      18.285  -4.230  -2.553  0.00  0.00    -0.270 OA
ATOM     31  H   UNL     1      15.959  -3.341  -0.596  0.00  0.00    +0.155 HD
BRANCH  14  15
ATOM     15  C   UNL     1      16.648  -2.654  -3.001  0.00  0.00    +0.037 A 
ATOM     16  C   UNL     1      16.715  -1.233  -2.651  0.00  0.00    +0.013 A 
ATOM     17  C   UNL     1      16.091  -0.249  -3.500  0.00  0.00    +0.005 A 
ATOM     18  C   UNL     1      15.396  -0.683  -4.709  0.00  0.00    -0.033 A 
ATOM     28  C   UNL     1      15.350  -2.099  -5.036  0.00  0.00    +0.005 A 
ATOM     29  C   UNL     1      15.958  -3.066  -4.206  0.00  0.00    +0.013 A 
BRANCH  18  19
ATOM     19  C   UNL     1      14.685   0.296  -5.662  0.00  0.00    +0.119 C 
BRANCH  19  20
ATOM     20  N   UNL     1      13.410  -0.165  -6.289  0.00  0.00    -0.302 NA
ATOM     21  C   UNL     1      13.216   0.417  -7.692  0.00  0.00    +0.066 C 
ATOM     22  C   UNL     1      11.888  -0.093  -8.341  0.00  0.00    -0.064 C 
ATOM     23  N   UNL     1      10.709   0.270  -7.437  0.00  0.00    +0.379 N 
ATOM     24  C   UNL     1       9.454  -0.157  -8.072  0.00  0.00    -0.096 C 
ATOM     25  H   UNL     1      10.682   1.381  -7.346  0.00  0.00    -0.082 HD
ATOM     26  C   UNL     1      10.895  -0.302  -6.038  0.00  0.00    -0.064 C 
ATOM     27  C   UNL     1      12.232   0.187  -5.414  0.00  0.00    +0.066 C 
ENDBRANCH  19  20
ENDBRANCH  18  19
ENDBRANCH  14  15
ENDBRANCH  12  13
TORSDOF 6
ENDMDL
MODEL 3
REMARK VINA RESULT:      -7.3     17.250     23.559
REMARK  Name = C:\Users\Docking\Desktop\test protocol\1iep_ligandH.pdb
REMARK  8 active torsions:
REMARK  status: ('A' for Active; 'I' for Inactive)
REMARK    1  A    between atoms: _5  and  _11
REMARK    2  A    between atoms: _19  and  _21
REMARK    3  A    between atoms: _22  and  _66
REMARK    4  A    between atoms: _27  and  _30
REMARK    5  A    between atoms: _32  and  _33
REMARK    6  A    between atoms: _38  and  _43
REMARK    7  A    between atoms: _43  and  _46
REMARK    8  A    between atoms: _53  and  _55
REMARK                            x       y       z     vdW  Elec       q    Type
REMARK                         _______ _______ _______ _____ _____    ______ ____
ROOT
ATOM     10  C   UNL     1       3.763  -8.742   7.965  0.00  0.00    +0.038 A 
ATOM     11  C   UNL     1       3.717  -9.700   9.010  0.00  0.00    +0.047 A 
ATOM     12  C   UNL     1       3.073 -10.990   8.821  0.00  0.00    +0.035 A 
ATOM     32  C   UNL     1       2.488 -11.273   7.552  0.00  0.00    +0.024 A 
ATOM     33  C   UNL     1       2.524 -10.310   6.479  0.00  0.00    +0.007 A 
ATOM     34  C   UNL     1       3.156  -9.035   6.662  0.00  0.00    -0.029 A 
ATOM     35  C   UNL     1       3.159  -8.039   5.478  0.00  0.00    +0.045 C 
ENDROOT
BRANCH  10   9
ATOM      4  C   UNL     1       3.878  -4.336   9.867  0.00  0.00    +0.077 A 
ATOM      5  C   UNL     1       2.558  -4.473  10.411  0.00  0.00    +0.048 A 
ATOM      6  C   UNL     1       1.881  -5.689  10.173  0.00  0.00    +0.116 A 
ATOM      7  N   UNL     1       2.488  -6.689   9.444  0.00  0.00    -0.223 NA
ATOM      8  C   UNL     1       3.762  -6.524   8.932  0.00  0.00    +0.220 A 
ATOM      9  N   UNL     1       4.395  -7.519   8.203  0.00  0.00    -0.283 N 
ATOM     36  H   UNL     1       5.332  -7.356   7.835  0.00  0.00    +0.155 HD
ATOM     37  N   UNL     1       4.429  -5.371   9.144  0.00  0.00    -0.214 NA
BRANCH   4   3
ATOM      1  C   UNL     1       6.776  -1.727   9.552  0.00  0.00    +0.020 A 
ATOM      2  C   UNL     1       5.999  -2.929   9.355  0.00  0.00    +0.013 A 
ATOM      3  C   UNL     1       4.723  -3.112  10.035  0.00  0.00    +0.019 A 
ATOM     38  C   UNL     1       4.258  -2.050  10.915  0.00  0.00    +0.120 A 
ATOM     39  N   UNL     1       5.028  -0.904  11.086  0.00  0.00    -0.263 NA
ATOM     40  C   UNL     1       6.258  -0.718  10.438  0.00  0.00    +0.111 A 
ENDBRANCH   4   3
ENDBRANCH  10   9
BRANCH  12  13
ATOM     13  N   UNL     1       2.989 -11.999   9.848  0.00  0.00    -0.281 N 
ATOM     14  C   UNL     1       1.980 -12.185  10.778  0.00  0.00    +0.248 C 
ATOM     30  O   UNL     1       1.093 -11.376  11.006  0.00  0.00    -0.270 OA
ATOM     31  H   UNL     1       3.768 -12.656   9.894  0.00  0.00    +0.155 HD
BRANCH  14  15
ATOM     15  C   UNL     1       1.961 -13.446  11.580  0.00  0.00    +0.037 A 
ATOM     16  C   UNL     1       3.137 -14.315  11.657  0.00  0.00    +0.013 A 
ATOM     17  C   UNL     1       3.086 -15.534  12.425  0.00  0.00    +0.005 A 
ATOM     18  C   UNL     1       1.854 -15.890  13.123  0.00  0.00    -0.033 A 
ATOM     28  C   UNL     1       0.703 -15.007  13.034  0.00  0.00    +0.005 A 
ATOM     29  C   UNL     1       0.749 -13.811  12.282  0.00  0.00    +0.013 A 
BRANCH  18  19
ATOM     19  C   UNL     1       1.703 -17.182  13.948  0.00  0.00    +0.119 C 
BRANCH  19  20
ATOM     20  N   UNL     1       2.955 -17.903  14.325  0.00  0.00    -0.302 NA
ATOM     21  C   UNL     1       2.742 -19.416  14.414  0.00  0.00    +0.066 C 
ATOM     22  C   UNL     1       4.068 -20.157  14.788  0.00  0.00    -0.064 C 
ATOM     23  N   UNL     1       4.601 -19.606  16.112  0.00  0.00    +0.379 N 
ATOM     24  C   UNL     1       5.815 -20.340  16.495  0.00  0.00    -0.096 C 
ATOM     25  H   UNL     1       3.829 -19.798  16.893  0.00  0.00    -0.082 HD
ATOM     26  C   UNL     1       4.813 -18.101  16.033  0.00  0.00    -0.064 C 
ATOM     27  C   UNL     1       3.496 -17.377  15.632  0.00  0.00    +0.066 C 
ENDBRANCH  19  20
ENDBRANCH  18  19
ENDBRANCH  14  15
ENDBRANCH  12  13
TORSDOF 6
ENDMDL
MODEL 4
REMARK VINA RESULT:      -7.2      1.240      1.818
REMARK  Name = C:\Users\Docking\Desktop\test protocol\1iep_ligandH.pdb
REMARK  8 active torsions:
REMARK  status: ('A' for Active; 'I' for Inactive)
REMARK    1  A    between atoms: _5  and  _11
REMARK    2  A    between atoms: _19  and  _21
REMARK    3  A    between atoms: _22  and  _66
REMARK    4  A    between atoms: _27  and  _30
REMARK    5  A    between atoms: _32  and  _33
REMARK    6  A    between atoms: _38  and  _43
REMARK    7  A    between atoms: _43  and  _46
REMARK    8  A    between atoms: _53  and  _55
REMARK                            x       y       z     vdW  Elec       q    Type
REMARK                         _______ _______ _______ _____ _____    ______ ____
ROOT
ATOM     10  C   UNL     1      16.325  -6.972   0.867  0.00  0.00    +0.038 A 
ATOM     11  C   UNL     1      16.438  -5.920  -0.077  0.00  0.00    +0.047 A 
ATOM     12  C   UNL     1      16.959  -4.617   0.307  0.00  0.00    +0.035 A 
ATOM     32  C   UNL     1      17.360  -4.423   1.661  0.00  0.00    +0.024 A 
ATOM     33  C   UNL     1      17.252  -5.482   2.634  0.00  0.00    +0.007 A 
ATOM     34  C   UNL     1      16.736  -6.768   2.261  0.00  0.00    -0.029 A 
ATOM     35  C   UNL     1      16.636  -7.864   3.347  0.00  0.00    +0.045 C 
ENDROOT
BRANCH  10   9
ATOM      4  C   UNL     1      16.894 -11.454  -0.756  0.00  0.00    +0.077 A 
ATOM      5  C   UNL     1      18.322 -11.324  -0.789  0.00  0.00    +0.048 A 
ATOM      6  C   UNL     1      18.870 -10.085  -0.387  0.00  0.00    +0.116 A 
ATOM      7  N   UNL     1      18.042  -9.060   0.016  0.00  0.00    -0.223 NA
ATOM      8  C   UNL     1      16.669  -9.218   0.034  0.00  0.00    +0.220 A 
ATOM      9  N   UNL     1      15.817  -8.203   0.443  0.00  0.00    -0.283 N 
ATOM     36  H   UNL     1      14.809  -8.356   0.435  0.00  0.00    +0.155 HD
ATOM     37  N   UNL     1      16.120 -10.390  -0.346  0.00  0.00    -0.214 NA
BRANCH   4   3
ATOM      1  C   UNL     1      15.593 -15.141  -0.858  0.00  0.00    +0.020 A 
ATOM      2  C   UNL     1      16.320 -13.965  -0.440  0.00  0.00    +0.013 A 
ATOM      3  C   UNL     1      16.165 -12.701  -1.148  0.00  0.00    +0.019 A 
ATOM     38  C   UNL     1      15.257 -12.660  -2.285  0.00  0.00    +0.120 A 
ATOM     39  N   UNL     1      14.571 -13.809  -2.666  0.00  0.00    -0.263 NA
ATOM     40  C   UNL     1      14.714 -15.031  -1.993  0.00  0.00    +0.111 A 
ENDBRANCH   4   3
ENDBRANCH  10   9
BRANCH  12  13
ATOM     13  N   UNL     1      17.089  -3.508  -0.605  0.00  0.00    -0.281 N 
ATOM     14  C   UNL     1      17.949  -3.390  -1.685  0.00  0.00    +0.248 C 
ATOM     30  O   UNL     1      18.892  -4.136  -1.903  0.00  0.00    -0.270 OA
ATOM     31  H   UNL     1      16.472  -2.714  -0.434  0.00  0.00    +0.155 HD
BRANCH  14  15
ATOM     15  C   UNL     1      17.740  -2.272  -2.655  0.00  0.00    +0.037 A 
ATOM     16  C   UNL     1      16.521  -1.460  -2.627  0.00  0.00    +0.013 A 
ATOM     17  C   UNL     1      16.337  -0.398  -3.585  0.00  0.00    +0.005 A 
ATOM     18  C   UNL     1      17.378  -0.143  -4.579  0.00  0.00    -0.033 A 
ATOM     28  C   UNL     1      18.579  -0.960  -4.580  0.00  0.00    +0.005 A 
ATOM     29  C   UNL     1      18.762  -2.002  -3.643  0.00  0.00    +0.013 A 
BRANCH  18  19
ATOM     19  C   UNL     1      17.257   0.955  -5.653  0.00  0.00    +0.119 C 
BRANCH  19  20
ATOM     20  N   UNL     1      16.096   0.872  -6.588  0.00  0.00    -0.302 NA
ATOM     21  C   UNL     1      16.036  -0.478  -7.310  0.00  0.00    +0.066 C 
ATOM     22  C   UNL     1      14.803  -0.556  -8.268  0.00  0.00    -0.064 C 
ATOM     23  N   UNL     1      14.868   0.593  -9.274  0.00  0.00    +0.379 N 
ATOM     24  C   UNL     1      13.741   0.489 -10.213  0.00  0.00    -0.096 C 
ATOM     25  H   UNL     1      15.809   0.476  -9.861  0.00  0.00    -0.082 HD
ATOM     26  C   UNL     1      14.931   1.939  -8.565  0.00  0.00    -0.064 C 
ATOM     27  C   UNL     1      16.143   1.996  -7.594  0.00  0.00    +0.066 C 
ENDBRANCH  19  20
ENDBRANCH  18  19
ENDBRANCH  14  15
ENDBRANCH  12  13
TORSDOF 6
ENDMDL
MODEL 5
REMARK VINA RESULT:      -7.0      2.143     12.897
REMARK  Name = C:\Users\Docking\Desktop\test protocol\1iep_ligandH.pdb
REMARK  8 active torsions:
REMARK  status: ('A' for Active; 'I' for Inactive)
REMARK    1  A    between atoms: _5  and  _11
REMARK    2  A    between atoms: _19  and  _21
REMARK    3  A    between atoms: _22  and  _66
REMARK    4  A    between atoms: _27  and  _30
REMARK    5  A    between atoms: _32  and  _33
REMARK    6  A    between atoms: _38  and  _43
REMARK    7  A    between atoms: _43  and  _46
REMARK    8  A    between atoms: _53  and  _55
REMARK                            x       y       z     vdW  Elec       q    Type
REMARK                         _______ _______ _______ _____ _____    ______ ____
ROOT
ATOM     10  C   UNL     1      16.689  -5.603   0.497  0.00  0.00    +0.038 A 
ATOM     11  C   UNL     1      16.231  -6.835  -0.036  0.00  0.00    +0.047 A 
ATOM     12  C   UNL     1      16.460  -8.089   0.664  0.00  0.00    +0.035 A 
ATOM     32  C   UNL     1      17.157  -8.052   1.907  0.00  0.00    +0.024 A 
ATOM     33  C   UNL     1      17.630  -6.808   2.463  0.00  0.00    +0.007 A 
ATOM     34  C   UNL     1      17.410  -5.568   1.775  0.00  0.00    -0.029 A 
ATOM     35  C   UNL     1      17.945  -4.266   2.414  0.00  0.00    +0.045 C 
ENDROOT
BRANCH  10   9
ATOM      4  C   UNL     1      17.761  -2.442  -2.952  0.00  0.00    +0.077 A 
ATOM      5  C   UNL     1      18.928  -3.177  -3.346  0.00  0.00    +0.048 A 
ATOM      6  C   UNL     1      19.221  -4.360  -2.631  0.00  0.00    +0.116 A 
ATOM      7  N   UNL     1      18.401  -4.768  -1.601  0.00  0.00    -0.223 NA
ATOM      8  C   UNL     1      17.284  -4.034  -1.245  0.00  0.00    +0.220 A 
ATOM      9  N   UNL     1      16.442  -4.429  -0.218  0.00  0.00    -0.283 N 
ATOM     36  H   UNL     1      15.632  -3.856   0.018  0.00  0.00    +0.155 HD
ATOM     37  N   UNL     1      16.984  -2.900  -1.912  0.00  0.00    -0.214 NA
BRANCH   4   3
ATOM      1  C   UNL     1      15.705   0.741  -3.922  0.00  0.00    +0.020 A 
ATOM      2  C   UNL     1      16.087  -0.481  -3.252  0.00  0.00    +0.013 A 
ATOM      3  C   UNL     1      17.318  -1.174  -3.613  0.00  0.00    +0.019 A 
ATOM     38  C   UNL     1      18.145  -0.599  -4.663  0.00  0.00    +0.120 A 
ATOM     39  N   UNL     1      17.750   0.578  -5.291  0.00  0.00    -0.263 NA
ATOM     40  C   UNL     1      16.568   1.253  -4.954  0.00  0.00    +0.111 A 
ENDBRANCH   4   3
ENDBRANCH  10   9
BRANCH  12  13
ATOM     13  N   UNL     1      16.025  -9.372   0.169  0.00  0.00    -0.281 N 
ATOM     14  C   UNL     1      15.879  -9.770  -1.150  0.00  0.00    +0.248 C 
ATOM     30  O   UNL     1      15.897  -9.011  -2.107  0.00  0.00    -0.270 OA
ATOM     31  H   UNL     1      15.797 -10.071   0.876  0.00  0.00    +0.155 HD
BRANCH  14  15
ATOM     15  C   UNL     1      15.670 -11.220  -1.448  0.00  0.00    +0.037 A 
ATOM     16  C   UNL     1      16.444 -12.256  -0.760  0.00  0.00    +0.013 A 
ATOM     17  C   UNL     1      16.234 -13.646  -1.078  0.00  0.00    +0.005 A 
ATOM     18  C   UNL     1      15.243 -14.008  -2.089  0.00  0.00    -0.033 A 
ATOM     28  C   UNL     1      14.485 -12.960  -2.752  0.00  0.00    +0.005 A 
ATOM     29  C   UNL     1      14.689 -11.596  -2.443  0.00  0.00    +0.013 A 
BRANCH  18  19
ATOM     19  C   UNL     1      14.967 -15.465  -2.507  0.00  0.00    +0.119 C 
BRANCH  19  20
ATOM     20  N   UNL     1      14.147 -16.299  -1.579  0.00  0.00    -0.302 NA
ATOM     21  C   UNL     1      14.778 -17.671  -1.330  0.00  0.00    +0.066 C 
ATOM     22  C   UNL     1      13.919 -18.522  -0.339  0.00  0.00    -0.064 C 
ATOM     23  N   UNL     1      12.502 -18.671  -0.896  0.00  0.00    +0.379 N 
ATOM     24  C   UNL     1      11.707 -19.519   0.004  0.00  0.00    -0.096 C 
ATOM     25  H   UNL     1      12.578 -19.196  -1.877  0.00  0.00    -0.082 HD
ATOM     26  C   UNL     1      11.867 -17.311  -1.150  0.00  0.00    -0.064 C 
ATOM     27  C   UNL     1      12.745 -16.462  -2.112  0.00  0.00    +0.066 C 
ENDBRANCH  19  20
ENDBRANCH  18  19
ENDBRANCH  14  15
ENDBRANCH  12  13
TORSDOF 6
ENDMDL
