MODEL 1
REMARK VINA RESULT:     -10.0      0.000      0.000
REMARK  Name = C:\Users\Docking\Desktop\test protocol\1iep_ligandH.pdb
REMARK  8 active torsions:
REMARK  status: ('A' for Active; 'I' for Inactive)
REMARK    1  A    between atoms: _5  and  _11
REMARK    2  A    between atoms: _19  and  _21
REMARK    3  A    between atoms: _22  and  _66
REMARK    4  A    between atoms: _27  and  _30
REMARK    5  A    between atoms: _32  and  _33
REMARK    6  A    between atoms: _38  and  _43
REMARK    7  A    between atoms: _43  and  _46
REMARK    8  A    between atoms: _53  and  _55
REMARK                            x       y       z     vdW  Elec       q    Type
REMARK                         _______ _______ _______ _____ _____    ______ ____
ROOT
ATOM     10  C   UNL     1      28.782  59.836  53.721  0.00  0.00    +0.038 A 
ATOM     11  C   UNL     1      27.903  60.448  54.650  0.00  0.00    +0.047 A 
ATOM     12  C   UNL     1      28.288  61.652  55.370  0.00  0.00    +0.035 A 
ATOM     32  C   UNL     1      29.576  62.208  55.116  0.00  0.00    +0.024 A 
ATOM     33  C   UNL     1      30.483  61.598  54.175  0.00  0.00    +0.007 A 
ATOM     34  C   UNL     1      30.109  60.409  53.465  0.00  0.00    -0.029 A 
ATOM     35  C   UNL     1      31.124  59.794  52.473  0.00  0.00    +0.045 C 
ENDROOT
BRANCH  10   9
ATOM      4  C   UNL     1      26.449  57.608  50.167  0.00  0.00    +0.077 A 
ATOM      5  C   UNL     1      26.009  58.850  49.598  0.00  0.00    +0.048 A 
ATOM      6  C   UNL     1      26.400  60.038  50.254  0.00  0.00    +0.116 A 
ATOM      7  N   UNL     1      27.172  59.978  51.394  0.00  0.00    -0.223 NA
ATOM      8  C   UNL     1      27.577  58.765  51.917  0.00  0.00    +0.220 A 
ATOM      9  N   UNL     1      28.361  58.681  53.058  0.00  0.00    -0.283 N 
ATOM     36  H   UNL     1      28.632  57.766  53.417  0.00  0.00    +0.155 HD
ATOM     37  N   UNL     1      27.216  57.615  51.310  0.00  0.00    -0.214 NA
BRANCH   4   3
ATOM      1  C   UNL     1      24.888  54.770  47.974  0.00  0.00    +0.020 A 
ATOM      2  C   UNL     1      25.169  56.086  48.498  0.00  0.00    +0.013 A 
ATOM      3  C   UNL     1      26.121  56.267  49.587  0.00  0.00    +0.019 A 
ATOM     38  C   UNL     1      26.777  55.086  50.127  0.00  0.00    +0.120 A 
ATOM     39  N   UNL     1      26.486  53.831  49.603  0.00  0.00    -0.263 NA
ATOM     40  C   UNL     1      25.570  53.644  48.556  0.00  0.00    +0.111 A 
ENDBRANCH   4   3
ENDBRANCH  10   9
BRANCH  12  13
ATOM     13  N   UNL     1      27.441  62.314  56.331  0.00  0.00    -0.281 N 
ATOM     14  C   UNL     1      27.282  62.015  57.674  0.00  0.00    +0.248 C 
ATOM     30  O   UNL     1      27.687  60.992  58.207  0.00  0.00    -0.270 OA
ATOM     31  H   UNL     1      26.891  63.097  55.978  0.00  0.00    +0.155 HD
BRANCH  14  15
ATOM     15  C   UNL     1      26.557  62.985  58.549  0.00  0.00    +0.037 A 
ATOM     16  C   UNL     1      26.627  64.428  58.305  0.00  0.00    +0.013 A 
ATOM     17  C   UNL     1      25.931  65.344  59.174  0.00  0.00    +0.005 A 
ATOM     18  C   UNL     1      25.158  64.818  60.296  0.00  0.00    -0.033 A 
ATOM     28  C   UNL     1      25.101  63.382  60.512  0.00  0.00    +0.005 A 
ATOM     29  C   UNL     1      25.782  62.481  59.663  0.00  0.00    +0.013 A 
BRANCH  18  19
ATOM     19  C   UNL     1      24.401  65.722  61.287  0.00  0.00    +0.119 C 
BRANCH  19  20
ATOM     20  N   UNL     1      25.133  66.906  61.829  0.00  0.00    -0.302 NA
ATOM     21  C   UNL     1      26.364  66.497  62.642  0.00  0.00    +0.066 C 
ATOM     22  C   UNL     1      27.131  67.748  63.182  0.00  0.00    -0.064 C 
ATOM     23  N   UNL     1      26.181  68.599  64.027  0.00  0.00    +0.379 N 
ATOM     24  C   UNL     1      26.914  69.745  64.584  0.00  0.00    -0.096 C 
ATOM     25  H   UNL     1      25.835  67.972  64.881  0.00  0.00    -0.082 HD
ATOM     26  C   UNL     1      24.953  69.008  63.227  0.00  0.00    -0.064 C 
ATOM     27  C   UNL     1      24.215  67.758  62.670  0.00  0.00    +0.066 C 
ENDBRANCH  19  20
ENDBRANCH  18  19
ENDBRANCH  14  15
ENDBRANCH  12  13
TORSDOF 6
ENDMDL
MODEL 2
REMARK VINA RESULT:      -9.8      2.282      2.895
REMARK  Name = C:\Users\Docking\Desktop\test protocol\1iep_ligandH.pdb
REMARK  8 active torsions:
REMARK  status: ('A' for Active; 'I' for Inactive)
REMARK    1  A    between atoms: _5  and  _11
REMARK    2  A    between atoms: _19  and  _21
REMARK    3  A    between atoms: _22  and  _66
REMARK    4  A    between atoms: _27  and  _30
REMARK    5  A    between atoms: _32  and  _33
REMARK    6  A    between atoms: _38  and  _43
REMARK    7  A    between atoms: _43  and  _46
REMARK    8  A    between atoms: _53  and  _55
REMARK                            x       y       z     vdW  Elec       q    Type
REMARK                         _______ _______ _______ _____ _____    ______ ____
ROOT
ATOM     10  C   UNL     1      28.167  59.436  53.768  0.00  0.00    +0.038 A 
ATOM     11  C   UNL     1      27.418  59.706  54.941  0.00  0.00    +0.047 A 
ATOM     12  C   UNL     1      27.695  60.876  55.759  0.00  0.00    +0.035 A 
ATOM     32  C   UNL     1      28.742  61.753  55.350  0.00  0.00    +0.024 A 
ATOM     33  C   UNL     1      29.515  61.493  54.160  0.00  0.00    +0.007 A 
ATOM     34  C   UNL     1      29.247  60.339  53.351  0.00  0.00    -0.029 A 
ATOM     35  C   UNL     1      30.112  60.107  52.090  0.00  0.00    +0.045 C 
ENDROOT
BRANCH  10   9
ATOM      4  C   UNL     1      26.181  57.277  49.969  0.00  0.00    +0.077 A 
ATOM      5  C   UNL     1      25.694  58.520  49.442  0.00  0.00    +0.048 A 
ATOM      6  C   UNL     1      25.971  59.691  50.183  0.00  0.00    +0.116 A 
ATOM      7  N   UNL     1      26.682  59.613  51.361  0.00  0.00    -0.223 NA
ATOM      8  C   UNL     1      27.135  58.398  51.842  0.00  0.00    +0.220 A 
ATOM      9  N   UNL     1      27.858  58.297  53.020  0.00  0.00    -0.283 N 
ATOM     36  H   UNL     1      28.168  57.381  53.345  0.00  0.00    +0.155 HD
ATOM     37  N   UNL     1      26.882  57.265  51.153  0.00  0.00    -0.214 NA
BRANCH   4   3
ATOM      1  C   UNL     1      24.982  54.491  47.498  0.00  0.00    +0.020 A 
ATOM      2  C   UNL     1      25.151  55.791  48.106  0.00  0.00    +0.013 A 
ATOM      3  C   UNL     1      25.972  55.954  49.299  0.00  0.00    +0.019 A 
ATOM     38  C   UNL     1      26.614  54.773  49.856  0.00  0.00    +0.120 A 
ATOM     39  N   UNL     1      26.432  53.534  49.250  0.00  0.00    -0.263 NA
ATOM     40  C   UNL     1      25.643  53.365  48.103  0.00  0.00    +0.111 A 
ENDBRANCH   4   3
ENDBRANCH  10   9
BRANCH  12  13
ATOM     13  N   UNL     1      26.973  61.197  56.964  0.00  0.00    -0.281 N 
ATOM     14  C   UNL     1      25.630  60.991  57.233  0.00  0.00    +0.248 C 
ATOM     30  O   UNL     1      24.795  60.691  56.393  0.00  0.00    -0.270 OA
ATOM     31  H   UNL     1      27.518  61.630  57.710  0.00  0.00    +0.155 HD
BRANCH  14  15
ATOM     15  C   UNL     1      25.141  61.154  58.636  0.00  0.00    +0.037 A 
ATOM     16  C   UNL     1      24.566  60.029  59.377  0.00  0.00    +0.013 A 
ATOM     17  C   UNL     1      24.087  60.218  60.723  0.00  0.00    +0.005 A 
ATOM     18  C   UNL     1      24.181  61.540  61.338  0.00  0.00    -0.033 A 
ATOM     28  C   UNL     1      24.760  62.638  60.582  0.00  0.00    +0.005 A 
ATOM     29  C   UNL     1      25.231  62.457  59.262  0.00  0.00    +0.013 A 
BRANCH  18  19
ATOM     19  C   UNL     1      23.675  61.838  62.762  0.00  0.00    +0.119 C 
BRANCH  19  20
ATOM     20  N   UNL     1      22.995  63.149  62.985  0.00  0.00    -0.302 NA
ATOM     21  C   UNL     1      23.949  64.201  63.558  0.00  0.00    +0.066 C 
ATOM     22  C   UNL     1      23.227  65.572  63.764  0.00  0.00    -0.064 C 
ATOM     23  N   UNL     1      22.021  65.377  64.684  0.00  0.00    +0.379 N 
ATOM     24  C   UNL     1      21.373  66.674  64.926  0.00  0.00    -0.096 C 
ATOM     25  H   UNL     1      22.399  64.999  65.662  0.00  0.00    -0.082 HD
ATOM     26  C   UNL     1      21.068  64.331  64.123  0.00  0.00    -0.064 C 
ATOM     27  C   UNL     1      21.803  62.980  63.894  0.00  0.00    +0.066 C 
ENDBRANCH  19  20
ENDBRANCH  18  19
ENDBRANCH  14  15
ENDBRANCH  12  13
TORSDOF 6
ENDMDL
MODEL 3
REMARK VINA RESULT:      -9.8      1.064      1.473
REMARK  Name = C:\Users\Docking\Desktop\test protocol\1iep_ligandH.pdb
REMARK  8 active torsions:
REMARK  status: ('A' for Active; 'I' for Inactive)
REMARK    1  A    between atoms: _5  and  _11
REMARK    2  A    between atoms: _19  and  _21
REMARK    3  A    between atoms: _22  and  _66
REMARK    4  A    between atoms: _27  and  _30
REMARK    5  A    between atoms: _32  and  _33
REMARK    6  A    between atoms: _38  and  _43
REMARK    7  A    between atoms: _43  and  _46
REMARK    8  A    between atoms: _53  and  _55
REMARK                            x       y       z     vdW  Elec       q    Type
REMARK                         _______ _______ _______ _____ _____    ______ ____
ROOT
ATOM     10  C   UNL     1      28.757  59.744  53.647  0.00  0.00    +0.038 A 
ATOM     11  C   UNL     1      27.859  60.372  54.546  0.00  0.00    +0.047 A 
ATOM     12  C   UNL     1      28.240  61.572  55.275  0.00  0.00    +0.035 A 
ATOM     32  C   UNL     1      29.543  62.107  55.061  0.00  0.00    +0.024 A 
ATOM     33  C   UNL     1      30.470  61.481  54.151  0.00  0.00    +0.007 A 
ATOM     34  C   UNL     1      30.100  60.296  53.431  0.00  0.00    -0.029 A 
ATOM     35  C   UNL     1      31.136  59.663  52.473  0.00  0.00    +0.045 C 
ENDROOT
BRANCH  10   9
ATOM      4  C   UNL     1      26.398  57.542  50.094  0.00  0.00    +0.077 A 
ATOM      5  C   UNL     1      25.937  58.786  49.549  0.00  0.00    +0.048 A 
ATOM      6  C   UNL     1      26.324  59.970  50.216  0.00  0.00    +0.116 A 
ATOM      7  N   UNL     1      27.113  59.902  51.344  0.00  0.00    -0.223 NA
ATOM      8  C   UNL     1      27.538  58.685  51.845  0.00  0.00    +0.220 A 
ATOM      9  N   UNL     1      28.339  58.594  52.973  0.00  0.00    -0.283 N 
ATOM     36  H   UNL     1      28.625  57.677  53.315  0.00  0.00    +0.155 HD
ATOM     37  N   UNL     1      27.181  57.541  51.226  0.00  0.00    -0.214 NA
BRANCH   4   3
ATOM      1  C   UNL     1      24.892  54.726  47.834  0.00  0.00    +0.020 A 
ATOM      2  C   UNL     1      25.169  56.039  48.371  0.00  0.00    +0.013 A 
ATOM      3  C   UNL     1      26.076  56.206  49.499  0.00  0.00    +0.019 A 
ATOM     38  C   UNL     1      26.692  55.016  50.065  0.00  0.00    +0.120 A 
ATOM     39  N   UNL     1      26.406  53.764  49.528  0.00  0.00    -0.263 NA
ATOM     40  C   UNL     1      25.533  53.591  48.444  0.00  0.00    +0.111 A 
ENDBRANCH   4   3
ENDBRANCH  10   9
BRANCH  12  13
ATOM     13  N   UNL     1      27.373  62.249  56.208  0.00  0.00    -0.281 N 
ATOM     14  C   UNL     1      27.241  62.020  57.568  0.00  0.00    +0.248 C 
ATOM     30  O   UNL     1      27.696  61.048  58.152  0.00  0.00    -0.270 OA
ATOM     31  H   UNL     1      26.786  62.986  55.818  0.00  0.00    +0.155 HD
BRANCH  14  15
ATOM     15  C   UNL     1      26.481  63.006  58.395  0.00  0.00    +0.037 A 
ATOM     16  C   UNL     1      25.348  62.588  59.225  0.00  0.00    +0.013 A 
ATOM     17  C   UNL     1      24.621  63.563  60.000  0.00  0.00    +0.005 A 
ATOM     18  C   UNL     1      25.028  64.965  59.951  0.00  0.00    -0.033 A 
ATOM     28  C   UNL     1      26.159  65.351  59.123  0.00  0.00    +0.005 A 
ATOM     29  C   UNL     1      26.873  64.399  58.361  0.00  0.00    +0.013 A 
BRANCH  18  19
ATOM     19  C   UNL     1      24.298  66.075  60.729  0.00  0.00    +0.119 C 
BRANCH  19  20
ATOM     20  N   UNL     1      24.628  66.227  62.177  0.00  0.00    -0.302 NA
ATOM     21  C   UNL     1      23.856  65.233  63.049  0.00  0.00    +0.066 C 
ATOM     22  C   UNL     1      24.231  65.390  64.559  0.00  0.00    -0.064 C 
ATOM     23  N   UNL     1      23.956  66.827  65.003  0.00  0.00    +0.379 N 
ATOM     24  C   UNL     1      24.253  66.963  66.437  0.00  0.00    -0.096 C 
ATOM     25  H   UNL     1      22.868  67.022  64.863  0.00  0.00    -0.082 HD
ATOM     26  C   UNL     1      24.718  67.822  64.139  0.00  0.00    -0.064 C 
ATOM     27  C   UNL     1      24.360  67.638  62.638  0.00  0.00    +0.066 C 
ENDBRANCH  19  20
ENDBRANCH  18  19
ENDBRANCH  14  15
ENDBRANCH  12  13
TORSDOF 6
ENDMDL
MODEL 4
REMARK VINA RESULT:      -9.8      1.768      2.522
REMARK  Name = C:\Users\Docking\Desktop\test protocol\1iep_ligandH.pdb
REMARK  8 active torsions:
REMARK  status: ('A' for Active; 'I' for Inactive)
REMARK    1  A    between atoms: _5  and  _11
REMARK    2  A    between atoms: _19  and  _21
REMARK    3  A    between atoms: _22  and  _66
REMARK    4  A    between atoms: _27  and  _30
REMARK    5  A    between atoms: _32  and  _33
REMARK    6  A    between atoms: _38  and  _43
REMARK    7  A    between atoms: _43  and  _46
REMARK    8  A    between atoms: _53  and  _55
REMARK                            x       y       z     vdW  Elec       q    Type
REMARK                         _______ _______ _______ _____ _____    ______ ____
ROOT
ATOM     10  C   UNL     1      28.819  59.833  53.666  0.00  0.00    +0.038 A 
ATOM     11  C   UNL     1      27.991  60.379  54.680  0.00  0.00    +0.047 A 
ATOM     12  C   UNL     1      28.383  61.576  55.408  0.00  0.00    +0.035 A 
ATOM     32  C   UNL     1      29.623  62.194  55.074  0.00  0.00    +0.024 A 
ATOM     33  C   UNL     1      30.477  61.652  54.046  0.00  0.00    +0.007 A 
ATOM     34  C   UNL     1      30.097  60.470  53.327  0.00  0.00    -0.029 A 
ATOM     35  C   UNL     1      31.055  59.930  52.239  0.00  0.00    +0.045 C 
ENDROOT
BRANCH  10   9
ATOM      4  C   UNL     1      26.415  57.624  50.147  0.00  0.00    +0.077 A 
ATOM      5  C   UNL     1      25.944  58.867  49.608  0.00  0.00    +0.048 A 
ATOM      6  C   UNL     1      26.337  60.052  50.270  0.00  0.00    +0.116 A 
ATOM      7  N   UNL     1      27.142  59.987  51.386  0.00  0.00    -0.223 NA
ATOM      8  C   UNL     1      27.577  58.771  51.882  0.00  0.00    +0.220 A 
ATOM      9  N   UNL     1      28.393  58.682  52.999  0.00  0.00    -0.283 N 
ATOM     36  H   UNL     1      28.687  57.766  53.337  0.00  0.00    +0.155 HD
ATOM     37  N   UNL     1      27.214  57.625  51.269  0.00  0.00    -0.214 NA
BRANCH   4   3
ATOM      1  C   UNL     1      24.853  54.800  47.937  0.00  0.00    +0.020 A 
ATOM      2  C   UNL     1      25.133  56.113  48.471  0.00  0.00    +0.013 A 
ATOM      3  C   UNL     1      26.087  56.287  49.558  0.00  0.00    +0.019 A 
ATOM     38  C   UNL     1      26.748  55.103  50.087  0.00  0.00    +0.120 A 
ATOM     39  N   UNL     1      26.457  53.851  49.554  0.00  0.00    -0.263 NA
ATOM     40  C   UNL     1      25.539  53.671  48.509  0.00  0.00    +0.111 A 
ENDBRANCH   4   3
ENDBRANCH  10   9
BRANCH  12  13
ATOM     13  N   UNL     1      27.588  62.170  56.454  0.00  0.00    -0.281 N 
ATOM     14  C   UNL     1      27.576  61.850  57.801  0.00  0.00    +0.248 C 
ATOM     30  O   UNL     1      28.095  60.852  58.279  0.00  0.00    -0.270 OA
ATOM     31  H   UNL     1      26.957  62.919  56.166  0.00  0.00    +0.155 HD
BRANCH  14  15
ATOM     15  C   UNL     1      26.873  62.762  58.755  0.00  0.00    +0.037 A 
ATOM     16  C   UNL     1      26.497  64.123  58.366  0.00  0.00    +0.013 A 
ATOM     17  C   UNL     1      25.836  64.988  59.310  0.00  0.00    +0.005 A 
ATOM     18  C   UNL     1      25.545  64.493  60.653  0.00  0.00    -0.033 A 
ATOM     28  C   UNL     1      25.924  63.136  61.011  0.00  0.00    +0.005 A 
ATOM     29  C   UNL     1      26.574  62.286  60.088  0.00  0.00    +0.013 A 
BRANCH  18  19
ATOM     19  C   UNL     1      24.861  65.353  61.732  0.00  0.00    +0.119 C 
BRANCH  19  20
ATOM     20  N   UNL     1      23.969  64.651  62.703  0.00  0.00    -0.302 NA
ATOM     21  C   UNL     1      22.867  63.854  61.999  0.00  0.00    +0.066 C 
ATOM     22  C   UNL     1      21.958  63.108  63.029  0.00  0.00    -0.064 C 
ATOM     23  N   UNL     1      21.355  64.123  64.002  0.00  0.00    +0.379 N 
ATOM     24  C   UNL     1      20.454  63.432  64.936  0.00  0.00    -0.096 C 
ATOM     25  H   UNL     1      20.742  64.838  63.407  0.00  0.00    -0.082 HD
ATOM     26  C   UNL     1      22.444  64.921  64.705  0.00  0.00    -0.064 C 
ATOM     27  C   UNL     1      23.360  65.635  63.671  0.00  0.00    +0.066 C 
ENDBRANCH  19  20
ENDBRANCH  18  19
ENDBRANCH  14  15
ENDBRANCH  12  13
TORSDOF 6
ENDMDL
MODEL 5
REMARK VINA RESULT:      -9.0      5.290     12.479
REMARK  Name = C:\Users\Docking\Desktop\test protocol\1iep_ligandH.pdb
REMARK  8 active torsions:
REMARK  status: ('A' for Active; 'I' for Inactive)
REMARK    1  A    between atoms: _5  and  _11
REMARK    2  A    between atoms: _19  and  _21
REMARK    3  A    between atoms: _22  and  _66
REMARK    4  A    between atoms: _27  and  _30
REMARK    5  A    between atoms: _32  and  _33
REMARK    6  A    between atoms: _38  and  _43
REMARK    7  A    between atoms: _43  and  _46
REMARK    8  A    between atoms: _53  and  _55
REMARK                            x       y       z     vdW  Elec       q    Type
REMARK                         _______ _______ _______ _____ _____    ______ ____
ROOT
ATOM     10  C   UNL     1      25.028  60.656  60.928  0.00  0.00    +0.038 A 
ATOM     11  C   UNL     1      25.417  60.373  59.594  0.00  0.00    +0.047 A 
ATOM     12  C   UNL     1      25.377  61.399  58.564  0.00  0.00    +0.035 A 
ATOM     32  C   UNL     1      24.939  62.706  58.930  0.00  0.00    +0.024 A 
ATOM     33  C   UNL     1      24.539  63.011  60.281  0.00  0.00    +0.007 A 
ATOM     34  C   UNL     1      24.573  62.001  61.300  0.00  0.00    -0.029 A 
ATOM     35  C   UNL     1      24.127  62.383  62.731  0.00  0.00    +0.045 C 
ENDROOT
BRANCH  10   9
ATOM      4  C   UNL     1      23.113  56.903  63.227  0.00  0.00    +0.077 A 
ATOM      5  C   UNL     1      21.883  57.008  62.497  0.00  0.00    +0.048 A 
ATOM      6  C   UNL     1      21.781  58.045  61.543  0.00  0.00    +0.116 A 
ATOM      7  N   UNL     1      22.837  58.908  61.344  0.00  0.00    -0.223 NA
ATOM      8  C   UNL     1      24.009  58.780  62.066  0.00  0.00    +0.220 A 
ATOM      9  N   UNL     1      25.086  59.632  61.876  0.00  0.00    -0.283 N 
ATOM     36  H   UNL     1      25.930  59.509  62.435  0.00  0.00    +0.155 HD
ATOM     37  N   UNL     1      24.130  57.798  62.984  0.00  0.00    -0.214 NA
BRANCH   4   3
ATOM      1  C   UNL     1      22.707  53.839  65.625  0.00  0.00    +0.020 A 
ATOM      2  C   UNL     1      22.405  54.826  64.615  0.00  0.00    +0.013 A 
ATOM      3  C   UNL     1      23.375  55.857  64.266  0.00  0.00    +0.019 A 
ATOM     38  C   UNL     1      24.652  55.860  64.964  0.00  0.00    +0.120 A 
ATOM     39  N   UNL     1      24.914  54.897  65.934  0.00  0.00    -0.263 NA
ATOM     40  C   UNL     1      23.988  53.902  66.278  0.00  0.00    +0.111 A 
ENDBRANCH   4   3
ENDBRANCH  10   9
BRANCH  12  13
ATOM     13  N   UNL     1      25.752  61.169  57.191  0.00  0.00    -0.281 N 
ATOM     14  C   UNL     1      26.910  61.570  56.546  0.00  0.00    +0.248 C 
ATOM     30  O   UNL     1      27.709  62.378  56.997  0.00  0.00    -0.270 OA
ATOM     31  H   UNL     1      25.082  60.646  56.627  0.00  0.00    +0.155 HD
BRANCH  14  15
ATOM     15  C   UNL     1      27.219  61.003  55.198  0.00  0.00    +0.037 A 
ATOM     16  C   UNL     1      28.297  61.552  54.372  0.00  0.00    +0.013 A 
ATOM     17  C   UNL     1      28.563  60.998  53.068  0.00  0.00    +0.005 A 
ATOM     18  C   UNL     1      27.749  59.886  52.583  0.00  0.00    -0.033 A 
ATOM     28  C   UNL     1      26.689  59.357  53.425  0.00  0.00    +0.005 A 
ATOM     29  C   UNL     1      26.425  59.899  54.703  0.00  0.00    +0.013 A 
BRANCH  18  19
ATOM     19  C   UNL     1      27.948  59.246  51.196  0.00  0.00    +0.119 C 
BRANCH  19  20
ATOM     20  N   UNL     1      27.005  58.156  50.804  0.00  0.00    -0.302 NA
ATOM     21  C   UNL     1      27.743  56.898  50.337  0.00  0.00    +0.066 C 
ATOM     22  C   UNL     1      26.742  55.761  49.953  0.00  0.00    -0.064 C 
ATOM     23  N   UNL     1      25.792  56.267  48.865  0.00  0.00    +0.379 N 
ATOM     24  C   UNL     1      24.887  55.182  48.460  0.00  0.00    -0.096 C 
ATOM     25  H   UNL     1      26.410  56.541  47.978  0.00  0.00    -0.082 HD
ATOM     26  C   UNL     1      25.056  57.519  49.320  0.00  0.00    -0.064 C 
ATOM     27  C   UNL     1      26.061  58.633  49.728  0.00  0.00    +0.066 C 
ENDBRANCH  19  20
ENDBRANCH  18  19
ENDBRANCH  14  15
ENDBRANCH  12  13
TORSDOF 6
ENDMDL
