MODEL 1
REMARK VINA RESULT:     -11.1      0.000      0.000
REMARK  Name = C:\Users\Docking\Desktop\test protocol\1iep_ligandH.pdb
REMARK  8 active torsions:
REMARK  status: ('A' for Active; 'I' for Inactive)
REMARK    1  A    between atoms: _5  and  _11
REMARK    2  A    between atoms: _19  and  _21
REMARK    3  A    between atoms: _22  and  _66
REMARK    4  A    between atoms: _27  and  _30
REMARK    5  A    between atoms: _32  and  _33
REMARK    6  A    between atoms: _38  and  _43
REMARK    7  A    between atoms: _43  and  _46
REMARK    8  A    between atoms: _53  and  _55
REMARK                            x       y       z     vdW  Elec       q    Type
REMARK                         _______ _______ _______ _____ _____    ______ ____
ROOT
ATOM     10  C   UNL     1      -2.757  28.029  20.822  0.00  0.00    +0.038 A 
ATOM     11  C   UNL     1      -2.058  29.159  21.317  0.00  0.00    +0.047 A 
ATOM     12  C   UNL     1      -2.251  29.625  22.682  0.00  0.00    +0.035 A 
ATOM     32  C   UNL     1      -3.163  28.913  23.516  0.00  0.00    +0.024 A 
ATOM     33  C   UNL     1      -3.883  27.763  23.028  0.00  0.00    +0.007 A 
ATOM     34  C   UNL     1      -3.698  27.301  21.682  0.00  0.00    -0.029 A 
ATOM     35  C   UNL     1      -4.500  26.066  21.210  0.00  0.00    +0.045 C 
ENDROOT
BRANCH  10   9
ATOM      4  C   UNL     1      -0.400  25.458  17.525  0.00  0.00    +0.077 A 
ATOM      5  C   UNL     1       0.477  24.890  18.508  0.00  0.00    +0.048 A 
ATOM      6  C   UNL     1       0.292  25.291  19.850  0.00  0.00    +0.116 A 
ATOM      7  N   UNL     1      -0.698  26.193  20.173  0.00  0.00    -0.223 NA
ATOM      8  C   UNL     1      -1.525  26.723  19.200  0.00  0.00    +0.220 A 
ATOM      9  N   UNL     1      -2.533  27.626  19.503  0.00  0.00    -0.283 N 
ATOM     36  H   UNL     1      -3.117  27.999  18.756  0.00  0.00    +0.155 HD
ATOM     37  N   UNL     1      -1.368  26.357  17.911  0.00  0.00    -0.214 NA
BRANCH   4   3
ATOM      1  C   UNL     1       0.434  23.712  14.125  0.00  0.00    +0.020 A 
ATOM      2  C   UNL     1       0.401  23.984  15.544  0.00  0.00    +0.013 A 
ATOM      3  C   UNL     1      -0.332  25.130  16.065  0.00  0.00    +0.019 A 
ATOM     38  C   UNL     1      -1.028  25.988  15.117  0.00  0.00    +0.120 A 
ATOM     39  N   UNL     1      -0.977  25.701  13.757  0.00  0.00    -0.263 NA
ATOM     40  C   UNL     1      -0.273  24.602  13.243  0.00  0.00    +0.111 A 
ENDBRANCH   4   3
ENDBRANCH  10   9
BRANCH  12  13
ATOM     13  N   UNL     1      -1.576  30.771  23.238  0.00  0.00    -0.281 N 
ATOM     14  C   UNL     1      -2.065  32.058  23.387  0.00  0.00    +0.248 C 
ATOM     30  O   UNL     1      -3.089  32.473  22.866  0.00  0.00    -0.270 OA
ATOM     31  H   UNL     1      -0.621  30.614  23.561  0.00  0.00    +0.155 HD
BRANCH  14  15
ATOM     15  C   UNL     1      -1.297  33.030  24.224  0.00  0.00    +0.037 A 
ATOM     16  C   UNL     1      -1.887  33.631  25.423  0.00  0.00    +0.013 A 
ATOM     17  C   UNL     1      -1.131  34.578  26.204  0.00  0.00    +0.005 A 
ATOM     18  C   UNL     1       0.225  34.929  25.787  0.00  0.00    -0.033 A 
ATOM     28  C   UNL     1       0.787  34.314  24.596  0.00  0.00    +0.005 A 
ATOM     29  C   UNL     1       0.049  33.386  23.829  0.00  0.00    +0.013 A 
BRANCH  18  19
ATOM     19  C   UNL     1       1.097  35.946  26.547  0.00  0.00    +0.119 C 
BRANCH  19  20
ATOM     20  N   UNL     1       1.697  37.060  25.754  0.00  0.00    -0.302 NA
ATOM     21  C   UNL     1       2.783  37.803  26.538  0.00  0.00    +0.066 C 
ATOM     22  C   UNL     1       3.416  38.951  25.685  0.00  0.00    -0.064 C 
ATOM     23  N   UNL     1       2.316  39.915  25.236  0.00  0.00    +0.379 N 
ATOM     24  C   UNL     1       2.915  41.026  24.483  0.00  0.00    -0.096 C 
ATOM     25  H   UNL     1       1.846  40.341  26.153  0.00  0.00    -0.082 HD
ATOM     26  C   UNL     1       1.231  39.184  24.459  0.00  0.00    -0.064 C 
ATOM     27  C   UNL     1       0.629  38.027  25.305  0.00  0.00    +0.066 C 
ENDBRANCH  19  20
ENDBRANCH  18  19
ENDBRANCH  14  15
ENDBRANCH  12  13
TORSDOF 6
ENDMDL
MODEL 2
REMARK VINA RESULT:     -10.9      1.394      1.666
REMARK  Name = C:\Users\Docking\Desktop\test protocol\1iep_ligandH.pdb
REMARK  8 active torsions:
REMARK  status: ('A' for Active; 'I' for Inactive)
REMARK    1  A    between atoms: _5  and  _11
REMARK    2  A    between atoms: _19  and  _21
REMARK    3  A    between atoms: _22  and  _66
REMARK    4  A    between atoms: _27  and  _30
REMARK    5  A    between atoms: _32  and  _33
REMARK    6  A    between atoms: _38  and  _43
REMARK    7  A    between atoms: _43  and  _46
REMARK    8  A    between atoms: _53  and  _55
REMARK                            x       y       z     vdW  Elec       q    Type
REMARK                         _______ _______ _______ _____ _____    ______ ____
ROOT
ATOM     10  C   UNL     1      -2.669  28.061  20.712  0.00  0.00    +0.038 A 
ATOM     11  C   UNL     1      -1.959  29.171  21.235  0.00  0.00    +0.047 A 
ATOM     12  C   UNL     1      -2.166  29.621  22.603  0.00  0.00    +0.035 A 
ATOM     32  C   UNL     1      -3.103  28.914  23.412  0.00  0.00    +0.024 A 
ATOM     33  C   UNL     1      -3.834  27.783  22.896  0.00  0.00    +0.007 A 
ATOM     34  C   UNL     1      -3.636  27.337  21.547  0.00  0.00    -0.029 A 
ATOM     35  C   UNL     1      -4.452  26.123  21.045  0.00  0.00    +0.045 C 
ENDROOT
BRANCH  10   9
ATOM      4  C   UNL     1      -0.411  25.385  17.429  0.00  0.00    +0.077 A 
ATOM      5  C   UNL     1       0.381  24.724  18.426  0.00  0.00    +0.048 A 
ATOM      6  C   UNL     1       0.181  25.107  19.772  0.00  0.00    +0.116 A 
ATOM      7  N   UNL     1      -0.744  26.079  20.085  0.00  0.00    -0.223 NA
ATOM      8  C   UNL     1      -1.490  26.698  19.099  0.00  0.00    +0.220 A 
ATOM      9  N   UNL     1      -2.431  27.672  19.392  0.00  0.00    -0.283 N 
ATOM     36  H   UNL     1      -2.956  28.110  18.635  0.00  0.00    +0.155 HD
ATOM     37  N   UNL     1      -1.317  26.351  17.806  0.00  0.00    -0.214 NA
BRANCH   4   3
ATOM      1  C   UNL     1       0.494  23.718  14.008  0.00  0.00    +0.020 A 
ATOM      2  C   UNL     1       0.436  23.961  15.431  0.00  0.00    +0.013 A 
ATOM      3  C   UNL     1      -0.318  25.088  15.965  0.00  0.00    +0.019 A 
ATOM     38  C   UNL     1      -1.008  25.958  15.024  0.00  0.00    +0.120 A 
ATOM     39  N   UNL     1      -0.933  25.700  13.659  0.00  0.00    -0.263 NA
ATOM     40  C   UNL     1      -0.210  24.619  13.134  0.00  0.00    +0.111 A 
ENDBRANCH   4   3
ENDBRANCH  10   9
BRANCH  12  13
ATOM     13  N   UNL     1      -1.480  30.747  23.186  0.00  0.00    -0.281 N 
ATOM     14  C   UNL     1      -1.975  32.020  23.418  0.00  0.00    +0.248 C 
ATOM     30  O   UNL     1      -3.025  32.446  22.961  0.00  0.00    -0.270 OA
ATOM     31  H   UNL     1      -0.510  30.586  23.461  0.00  0.00    +0.155 HD
BRANCH  14  15
ATOM     15  C   UNL     1      -1.183  32.959  24.269  0.00  0.00    +0.037 A 
ATOM     16  C   UNL     1      -1.756  33.554  25.479  0.00  0.00    +0.013 A 
ATOM     17  C   UNL     1      -0.977  34.471  26.273  0.00  0.00    +0.005 A 
ATOM     18  C   UNL     1       0.386  34.796  25.859  0.00  0.00    -0.033 A 
ATOM     28  C   UNL     1       0.932  34.187  24.658  0.00  0.00    +0.005 A 
ATOM     29  C   UNL     1       0.170  33.289  23.876  0.00  0.00    +0.013 A 
BRANCH  18  19
ATOM     19  C   UNL     1       1.283  35.780  26.634  0.00  0.00    +0.119 C 
BRANCH  19  20
ATOM     20  N   UNL     1       0.638  37.015  27.172  0.00  0.00    -0.302 NA
ATOM     21  C   UNL     1       1.364  38.285  26.719  0.00  0.00    +0.066 C 
ATOM     22  C   UNL     1       0.662  39.568  27.273  0.00  0.00    -0.064 C 
ATOM     23  N   UNL     1       0.601  39.495  28.799  0.00  0.00    +0.379 N 
ATOM     24  C   UNL     1      -0.006  40.726  29.326  0.00  0.00    -0.096 C 
ATOM     25  H   UNL     1       1.648  39.444  29.178  0.00  0.00    -0.082 HD
ATOM     26  C   UNL     1      -0.116  38.233  29.258  0.00  0.00    -0.064 C 
ATOM     27  C   UNL     1       0.571  36.965  28.679  0.00  0.00    +0.066 C 
ENDBRANCH  19  20
ENDBRANCH  18  19
ENDBRANCH  14  15
ENDBRANCH  12  13
TORSDOF 6
ENDMDL
MODEL 3
REMARK VINA RESULT:     -10.8      1.183      1.520
REMARK  Name = C:\Users\Docking\Desktop\test protocol\1iep_ligandH.pdb
REMARK  8 active torsions:
REMARK  status: ('A' for Active; 'I' for Inactive)
REMARK    1  A    between atoms: _5  and  _11
REMARK    2  A    between atoms: _19  and  _21
REMARK    3  A    between atoms: _22  and  _66
REMARK    4  A    between atoms: _27  and  _30
REMARK    5  A    between atoms: _32  and  _33
REMARK    6  A    between atoms: _38  and  _43
REMARK    7  A    between atoms: _43  and  _46
REMARK    8  A    between atoms: _53  and  _55
REMARK                            x       y       z     vdW  Elec       q    Type
REMARK                         _______ _______ _______ _____ _____    ______ ____
ROOT
ATOM     10  C   UNL     1      -2.903  28.163  20.886  0.00  0.00    +0.038 A 
ATOM     11  C   UNL     1      -2.336  29.368  21.375  0.00  0.00    +0.047 A 
ATOM     12  C   UNL     1      -2.608  29.832  22.726  0.00  0.00    +0.035 A 
ATOM     32  C   UNL     1      -3.459  29.043  23.554  0.00  0.00    +0.024 A 
ATOM     33  C   UNL     1      -4.044  27.817  23.072  0.00  0.00    +0.007 A 
ATOM     34  C   UNL     1      -3.782  27.355  21.739  0.00  0.00    -0.029 A 
ATOM     35  C   UNL     1      -4.441  26.035  21.274  0.00  0.00    +0.045 C 
ENDROOT
BRANCH  10   9
ATOM      4  C   UNL     1      -0.444  25.525  17.719  0.00  0.00    +0.077 A 
ATOM      5  C   UNL     1       0.339  24.908  18.751  0.00  0.00    +0.048 A 
ATOM      6  C   UNL     1       0.083  25.303  20.083  0.00  0.00    +0.116 A 
ATOM      7  N   UNL     1      -0.887  26.245  20.351  0.00  0.00    -0.223 NA
ATOM      8  C   UNL     1      -1.623  26.821  19.332  0.00  0.00    +0.220 A 
ATOM      9  N   UNL     1      -2.608  27.764  19.580  0.00  0.00    -0.283 N 
ATOM     36  H   UNL     1      -3.124  28.171  18.800  0.00  0.00    +0.155 HD
ATOM     37  N   UNL     1      -1.396  26.462  18.052  0.00  0.00    -0.214 NA
BRANCH   4   3
ATOM      1  C   UNL     1       0.595  23.815  14.357  0.00  0.00    +0.020 A 
ATOM      2  C   UNL     1       0.481  24.076  15.773  0.00  0.00    +0.013 A 
ATOM      3  C   UNL     1      -0.293  25.210  16.263  0.00  0.00    +0.019 A 
ATOM     38  C   UNL     1      -0.945  26.067  15.285  0.00  0.00    +0.120 A 
ATOM     39  N   UNL     1      -0.817  25.793  13.927  0.00  0.00    -0.263 NA
ATOM     40  C   UNL     1      -0.073  24.705  13.444  0.00  0.00    +0.111 A 
ENDBRANCH   4   3
ENDBRANCH  10   9
BRANCH  12  13
ATOM     13  N   UNL     1      -2.067  31.051  23.275  0.00  0.00    -0.281 N 
ATOM     14  C   UNL     1      -0.796  31.574  23.101  0.00  0.00    +0.248 C 
ATOM     30  O   UNL     1       0.143  30.960  22.616  0.00  0.00    -0.270 OA
ATOM     31  H   UNL     1      -2.699  31.595  23.864  0.00  0.00    +0.155 HD
BRANCH  14  15
ATOM     15  C   UNL     1      -0.526  32.976  23.541  0.00  0.00    +0.037 A 
ATOM     16  C   UNL     1       0.815  33.398  23.954  0.00  0.00    +0.013 A 
ATOM     17  C   UNL     1       1.045  34.752  24.391  0.00  0.00    +0.005 A 
ATOM     18  C   UNL     1      -0.069  35.696  24.415  0.00  0.00    -0.033 A 
ATOM     28  C   UNL     1      -1.388  35.253  23.994  0.00  0.00    +0.005 A 
ATOM     29  C   UNL     1      -1.618  33.926  23.567  0.00  0.00    +0.013 A 
BRANCH  18  19
ATOM     19  C   UNL     1       0.080  37.155  24.886  0.00  0.00    +0.119 C 
BRANCH  19  20
ATOM     20  N   UNL     1       1.345  37.520  25.591  0.00  0.00    -0.302 NA
ATOM     21  C   UNL     1       1.089  38.422  26.801  0.00  0.00    +0.066 C 
ATOM     22  C   UNL     1       2.421  38.776  27.539  0.00  0.00    -0.064 C 
ATOM     23  N   UNL     1       3.383  39.447  26.557  0.00  0.00    +0.379 N 
ATOM     24  C   UNL     1       4.614  39.833  27.262  0.00  0.00    -0.096 C 
ATOM     25  H   UNL     1       2.896  40.380  26.191  0.00  0.00    -0.082 HD
ATOM     26  C   UNL     1       3.641  38.557  25.349  0.00  0.00    -0.064 C 
ATOM     27  C   UNL     1       2.308  38.187  24.640  0.00  0.00    +0.066 C 
ENDBRANCH  19  20
ENDBRANCH  18  19
ENDBRANCH  14  15
ENDBRANCH  12  13
TORSDOF 6
ENDMDL
MODEL 4
REMARK VINA RESULT:     -10.8      2.084      2.574
REMARK  Name = C:\Users\Docking\Desktop\test protocol\1iep_ligandH.pdb
REMARK  8 active torsions:
REMARK  status: ('A' for Active; 'I' for Inactive)
REMARK    1  A    between atoms: _5  and  _11
REMARK    2  A    between atoms: _19  and  _21
REMARK    3  A    between atoms: _22  and  _66
REMARK    4  A    between atoms: _27  and  _30
REMARK    5  A    between atoms: _32  and  _33
REMARK    6  A    between atoms: _38  and  _43
REMARK    7  A    between atoms: _43  and  _46
REMARK    8  A    between atoms: _53  and  _55
REMARK                            x       y       z     vdW  Elec       q    Type
REMARK                         _______ _______ _______ _____ _____    ______ ____
ROOT
ATOM     10  C   UNL     1      -2.620  28.792  21.041  0.00  0.00    +0.038 A 
ATOM     11  C   UNL     1      -2.115  30.086  21.327  0.00  0.00    +0.047 A 
ATOM     12  C   UNL     1      -2.324  30.704  22.627  0.00  0.00    +0.035 A 
ATOM     32  C   UNL     1      -3.050  29.975  23.613  0.00  0.00    +0.024 A 
ATOM     33  C   UNL     1      -3.572  28.659  23.339  0.00  0.00    +0.007 A 
ATOM     34  C   UNL     1      -3.371  28.045  22.058  0.00  0.00    -0.029 A 
ATOM     35  C   UNL     1      -3.958  26.634  21.817  0.00  0.00    +0.045 C 
ENDROOT
BRANCH  10   9
ATOM      4  C   UNL     1      -0.399  25.720  18.097  0.00  0.00    +0.077 A 
ATOM      5  C   UNL     1       0.390  25.175  19.164  0.00  0.00    +0.048 A 
ATOM      6  C   UNL     1       0.198  25.718  20.455  0.00  0.00    +0.116 A 
ATOM      7  N   UNL     1      -0.716  26.730  20.651  0.00  0.00    -0.223 NA
ATOM      8  C   UNL     1      -1.459  27.234  19.600  0.00  0.00    +0.220 A 
ATOM      9  N   UNL     1      -2.390  28.246  19.776  0.00  0.00    -0.283 N 
ATOM     36  H   UNL     1      -2.913  28.596  18.973  0.00  0.00    +0.155 HD
ATOM     37  N   UNL     1      -1.294  26.734  18.357  0.00  0.00    -0.214 NA
BRANCH   4   3
ATOM      1  C   UNL     1       0.376  23.585  14.912  0.00  0.00    +0.020 A 
ATOM      2  C   UNL     1       0.321  23.994  16.297  0.00  0.00    +0.013 A 
ATOM      3  C   UNL     1      -0.313  25.250  16.678  0.00  0.00    +0.019 A 
ATOM     38  C   UNL     1      -0.886  26.075  15.626  0.00  0.00    +0.120 A 
ATOM     39  N   UNL     1      -0.816  25.656  14.300  0.00  0.00    -0.263 NA
ATOM     40  C   UNL     1      -0.207  24.451  13.922  0.00  0.00    +0.111 A 
ENDBRANCH   4   3
ENDBRANCH  10   9
BRANCH  12  13
ATOM     13  N   UNL     1      -1.842  32.018  22.973  0.00  0.00    -0.281 N 
ATOM     14  C   UNL     1      -0.553  32.389  23.319  0.00  0.00    +0.248 C 
ATOM     30  O   UNL     1       0.342  31.603  23.592  0.00  0.00    -0.270 OA
ATOM     31  H   UNL     1      -2.536  32.766  22.962  0.00  0.00    +0.155 HD
BRANCH  14  15
ATOM     15  C   UNL     1      -0.213  33.843  23.385  0.00  0.00    +0.037 A 
ATOM     16  C   UNL     1       1.158  34.291  23.640  0.00  0.00    +0.013 A 
ATOM     17  C   UNL     1       1.456  35.700  23.715  0.00  0.00    +0.005 A 
ATOM     18  C   UNL     1       0.380  36.670  23.534  0.00  0.00    -0.033 A 
ATOM     28  C   UNL     1      -0.971  36.198  23.277  0.00  0.00    +0.005 A 
ATOM     29  C   UNL     1      -1.267  34.818  23.203  0.00  0.00    +0.013 A 
BRANCH  18  19
ATOM     19  C   UNL     1       0.602  38.192  23.619  0.00  0.00    +0.119 C 
BRANCH  19  20
ATOM     20  N   UNL     1       1.451  38.819  22.563  0.00  0.00    -0.302 NA
ATOM     21  C   UNL     1       1.429  40.348  22.640  0.00  0.00    +0.066 C 
ATOM     22  C   UNL     1       2.341  40.987  21.542  0.00  0.00    -0.064 C 
ATOM     23  N   UNL     1       1.885  40.508  20.163  0.00  0.00    +0.379 N 
ATOM     24  C   UNL     1       2.703  41.152  19.125  0.00  0.00    -0.096 C 
ATOM     25  H   UNL     1       0.832  40.843  20.020  0.00  0.00    -0.082 HD
ATOM     26  C   UNL     1       1.902  38.988  20.078  0.00  0.00    -0.064 C 
ATOM     27  C   UNL     1       1.016  38.363  21.192  0.00  0.00    +0.066 C 
ENDBRANCH  19  20
ENDBRANCH  18  19
ENDBRANCH  14  15
ENDBRANCH  12  13
TORSDOF 6
ENDMDL
MODEL 5
REMARK VINA RESULT:     -10.6      2.055     12.875
REMARK  Name = C:\Users\Docking\Desktop\test protocol\1iep_ligandH.pdb
REMARK  8 active torsions:
REMARK  status: ('A' for Active; 'I' for Inactive)
REMARK    1  A    between atoms: _5  and  _11
REMARK    2  A    between atoms: _19  and  _21
REMARK    3  A    between atoms: _22  and  _66
REMARK    4  A    between atoms: _27  and  _30
REMARK    5  A    between atoms: _32  and  _33
REMARK    6  A    between atoms: _38  and  _43
REMARK    7  A    between atoms: _43  and  _46
REMARK    8  A    between atoms: _53  and  _55
REMARK                            x       y       z     vdW  Elec       q    Type
REMARK                         _______ _______ _______ _____ _____    ______ ____
ROOT
ATOM     10  C   UNL     1      -1.756  32.603  23.675  0.00  0.00    +0.038 A 
ATOM     11  C   UNL     1      -1.176  31.565  22.901  0.00  0.00    +0.047 A 
ATOM     12  C   UNL     1      -2.000  30.678  22.094  0.00  0.00    +0.035 A 
ATOM     32  C   UNL     1      -3.411  30.878  22.097  0.00  0.00    +0.024 A 
ATOM     33  C   UNL     1      -4.017  31.927  22.879  0.00  0.00    +0.007 A 
ATOM     34  C   UNL     1      -3.210  32.804  23.679  0.00  0.00    -0.029 A 
ATOM     35  C   UNL     1      -3.915  33.907  24.502  0.00  0.00    +0.045 C 
ENDROOT
BRANCH  10   9
ATOM      4  C   UNL     1       0.881  36.572  24.253  0.00  0.00    +0.077 A 
ATOM      5  C   UNL     1       0.585  37.032  22.927  0.00  0.00    +0.048 A 
ATOM      6  C   UNL     1      -0.243  36.215  22.126  0.00  0.00    +0.116 A 
ATOM      7  N   UNL     1      -0.734  35.028  22.624  0.00  0.00    -0.223 NA
ATOM      8  C   UNL     1      -0.429  34.612  23.907  0.00  0.00    +0.220 A 
ATOM      9  N   UNL     1      -0.918  33.425  24.431  0.00  0.00    -0.283 N 
ATOM     36  H   UNL     1      -0.663  33.150  25.379  0.00  0.00    +0.155 HD
ATOM     37  N   UNL     1       0.362  35.374  24.692  0.00  0.00    -0.214 NA
BRANCH   4   3
ATOM      1  C   UNL     1       3.782  38.681  25.813  0.00  0.00    +0.020 A 
ATOM      2  C   UNL     1       2.991  37.965  24.839  0.00  0.00    +0.013 A 
ATOM      3  C   UNL     1       1.739  37.325  25.222  0.00  0.00    +0.019 A 
ATOM     38  C   UNL     1       1.312  37.429  26.609  0.00  0.00    +0.120 A 
ATOM     39  N   UNL     1       2.095  38.124  27.525  0.00  0.00    -0.263 NA
ATOM     40  C   UNL     1       3.303  38.743  27.168  0.00  0.00    +0.111 A 
ENDBRANCH   4   3
ENDBRANCH  10   9
BRANCH  12  13
ATOM     13  N   UNL     1      -1.468  29.603  21.294  0.00  0.00    -0.281 N 
ATOM     14  C   UNL     1      -1.536  28.242  21.544  0.00  0.00    +0.248 C 
ATOM     30  O   UNL     1      -1.881  27.751  22.609  0.00  0.00    -0.270 OA
ATOM     31  H   UNL     1      -0.983  29.878  20.441  0.00  0.00    +0.155 HD
BRANCH  14  15
ATOM     15  C   UNL     1      -1.152  27.289  20.459  0.00  0.00    +0.037 A 
ATOM     16  C   UNL     1      -1.706  27.411  19.108  0.00  0.00    +0.013 A 
ATOM     17  C   UNL     1      -1.331  26.468  18.085  0.00  0.00    +0.005 A 
ATOM     18  C   UNL     1      -0.395  25.394  18.409  0.00  0.00    -0.033 A 
ATOM     28  C   UNL     1       0.143  25.299  19.755  0.00  0.00    +0.005 A 
ATOM     29  C   UNL     1      -0.223  26.221  20.762  0.00  0.00    +0.013 A 
BRANCH  18  19
ATOM     19  C   UNL     1       0.044  24.330  17.385  0.00  0.00    +0.119 C 
BRANCH  19  20
ATOM     20  N   UNL     1       0.126  24.751  15.954  0.00  0.00    -0.302 NA
ATOM     21  C   UNL     1      -1.249  25.106  15.380  0.00  0.00    +0.066 C 
ATOM     22  C   UNL     1      -1.141  25.565  13.889  0.00  0.00    -0.064 C 
ATOM     23  N   UNL     1      -0.478  24.461  13.065  0.00  0.00    +0.379 N 
ATOM     24  C   UNL     1      -0.429  24.866  11.652  0.00  0.00    -0.096 C 
ATOM     25  H   UNL     1      -1.123  23.554  13.134  0.00  0.00    -0.082 HD
ATOM     26  C   UNL     1       0.888  24.100  13.630  0.00  0.00    -0.064 C 
ATOM     27  C   UNL     1       0.774  23.673  15.120  0.00  0.00    +0.066 C 
ENDBRANCH  19  20
ENDBRANCH  18  19
ENDBRANCH  14  15
ENDBRANCH  12  13
TORSDOF 6
ENDMDL
