MODEL 1
REMARK VINA RESULT:      -8.1      0.000      0.000
REMARK  Name = C:\Users\Docking\Desktop\test protocol\1iep_ligandH.pdb
REMARK  8 active torsions:
REMARK  status: ('A' for Active; 'I' for Inactive)
REMARK    1  A    between atoms: _5  and  _11
REMARK    2  A    between atoms: _19  and  _21
REMARK    3  A    between atoms: _22  and  _66
REMARK    4  A    between atoms: _27  and  _30
REMARK    5  A    between atoms: _32  and  _33
REMARK    6  A    between atoms: _38  and  _43
REMARK    7  A    between atoms: _43  and  _46
REMARK    8  A    between atoms: _53  and  _55
REMARK                            x       y       z     vdW  Elec       q    Type
REMARK                         _______ _______ _______ _____ _____    ______ ____
ROOT
ATOM     10  C   UNL     1       9.503  25.581  19.164  0.00  0.00    +0.038 A 
ATOM     11  C   UNL     1      10.878  25.580  18.819  0.00  0.00    +0.047 A 
ATOM     12  C   UNL     1      11.631  24.338  18.733  0.00  0.00    +0.035 A 
ATOM     32  C   UNL     1      10.951  23.115  19.002  0.00  0.00    +0.024 A 
ATOM     33  C   UNL     1       9.553  23.098  19.356  0.00  0.00    +0.007 A 
ATOM     34  C   UNL     1       8.806  24.320  19.445  0.00  0.00    -0.029 A 
ATOM     35  C   UNL     1       7.311  24.243  19.835  0.00  0.00    +0.045 C 
ENDROOT
BRANCH  10   9
ATOM      4  C   UNL     1       8.045  29.485  21.547  0.00  0.00    +0.077 A 
ATOM      5  C   UNL     1       8.656  29.041  22.766  0.00  0.00    +0.048 A 
ATOM      6  C   UNL     1       9.330  27.799  22.740  0.00  0.00    +0.116 A 
ATOM      7  N   UNL     1       9.383  27.064  21.575  0.00  0.00    -0.223 NA
ATOM      8  C   UNL     1       8.781  27.521  20.417  0.00  0.00    +0.220 A 
ATOM      9  N   UNL     1       8.828  26.802  19.232  0.00  0.00    -0.283 N 
ATOM     36  H   UNL     1       8.366  27.170  18.401  0.00  0.00    +0.155 HD
ATOM     37  N   UNL     1       8.131  28.703  20.416  0.00  0.00    -0.214 NA
BRANCH   4   3
ATOM      1  C   UNL     1       5.810  32.601  22.316  0.00  0.00    +0.020 A 
ATOM      2  C   UNL     1       6.510  31.350  22.496  0.00  0.00    +0.013 A 
ATOM      3  C   UNL     1       7.301  30.777  21.414  0.00  0.00    +0.019 A 
ATOM     38  C   UNL     1       7.363  31.500  20.153  0.00  0.00    +0.120 A 
ATOM     39  N   UNL     1       6.677  32.702  20.009  0.00  0.00    -0.263 NA
ATOM     40  C   UNL     1       5.912  33.263  21.042  0.00  0.00    +0.111 A 
ENDBRANCH   4   3
ENDBRANCH  10   9
BRANCH  12  13
ATOM     13  N   UNL     1      13.032  24.276  18.395  0.00  0.00    -0.281 N 
ATOM     14  C   UNL     1      14.096  23.967  19.226  0.00  0.00    +0.248 C 
ATOM     30  O   UNL     1      14.025  23.907  20.445  0.00  0.00    -0.270 OA
ATOM     31  H   UNL     1      13.267  24.484  17.424  0.00  0.00    +0.155 HD
BRANCH  14  15
ATOM     15  C   UNL     1      15.435  23.702  18.618  0.00  0.00    +0.037 A 
ATOM     16  C   UNL     1      15.715  22.447  17.916  0.00  0.00    +0.013 A 
ATOM     17  C   UNL     1      17.021  22.210  17.353  0.00  0.00    +0.005 A 
ATOM     18  C   UNL     1      18.056  23.231  17.489  0.00  0.00    -0.033 A 
ATOM     28  C   UNL     1      17.749  24.469  18.185  0.00  0.00    +0.005 A 
ATOM     29  C   UNL     1      16.471  24.705  18.740  0.00  0.00    +0.013 A 
BRANCH  18  19
ATOM     19  C   UNL     1      19.483  23.054  16.937  0.00  0.00    +0.119 C 
BRANCH  19  20
ATOM     20  N   UNL     1      19.691  23.311  15.481  0.00  0.00    -0.302 NA
ATOM     21  C   UNL     1      18.743  24.389  14.947  0.00  0.00    +0.066 C 
ATOM     22  C   UNL     1      18.989  24.660  13.427  0.00  0.00    -0.064 C 
ATOM     23  N   UNL     1      18.822  23.356  12.645  0.00  0.00    +0.379 N 
ATOM     24  C   UNL     1      18.995  23.620  11.209  0.00  0.00    -0.096 C 
ATOM     25  H   UNL     1      17.776  23.001  12.800  0.00  0.00    -0.082 HD
ATOM     26  C   UNL     1      19.758  22.278  13.171  0.00  0.00    -0.064 C 
ATOM     27  C   UNL     1      19.526  22.037  14.689  0.00  0.00    +0.066 C 
ENDBRANCH  19  20
ENDBRANCH  18  19
ENDBRANCH  14  15
ENDBRANCH  12  13
TORSDOF 6
ENDMDL
MODEL 2
REMARK VINA RESULT:      -8.0      1.310      1.872
REMARK  Name = C:\Users\Docking\Desktop\test protocol\1iep_ligandH.pdb
REMARK  8 active torsions:
REMARK  status: ('A' for Active; 'I' for Inactive)
REMARK    1  A    between atoms: _5  and  _11
REMARK    2  A    between atoms: _19  and  _21
REMARK    3  A    between atoms: _22  and  _66
REMARK    4  A    between atoms: _27  and  _30
REMARK    5  A    between atoms: _32  and  _33
REMARK    6  A    between atoms: _38  and  _43
REMARK    7  A    between atoms: _43  and  _46
REMARK    8  A    between atoms: _53  and  _55
REMARK                            x       y       z     vdW  Elec       q    Type
REMARK                         _______ _______ _______ _____ _____    ______ ____
ROOT
ATOM     10  C   UNL     1       9.486  25.578  19.123  0.00  0.00    +0.038 A 
ATOM     11  C   UNL     1      10.814  25.500  18.630  0.00  0.00    +0.047 A 
ATOM     12  C   UNL     1      11.504  24.224  18.526  0.00  0.00    +0.035 A 
ATOM     32  C   UNL     1      10.811  23.046  18.931  0.00  0.00    +0.024 A 
ATOM     33  C   UNL     1       9.462  23.107  19.436  0.00  0.00    +0.007 A 
ATOM     34  C   UNL     1       8.777  24.363  19.542  0.00  0.00    -0.029 A 
ATOM     35  C   UNL     1       7.333  24.370  20.096  0.00  0.00    +0.045 C 
ENDROOT
BRANCH  10   9
ATOM      4  C   UNL     1       8.125  29.480  21.563  0.00  0.00    +0.077 A 
ATOM      5  C   UNL     1       8.661  28.970  22.793  0.00  0.00    +0.048 A 
ATOM      6  C   UNL     1       9.272  27.697  22.756  0.00  0.00    +0.116 A 
ATOM      7  N   UNL     1       9.338  26.995  21.572  0.00  0.00    -0.223 NA
ATOM      8  C   UNL     1       8.810  27.515  20.404  0.00  0.00    +0.220 A 
ATOM      9  N   UNL     1       8.871  26.829  19.201  0.00  0.00    -0.283 N 
ATOM     36  H   UNL     1       8.463  27.244  18.363  0.00  0.00    +0.155 HD
ATOM     37  N   UNL     1       8.219  28.728  20.414  0.00  0.00    -0.214 NA
BRANCH   4   3
ATOM      1  C   UNL     1       5.898  32.617  22.273  0.00  0.00    +0.020 A 
ATOM      2  C   UNL     1       6.522  31.324  22.439  0.00  0.00    +0.013 A 
ATOM      3  C   UNL     1       7.452  30.812  21.441  0.00  0.00    +0.019 A 
ATOM     38  C   UNL     1       7.733  31.639  20.277  0.00  0.00    +0.120 A 
ATOM     39  N   UNL     1       7.117  32.879  20.143  0.00  0.00    -0.263 NA
ATOM     40  C   UNL     1       6.219  33.382  21.096  0.00  0.00    +0.111 A 
ENDBRANCH   4   3
ENDBRANCH  10   9
BRANCH  12  13
ATOM     13  N   UNL     1      12.855  24.083  18.041  0.00  0.00    -0.281 N 
ATOM     14  C   UNL     1      14.006  23.857  18.779  0.00  0.00    +0.248 C 
ATOM     30  O   UNL     1      14.077  23.955  19.995  0.00  0.00    -0.270 OA
ATOM     31  H   UNL     1      12.978  24.160  17.031  0.00  0.00    +0.155 HD
BRANCH  14  15
ATOM     15  C   UNL     1      15.262  23.484  18.060  0.00  0.00    +0.037 A 
ATOM     16  C   UNL     1      16.579  23.782  18.627  0.00  0.00    +0.013 A 
ATOM     17  C   UNL     1      17.775  23.426  17.906  0.00  0.00    +0.005 A 
ATOM     18  C   UNL     1      17.658  22.765  16.608  0.00  0.00    -0.033 A 
ATOM     28  C   UNL     1      16.339  22.476  16.071  0.00  0.00    +0.005 A 
ATOM     29  C   UNL     1      15.165  22.824  16.775  0.00  0.00    +0.013 A 
BRANCH  18  19
ATOM     19  C   UNL     1      18.880  22.368  15.759  0.00  0.00    +0.119 C 
BRANCH  19  20
ATOM     20  N   UNL     1      18.651  21.408  14.638  0.00  0.00    -0.302 NA
ATOM     21  C   UNL     1      19.342  20.063  14.883  0.00  0.00    +0.066 C 
ATOM     22  C   UNL     1      19.073  19.064  13.711  0.00  0.00    -0.064 C 
ATOM     23  N   UNL     1      19.547  19.684  12.396  0.00  0.00    +0.379 N 
ATOM     24  C   UNL     1      19.349  18.724  11.301  0.00  0.00    -0.096 C 
ATOM     25  H   UNL     1      20.642  19.873  12.487  0.00  0.00    -0.082 HD
ATOM     26  C   UNL     1      18.867  21.023  12.146  0.00  0.00    -0.064 C 
ATOM     27  C   UNL     1      19.116  21.999  13.330  0.00  0.00    +0.066 C 
ENDBRANCH  19  20
ENDBRANCH  18  19
ENDBRANCH  14  15
ENDBRANCH  12  13
TORSDOF 6
ENDMDL
MODEL 3
REMARK VINA RESULT:      -7.7      3.759     12.552
REMARK  Name = C:\Users\Docking\Desktop\test protocol\1iep_ligandH.pdb
REMARK  8 active torsions:
REMARK  status: ('A' for Active; 'I' for Inactive)
REMARK    1  A    between atoms: _5  and  _11
REMARK    2  A    between atoms: _19  and  _21
REMARK    3  A    between atoms: _22  and  _66
REMARK    4  A    between atoms: _27  and  _30
REMARK    5  A    between atoms: _32  and  _33
REMARK    6  A    between atoms: _38  and  _43
REMARK    7  A    between atoms: _43  and  _46
REMARK    8  A    between atoms: _53  and  _55
REMARK                            x       y       z     vdW  Elec       q    Type
REMARK                         _______ _______ _______ _____ _____    ______ ____
ROOT
ATOM     10  C   UNL     1      17.312  22.495  15.043  0.00  0.00    +0.038 A 
ATOM     11  C   UNL     1      16.082  22.793  15.683  0.00  0.00    +0.047 A 
ATOM     12  C   UNL     1      14.816  22.338  15.129  0.00  0.00    +0.035 A 
ATOM     32  C   UNL     1      14.840  21.579  13.923  0.00  0.00    +0.024 A 
ATOM     33  C   UNL     1      16.081  21.268  13.258  0.00  0.00    +0.007 A 
ATOM     34  C   UNL     1      17.332  21.717  13.798  0.00  0.00    -0.029 A 
ATOM     35  C   UNL     1      18.632  21.359  13.040  0.00  0.00    +0.045 C 
ENDROOT
BRANCH  10   9
ATOM      4  C   UNL     1      20.675  25.859  15.685  0.00  0.00    +0.077 A 
ATOM      5  C   UNL     1      20.029  26.762  14.777  0.00  0.00    +0.048 A 
ATOM      6  C   UNL     1      18.837  26.320  14.160  0.00  0.00    +0.116 A 
ATOM      7  N   UNL     1      18.338  25.066  14.438  0.00  0.00    -0.223 NA
ATOM      8  C   UNL     1      18.986  24.219  15.317  0.00  0.00    +0.220 A 
ATOM      9  N   UNL     1      18.497  22.957  15.618  0.00  0.00    -0.283 N 
ATOM     36  H   UNL     1      19.009  22.360  16.266  0.00  0.00    +0.155 HD
ATOM     37  N   UNL     1      20.127  24.617  15.918  0.00  0.00    -0.214 NA
BRANCH   4   3
ATOM      1  C   UNL     1      24.415  26.661  16.501  0.00  0.00    +0.020 A 
ATOM      2  C   UNL     1      23.223  26.349  15.747  0.00  0.00    +0.013 A 
ATOM      3  C   UNL     1      21.940  26.182  16.417  0.00  0.00    +0.019 A 
ATOM     38  C   UNL     1      21.896  26.341  17.863  0.00  0.00    +0.120 A 
ATOM     39  N   UNL     1      23.061  26.641  18.563  0.00  0.00    -0.263 NA
ATOM     40  C   UNL     1      24.302  26.801  17.929  0.00  0.00    +0.111 A 
ENDBRANCH   4   3
ENDBRANCH  10   9
BRANCH  12  13
ATOM     13  N   UNL     1      13.535  22.617  15.731  0.00  0.00    -0.281 N 
ATOM     14  C   UNL     1      13.087  22.250  16.989  0.00  0.00    +0.248 C 
ATOM     30  O   UNL     1      13.645  21.438  17.712  0.00  0.00    -0.270 OA
ATOM     31  H   UNL     1      12.879  23.150  15.159  0.00  0.00    +0.155 HD
BRANCH  14  15
ATOM     15  C   UNL     1      11.830  22.863  17.515  0.00  0.00    +0.037 A 
ATOM     16  C   UNL     1      11.831  24.196  18.123  0.00  0.00    +0.013 A 
ATOM     17  C   UNL     1      10.607  24.757  18.638  0.00  0.00    +0.005 A 
ATOM     18  C   UNL     1       9.370  23.984  18.546  0.00  0.00    -0.033 A 
ATOM     28  C   UNL     1       9.397  22.666  17.933  0.00  0.00    +0.005 A 
ATOM     29  C   UNL     1      10.595  22.113  17.428  0.00  0.00    +0.013 A 
BRANCH  18  19
ATOM     19  C   UNL     1       8.022  24.495  19.088  0.00  0.00    +0.119 C 
BRANCH  19  20
ATOM     20  N   UNL     1       7.654  24.105  20.482  0.00  0.00    -0.302 NA
ATOM     21  C   UNL     1       6.495  23.104  20.511  0.00  0.00    +0.066 C 
ATOM     22  C   UNL     1       6.138  22.690  21.976  0.00  0.00    -0.064 C 
ATOM     23  N   UNL     1       5.794  23.940  22.787  0.00  0.00    +0.379 N 
ATOM     24  C   UNL     1       5.401  23.549  24.149  0.00  0.00    -0.096 C 
ATOM     25  H   UNL     1       4.912  24.423  22.306  0.00  0.00    -0.082 HD
ATOM     26  C   UNL     1       6.940  24.942  22.761  0.00  0.00    -0.064 C 
ATOM     27  C   UNL     1       7.307  25.325  21.300  0.00  0.00    +0.066 C 
ENDBRANCH  19  20
ENDBRANCH  18  19
ENDBRANCH  14  15
ENDBRANCH  12  13
TORSDOF 6
ENDMDL
MODEL 4
REMARK VINA RESULT:      -7.7      3.333     12.514
REMARK  Name = C:\Users\Docking\Desktop\test protocol\1iep_ligandH.pdb
REMARK  8 active torsions:
REMARK  status: ('A' for Active; 'I' for Inactive)
REMARK    1  A    between atoms: _5  and  _11
REMARK    2  A    between atoms: _19  and  _21
REMARK    3  A    between atoms: _22  and  _66
REMARK    4  A    between atoms: _27  and  _30
REMARK    5  A    between atoms: _32  and  _33
REMARK    6  A    between atoms: _38  and  _43
REMARK    7  A    between atoms: _43  and  _46
REMARK    8  A    between atoms: _53  and  _55
REMARK                            x       y       z     vdW  Elec       q    Type
REMARK                         _______ _______ _______ _____ _____    ______ ____
ROOT
ATOM     10  C   UNL     1      18.809  22.558  14.410  0.00  0.00    +0.038 A 
ATOM     11  C   UNL     1      17.534  22.648  15.026  0.00  0.00    +0.047 A 
ATOM     12  C   UNL     1      16.346  22.117  14.376  0.00  0.00    +0.035 A 
ATOM     32  C   UNL     1      16.492  21.500  13.100  0.00  0.00    +0.024 A 
ATOM     33  C   UNL     1      17.780  21.401  12.459  0.00  0.00    +0.007 A 
ATOM     34  C   UNL     1      18.956  21.925  13.094  0.00  0.00    -0.029 A 
ATOM     35  C   UNL     1      20.310  21.797  12.358  0.00  0.00    +0.045 C 
ENDROOT
BRANCH  10   9
ATOM      4  C   UNL     1      21.762  26.178  15.512  0.00  0.00    +0.077 A 
ATOM      5  C   UNL     1      21.055  27.092  14.663  0.00  0.00    +0.048 A 
ATOM      6  C   UNL     1      19.941  26.589  13.954  0.00  0.00    +0.116 A 
ATOM      7  N   UNL     1      19.570  25.269  14.092  0.00  0.00    -0.223 NA
ATOM      8  C   UNL     1      20.276  24.414  14.919  0.00  0.00    +0.220 A 
ATOM      9  N   UNL     1      19.917  23.084  15.079  0.00  0.00    -0.283 N 
ATOM     36  H   UNL     1      20.467  22.484  15.693  0.00  0.00    +0.155 HD
ATOM     37  N   UNL     1      21.344  24.869  15.605  0.00  0.00    -0.214 NA
BRANCH   4   3
ATOM      1  C   UNL     1      25.355  27.309  16.568  0.00  0.00    +0.020 A 
ATOM      2  C   UNL     1      24.231  26.949  15.735  0.00  0.00    +0.013 A 
ATOM      3  C   UNL     1      22.958  26.560  16.329  0.00  0.00    +0.019 A 
ATOM     38  C   UNL     1      22.854  26.547  17.780  0.00  0.00    +0.120 A 
ATOM     39  N   UNL     1      23.954  26.897  18.557  0.00  0.00    -0.263 NA
ATOM     40  C   UNL     1      25.184  27.272  17.997  0.00  0.00    +0.111 A 
ENDBRANCH   4   3
ENDBRANCH  10   9
BRANCH  12  13
ATOM     13  N   UNL     1      15.025  22.187  14.949  0.00  0.00    -0.281 N 
ATOM     14  C   UNL     1      14.548  21.531  16.073  0.00  0.00    +0.248 C 
ATOM     30  O   UNL     1      15.128  20.615  16.636  0.00  0.00    -0.270 OA
ATOM     31  H   UNL     1      14.360  22.792  14.468  0.00  0.00    +0.155 HD
BRANCH  14  15
ATOM     15  C   UNL     1      13.230  21.944  16.645  0.00  0.00    +0.037 A 
ATOM     16  C   UNL     1      12.015  21.166  16.392  0.00  0.00    +0.013 A 
ATOM     17  C   UNL     1      10.754  21.595  16.942  0.00  0.00    +0.005 A 
ATOM     18  C   UNL     1      10.702  22.810  17.752  0.00  0.00    -0.033 A 
ATOM     28  C   UNL     1      11.924  23.560  17.992  0.00  0.00    +0.005 A 
ATOM     29  C   UNL     1      13.162  23.142  17.454  0.00  0.00    +0.013 A 
BRANCH  18  19
ATOM     19  C   UNL     1       9.396  23.354  18.361  0.00  0.00    +0.119 C 
BRANCH  19  20
ATOM     20  N   UNL     1       9.519  24.424  19.396  0.00  0.00    -0.302 NA
ATOM     21  C   UNL     1       8.620  24.156  20.607  0.00  0.00    +0.066 C 
ATOM     22  C   UNL     1       8.777  25.273  21.690  0.00  0.00    -0.064 C 
ATOM     23  N   UNL     1       8.456  26.633  21.067  0.00  0.00    +0.379 N 
ATOM     24  C   UNL     1       8.546  27.678  22.097  0.00  0.00    -0.096 C 
ATOM     25  H   UNL     1       7.401  26.600  20.709  0.00  0.00    -0.082 HD
ATOM     26  C   UNL     1       9.343  26.905  19.861  0.00  0.00    -0.064 C 
ATOM     27  C   UNL     1       9.202  25.774  18.804  0.00  0.00    +0.066 C 
ENDBRANCH  19  20
ENDBRANCH  18  19
ENDBRANCH  14  15
ENDBRANCH  12  13
TORSDOF 6
ENDMDL
MODEL 5
REMARK VINA RESULT:      -7.7      1.176      1.724
REMARK  Name = C:\Users\Docking\Desktop\test protocol\1iep_ligandH.pdb
REMARK  8 active torsions:
REMARK  status: ('A' for Active; 'I' for Inactive)
REMARK    1  A    between atoms: _5  and  _11
REMARK    2  A    between atoms: _19  and  _21
REMARK    3  A    between atoms: _22  and  _66
REMARK    4  A    between atoms: _27  and  _30
REMARK    5  A    between atoms: _32  and  _33
REMARK    6  A    between atoms: _38  and  _43
REMARK    7  A    between atoms: _43  and  _46
REMARK    8  A    between atoms: _53  and  _55
REMARK                            x       y       z     vdW  Elec       q    Type
REMARK                         _______ _______ _______ _____ _____    ______ ____
ROOT
ATOM     10  C   UNL     1       9.463  25.453  19.131  0.00  0.00    +0.038 A 
ATOM     11  C   UNL     1      10.793  25.357  18.648  0.00  0.00    +0.047 A 
ATOM     12  C   UNL     1      11.494  24.083  18.621  0.00  0.00    +0.035 A 
ATOM     32  C   UNL     1      10.809  22.926  19.093  0.00  0.00    +0.024 A 
ATOM     33  C   UNL     1       9.458  23.005  19.589  0.00  0.00    +0.007 A 
ATOM     34  C   UNL     1       8.762  24.260  19.620  0.00  0.00    -0.029 A 
ATOM     35  C   UNL     1       7.316  24.287  20.168  0.00  0.00    +0.045 C 
ENDROOT
BRANCH  10   9
ATOM      4  C   UNL     1       8.099  29.499  21.324  0.00  0.00    +0.077 A 
ATOM      5  C   UNL     1       8.657  29.078  22.577  0.00  0.00    +0.048 A 
ATOM      6  C   UNL     1       9.279  27.811  22.616  0.00  0.00    +0.116 A 
ATOM      7  N   UNL     1       9.335  27.031  21.481  0.00  0.00    -0.223 NA
ATOM      8  C   UNL     1       8.786  27.466  20.289  0.00  0.00    +0.220 A 
ATOM      9  N   UNL     1       8.837  26.702  19.134  0.00  0.00    -0.283 N 
ATOM     36  H   UNL     1       8.414  27.056  18.276  0.00  0.00    +0.155 HD
ATOM     37  N   UNL     1       8.184  28.672  20.226  0.00  0.00    -0.214 NA
BRANCH   4   3
ATOM      1  C   UNL     1       6.769  32.808  19.716  0.00  0.00    +0.020 A 
ATOM      2  C   UNL     1       7.451  31.543  19.860  0.00  0.00    +0.013 A 
ATOM      3  C   UNL     1       7.412  30.814  21.121  0.00  0.00    +0.019 A 
ATOM     38  C   UNL     1       6.668  31.398  22.227  0.00  0.00    +0.120 A 
ATOM     39  N   UNL     1       6.022  32.619  22.060  0.00  0.00    -0.263 NA
ATOM     40  C   UNL     1       6.054  33.330  20.851  0.00  0.00    +0.111 A 
ENDBRANCH   4   3
ENDBRANCH  10   9
BRANCH  12  13
ATOM     13  N   UNL     1      12.847  23.926  18.149  0.00  0.00    -0.281 N 
ATOM     14  C   UNL     1      13.939  23.429  18.841  0.00  0.00    +0.248 C 
ATOM     30  O   UNL     1      13.964  23.241  20.049  0.00  0.00    -0.270 OA
ATOM     31  H   UNL     1      13.021  24.217  17.187  0.00  0.00    +0.155 HD
BRANCH  14  15
ATOM     15  C   UNL     1      15.188  23.107  18.086  0.00  0.00    +0.037 A 
ATOM     16  C   UNL     1      15.241  23.210  16.626  0.00  0.00    +0.013 A 
ATOM     17  C   UNL     1      16.453  22.878  15.921  0.00  0.00    +0.005 A 
ATOM     18  C   UNL     1      17.624  22.440  16.677  0.00  0.00    -0.033 A 
ATOM     28  C   UNL     1      17.545  22.351  18.125  0.00  0.00    +0.005 A 
ATOM     29  C   UNL     1      16.358  22.675  18.820  0.00  0.00    +0.013 A 
BRANCH  18  19
ATOM     19  C   UNL     1      18.953  22.044  16.006  0.00  0.00    +0.119 C 
BRANCH  19  20
ATOM     20  N   UNL     1      19.819  23.150  15.501  0.00  0.00    -0.302 NA
ATOM     21  C   UNL     1      19.999  24.260  16.541  0.00  0.00    +0.066 C 
ATOM     22  C   UNL     1      20.927  25.398  16.005  0.00  0.00    -0.064 C 
ATOM     23  N   UNL     1      20.342  25.961  14.709  0.00  0.00    +0.379 N 
ATOM     24  C   UNL     1      21.181  27.071  14.233  0.00  0.00    -0.096 C 
ATOM     25  H   UNL     1      19.334  26.376  14.945  0.00  0.00    -0.082 HD
ATOM     26  C   UNL     1      20.157  24.864  13.670  0.00  0.00    -0.064 C 
ATOM     27  C   UNL     1      19.258  23.724  14.223  0.00  0.00    +0.066 C 
ENDBRANCH  19  20
ENDBRANCH  18  19
ENDBRANCH  14  15
ENDBRANCH  12  13
TORSDOF 6
ENDMDL
