MODEL 1
REMARK VINA RESULT:      -8.7      0.000      0.000
REMARK  Name = C:\Users\Docking\Desktop\test protocol\1iep_ligandH.pdb
REMARK  8 active torsions:
REMARK  status: ('A' for Active; 'I' for Inactive)
REMARK    1  A    between atoms: _5  and  _11
REMARK    2  A    between atoms: _19  and  _21
REMARK    3  A    between atoms: _22  and  _66
REMARK    4  A    between atoms: _27  and  _30
REMARK    5  A    between atoms: _32  and  _33
REMARK    6  A    between atoms: _38  and  _43
REMARK    7  A    between atoms: _43  and  _46
REMARK    8  A    between atoms: _53  and  _55
REMARK                            x       y       z     vdW  Elec       q    Type
REMARK                         _______ _______ _______ _____ _____    ______ ____
ROOT
ATOM     10  C   UNL     1       7.254  -0.437  11.314  0.00  0.00    +0.038 A 
ATOM     11  C   UNL     1       7.918   0.812  11.208  0.00  0.00    +0.047 A 
ATOM     12  C   UNL     1       7.708   1.680  10.060  0.00  0.00    +0.035 A 
ATOM     32  C   UNL     1       6.812   1.247   9.040  0.00  0.00    +0.024 A 
ATOM     33  C   UNL     1       6.129  -0.020   9.131  0.00  0.00    +0.007 A 
ATOM     34  C   UNL     1       6.334  -0.882  10.260  0.00  0.00    -0.029 A 
ATOM     35  C   UNL     1       5.581  -2.232  10.302  0.00  0.00    +0.045 C 
ENDROOT
BRANCH  10   9
ATOM      4  C   UNL     1       9.812  -3.711  13.718  0.00  0.00    +0.077 A 
ATOM      5  C   UNL     1      10.735  -3.872  12.632  0.00  0.00    +0.048 A 
ATOM      6  C   UNL     1      10.513  -3.100  11.470  0.00  0.00    +0.116 A 
ATOM      7  N   UNL     1       9.443  -2.233  11.410  0.00  0.00    -0.223 NA
ATOM      8  C   UNL     1       8.570  -2.103  12.474  0.00  0.00    +0.220 A 
ATOM      9  N   UNL     1       7.492  -1.231  12.438  0.00  0.00    -0.283 N 
ATOM     36  H   UNL     1       6.867  -1.169  13.241  0.00  0.00    +0.155 HD
ATOM     37  N   UNL     1       8.760  -2.830  13.594  0.00  0.00    -0.214 NA
BRANCH   4   3
ATOM      1  C   UNL     1       9.718  -6.543  16.414  0.00  0.00    +0.020 A 
ATOM      2  C   UNL     1       9.601  -5.872  15.140  0.00  0.00    +0.013 A 
ATOM      3  C   UNL     1       9.915  -4.455  15.013  0.00  0.00    +0.019 A 
ATOM     38  C   UNL     1      10.349  -3.740  16.203  0.00  0.00    +0.120 A 
ATOM     39  N   UNL     1      10.451  -4.412  17.417  0.00  0.00    -0.263 NA
ATOM     40  C   UNL     1      10.150  -5.776  17.552  0.00  0.00    +0.111 A 
ENDBRANCH   4   3
ENDBRANCH  10   9
BRANCH  12  13
ATOM     13  N   UNL     1       8.361   2.955   9.894  0.00  0.00    -0.281 N 
ATOM     14  C   UNL     1       7.893   4.206  10.263  0.00  0.00    +0.248 C 
ATOM     30  O   UNL     1       6.743   4.442  10.602  0.00  0.00    -0.270 OA
ATOM     31  H   UNL     1       9.279   2.933   9.449  0.00  0.00    +0.155 HD
BRANCH  14  15
ATOM     15  C   UNL     1       8.836   5.365  10.239  0.00  0.00    +0.037 A 
ATOM     16  C   UNL     1       9.512   5.769   9.003  0.00  0.00    +0.013 A 
ATOM     17  C   UNL     1      10.430   6.880   9.011  0.00  0.00    +0.005 A 
ATOM     18  C   UNL     1      10.676   7.597  10.261  0.00  0.00    -0.033 A 
ATOM     28  C   UNL     1       9.988   7.178  11.470  0.00  0.00    +0.005 A 
ATOM     29  C   UNL     1       9.089   6.089  11.467  0.00  0.00    +0.013 A 
BRANCH  18  19
ATOM     19  C   UNL     1      11.656   8.781  10.367  0.00  0.00    +0.119 C 
BRANCH  19  20
ATOM     20  N   UNL     1      13.082   8.523  10.007  0.00  0.00    -0.302 NA
ATOM     21  C   UNL     1      13.693   7.401  10.851  0.00  0.00    +0.066 C 
ATOM     22  C   UNL     1      15.179   7.129  10.447  0.00  0.00    -0.064 C 
ATOM     23  N   UNL     1      15.988   8.419  10.592  0.00  0.00    +0.379 N 
ATOM     24  C   UNL     1      17.397   8.153  10.268  0.00  0.00    -0.096 C 
ATOM     25  H   UNL     1      15.940   8.730  11.661  0.00  0.00    -0.082 HD
ATOM     26  C   UNL     1      15.386   9.541   9.758  0.00  0.00    -0.064 C 
ATOM     27  C   UNL     1      13.901   9.783  10.148  0.00  0.00    +0.066 C 
ENDBRANCH  19  20
ENDBRANCH  18  19
ENDBRANCH  14  15
ENDBRANCH  12  13
TORSDOF 6
ENDMDL
MODEL 2
REMARK VINA RESULT:      -8.2     16.616     19.578
REMARK  Name = C:\Users\Docking\Desktop\test protocol\1iep_ligandH.pdb
REMARK  8 active torsions:
REMARK  status: ('A' for Active; 'I' for Inactive)
REMARK    1  A    between atoms: _5  and  _11
REMARK    2  A    between atoms: _19  and  _21
REMARK    3  A    between atoms: _22  and  _66
REMARK    4  A    between atoms: _27  and  _30
REMARK    5  A    between atoms: _32  and  _33
REMARK    6  A    between atoms: _38  and  _43
REMARK    7  A    between atoms: _43  and  _46
REMARK    8  A    between atoms: _53  and  _55
REMARK                            x       y       z     vdW  Elec       q    Type
REMARK                         _______ _______ _______ _____ _____    ______ ____
ROOT
ATOM     10  C   UNL     1       6.409  12.482  28.371  0.00  0.00    +0.038 A 
ATOM     11  C   UNL     1       5.525  12.446  27.262  0.00  0.00    +0.047 A 
ATOM     12  C   UNL     1       4.102  12.694  27.426  0.00  0.00    +0.035 A 
ATOM     32  C   UNL     1       3.611  12.979  28.733  0.00  0.00    +0.024 A 
ATOM     33  C   UNL     1       4.495  13.019  29.872  0.00  0.00    +0.007 A 
ATOM     34  C   UNL     1       5.900  12.772  29.717  0.00  0.00    -0.029 A 
ATOM     35  C   UNL     1       6.799  12.821  30.975  0.00  0.00    +0.045 C 
ENDROOT
BRANCH  10   9
ATOM      4  C   UNL     1      10.010  10.475  25.914  0.00  0.00    +0.077 A 
ATOM      5  C   UNL     1       9.109   9.842  24.995  0.00  0.00    +0.048 A 
ATOM      6  C   UNL     1       7.726  10.052  25.194  0.00  0.00    +0.116 A 
ATOM      7  N   UNL     1       7.288  10.839  26.237  0.00  0.00    -0.223 NA
ATOM      8  C   UNL     1       8.184  11.434  27.106  0.00  0.00    +0.220 A 
ATOM      9  N   UNL     1       7.767  12.236  28.157  0.00  0.00    -0.283 N 
ATOM     36  H   UNL     1       8.459  12.650  28.781  0.00  0.00    +0.155 HD
ATOM     37  N   UNL     1       9.510  11.248  26.938  0.00  0.00    -0.214 NA
BRANCH   4   3
ATOM      1  C   UNL     1      13.610   9.197  25.071  0.00  0.00    +0.020 A 
ATOM      2  C   UNL     1      12.168   9.270  25.119  0.00  0.00    +0.013 A 
ATOM      3  C   UNL     1      11.500  10.351  25.833  0.00  0.00    +0.019 A 
ATOM     38  C   UNL     1      12.327  11.350  26.493  0.00  0.00    +0.120 A 
ATOM     39  N   UNL     1      13.714  11.253  26.431  0.00  0.00    -0.263 NA
ATOM     40  C   UNL     1      14.367  10.216  25.748  0.00  0.00    +0.111 A 
ENDBRANCH   4   3
ENDBRANCH  10   9
BRANCH  12  13
ATOM     13  N   UNL     1       3.156  12.663  26.338  0.00  0.00    -0.281 N 
ATOM     14  C   UNL     1       2.366  11.602  25.926  0.00  0.00    +0.248 C 
ATOM     30  O   UNL     1       2.511  10.447  26.299  0.00  0.00    -0.270 OA
ATOM     31  H   UNL     1       3.056  13.528  25.807  0.00  0.00    +0.155 HD
BRANCH  14  15
ATOM     15  C   UNL     1       1.266  11.857  24.947  0.00  0.00    +0.037 A 
ATOM     16  C   UNL     1       0.107  10.966  24.857  0.00  0.00    +0.013 A 
ATOM     17  C   UNL     1      -0.932  11.226  23.892  0.00  0.00    +0.005 A 
ATOM     18  C   UNL     1      -0.816  12.385  23.010  0.00  0.00    -0.033 A 
ATOM     28  C   UNL     1       0.342  13.255  23.124  0.00  0.00    +0.005 A 
ATOM     29  C   UNL     1       1.363  13.003  24.068  0.00  0.00    +0.013 A 
BRANCH  18  19
ATOM     19  C   UNL     1      -1.867  12.727  21.936  0.00  0.00    +0.119 C 
BRANCH  19  20
ATOM     20  N   UNL     1      -1.442  12.629  20.508  0.00  0.00    -0.302 NA
ATOM     21  C   UNL     1      -2.065  13.730  19.646  0.00  0.00    +0.066 C 
ATOM     22  C   UNL     1      -1.593  13.627  18.160  0.00  0.00    -0.064 C 
ATOM     23  N   UNL     1      -1.947  12.244  17.611  0.00  0.00    +0.379 N 
ATOM     24  C   UNL     1      -1.555  12.163  16.196  0.00  0.00    -0.096 C 
ATOM     25  H   UNL     1      -3.055  12.133  17.662  0.00  0.00    -0.082 HD
ATOM     26  C   UNL     1      -1.333  11.142  18.463  0.00  0.00    -0.064 C 
ATOM     27  C   UNL     1      -1.786  11.272  19.944  0.00  0.00    +0.066 C 
ENDBRANCH  19  20
ENDBRANCH  18  19
ENDBRANCH  14  15
ENDBRANCH  12  13
TORSDOF 6
ENDMDL
MODEL 3
REMARK VINA RESULT:      -8.1      1.293      1.795
REMARK  Name = C:\Users\Docking\Desktop\test protocol\1iep_ligandH.pdb
REMARK  8 active torsions:
REMARK  status: ('A' for Active; 'I' for Inactive)
REMARK    1  A    between atoms: _5  and  _11
REMARK    2  A    between atoms: _19  and  _21
REMARK    3  A    between atoms: _22  and  _66
REMARK    4  A    between atoms: _27  and  _30
REMARK    5  A    between atoms: _32  and  _33
REMARK    6  A    between atoms: _38  and  _43
REMARK    7  A    between atoms: _43  and  _46
REMARK    8  A    between atoms: _53  and  _55
REMARK                            x       y       z     vdW  Elec       q    Type
REMARK                         _______ _______ _______ _____ _____    ______ ____
ROOT
ATOM     10  C   UNL     1       7.743  -0.565  10.906  0.00  0.00    +0.038 A 
ATOM     11  C   UNL     1       8.315   0.730  10.828  0.00  0.00    +0.047 A 
ATOM     12  C   UNL     1       7.810   1.721   9.890  0.00  0.00    +0.035 A 
ATOM     32  C   UNL     1       6.720   1.358   9.047  0.00  0.00    +0.024 A 
ATOM     33  C   UNL     1       6.127   0.045   9.112  0.00  0.00    +0.007 A 
ATOM     34  C   UNL     1       6.623  -0.936  10.034  0.00  0.00    -0.029 A 
ATOM     35  C   UNL     1       5.953  -2.330  10.056  0.00  0.00    +0.045 C 
ENDROOT
BRANCH  10   9
ATOM      4  C   UNL     1       7.704  -2.777  15.165  0.00  0.00    +0.077 A 
ATOM      5  C   UNL     1       6.559  -2.035  15.607  0.00  0.00    +0.048 A 
ATOM      6  C   UNL     1       6.014  -1.089  14.710  0.00  0.00    +0.116 A 
ATOM      7  N   UNL     1       6.581  -0.907  13.467  0.00  0.00    -0.223 NA
ATOM      8  C   UNL     1       7.686  -1.638  13.073  0.00  0.00    +0.220 A 
ATOM      9  N   UNL     1       8.268  -1.477  11.825  0.00  0.00    -0.283 N 
ATOM     36  H   UNL     1       9.087  -2.030  11.575  0.00  0.00    +0.155 HD
ATOM     37  N   UNL     1       8.226  -2.547  13.912  0.00  0.00    -0.214 NA
BRANCH   4   3
ATOM      1  C   UNL     1      10.454  -4.984  16.859  0.00  0.00    +0.020 A 
ATOM      2  C   UNL     1       9.841  -3.966  16.039  0.00  0.00    +0.013 A 
ATOM      3  C   UNL     1       8.391  -3.815  15.997  0.00  0.00    +0.019 A 
ATOM     38  C   UNL     1       7.585  -4.718  16.805  0.00  0.00    +0.120 A 
ATOM     39  N   UNL     1       8.204  -5.691  17.584  0.00  0.00    -0.263 NA
ATOM     40  C   UNL     1       9.597  -5.846  17.631  0.00  0.00    +0.111 A 
ENDBRANCH   4   3
ENDBRANCH  10   9
BRANCH  12  13
ATOM     13  N   UNL     1       8.356   3.049   9.760  0.00  0.00    -0.281 N 
ATOM     14  C   UNL     1       8.132   4.145  10.577  0.00  0.00    +0.248 C 
ATOM     30  O   UNL     1       7.255   4.206  11.427  0.00  0.00    -0.270 OA
ATOM     31  H   UNL     1       8.983   3.200   8.970  0.00  0.00    +0.155 HD
BRANCH  14  15
ATOM     15  C   UNL     1       8.998   5.353  10.419  0.00  0.00    +0.037 A 
ATOM     16  C   UNL     1       9.538   5.734   9.111  0.00  0.00    +0.013 A 
ATOM     17  C   UNL     1      10.385   6.895   8.989  0.00  0.00    +0.005 A 
ATOM     18  C   UNL     1      10.695   7.683  10.179  0.00  0.00    -0.033 A 
ATOM     28  C   UNL     1      10.141   7.286  11.463  0.00  0.00    +0.005 A 
ATOM     29  C   UNL     1       9.312   6.148  11.587  0.00  0.00    +0.013 A 
BRANCH  18  19
ATOM     19  C   UNL     1      11.606   8.924  10.146  0.00  0.00    +0.119 C 
BRANCH  19  20
ATOM     20  N   UNL     1      13.053   8.702   9.847  0.00  0.00    -0.302 NA
ATOM     21  C   UNL     1      13.630   7.528  10.643  0.00  0.00    +0.066 C 
ATOM     22  C   UNL     1      15.138   7.296  10.302  0.00  0.00    -0.064 C 
ATOM     23  N   UNL     1      15.924   8.578  10.582  0.00  0.00    +0.379 N 
ATOM     24  C   UNL     1      17.352   8.345  10.317  0.00  0.00    -0.096 C 
ATOM     25  H   UNL     1      15.815   8.812  11.666  0.00  0.00    -0.082 HD
ATOM     26  C   UNL     1      15.355   9.751   9.796  0.00  0.00    -0.064 C 
ATOM     27  C   UNL     1      13.849   9.955  10.120  0.00  0.00    +0.066 C 
ENDBRANCH  19  20
ENDBRANCH  18  19
ENDBRANCH  14  15
ENDBRANCH  12  13
TORSDOF 6
ENDMDL
MODEL 4
REMARK VINA RESULT:      -8.0      7.819     11.960
REMARK  Name = C:\Users\Docking\Desktop\test protocol\1iep_ligandH.pdb
REMARK  8 active torsions:
REMARK  status: ('A' for Active; 'I' for Inactive)
REMARK    1  A    between atoms: _5  and  _11
REMARK    2  A    between atoms: _19  and  _21
REMARK    3  A    between atoms: _22  and  _66
REMARK    4  A    between atoms: _27  and  _30
REMARK    5  A    between atoms: _32  and  _33
REMARK    6  A    between atoms: _38  and  _43
REMARK    7  A    between atoms: _43  and  _46
REMARK    8  A    between atoms: _53  and  _55
REMARK                            x       y       z     vdW  Elec       q    Type
REMARK                         _______ _______ _______ _____ _____    ______ ____
ROOT
ATOM     10  C   UNL     1       5.137   5.587  16.895  0.00  0.00    +0.038 A 
ATOM     11  C   UNL     1       5.514   4.260  16.566  0.00  0.00    +0.047 A 
ATOM     12  C   UNL     1       4.981   3.596  15.387  0.00  0.00    +0.035 A 
ATOM     32  C   UNL     1       4.068   4.315  14.562  0.00  0.00    +0.024 A 
ATOM     33  C   UNL     1       3.673   5.664  14.881  0.00  0.00    +0.007 A 
ATOM     34  C   UNL     1       4.193   6.323  16.045  0.00  0.00    -0.029 A 
ATOM     35  C   UNL     1       3.729   7.768  16.342  0.00  0.00    +0.045 C 
ENDROOT
BRANCH  10   9
ATOM      4  C   UNL     1       4.915   6.832  21.525  0.00  0.00    +0.077 A 
ATOM      5  C   UNL     1       3.596   6.286  21.669  0.00  0.00    +0.048 A 
ATOM      6  C   UNL     1       3.007   5.701  20.526  0.00  0.00    +0.116 A 
ATOM      7  N   UNL     1       3.695   5.668  19.333  0.00  0.00    -0.223 NA
ATOM      8  C   UNL     1       4.965   6.205  19.227  0.00  0.00    +0.220 A 
ATOM      9  N   UNL     1       5.679   6.176  18.039  0.00  0.00    -0.283 N 
ATOM     36  H   UNL     1       6.610   6.589  18.000  0.00  0.00    +0.155 HD
ATOM     37  N   UNL     1       5.549   6.771  20.304  0.00  0.00    -0.214 NA
BRANCH   4   3
ATOM      1  C   UNL     1       5.886   9.144  24.526  0.00  0.00    +0.020 A 
ATOM      2  C   UNL     1       5.114   8.552  23.459  0.00  0.00    +0.013 A 
ATOM      3  C   UNL     1       5.671   7.480  22.642  0.00  0.00    +0.019 A 
ATOM     38  C   UNL     1       7.023   7.028  22.934  0.00  0.00    +0.120 A 
ATOM     39  N   UNL     1       7.743   7.618  23.968  0.00  0.00    -0.263 NA
ATOM     40  C   UNL     1       7.218   8.651  24.759  0.00  0.00    +0.111 A 
ENDBRANCH   4   3
ENDBRANCH  10   9
BRANCH  12  13
ATOM     13  N   UNL     1       5.321   2.247  15.008  0.00  0.00    -0.281 N 
ATOM     14  C   UNL     1       4.517   1.310  14.380  0.00  0.00    +0.248 C 
ATOM     30  O   UNL     1       3.307   1.420  14.241  0.00  0.00    -0.270 OA
ATOM     31  H   UNL     1       6.271   1.946  15.228  0.00  0.00    +0.155 HD
BRANCH  14  15
ATOM     15  C   UNL     1       5.143   0.064  13.842  0.00  0.00    +0.037 A 
ATOM     16  C   UNL     1       4.334  -1.110  13.508  0.00  0.00    +0.013 A 
ATOM     17  C   UNL     1       4.966  -2.305  13.006  0.00  0.00    +0.005 A 
ATOM     18  C   UNL     1       6.417  -2.330  12.835  0.00  0.00    -0.033 A 
ATOM     28  C   UNL     1       7.195  -1.149  13.170  0.00  0.00    +0.005 A 
ATOM     29  C   UNL     1       6.579   0.024  13.663  0.00  0.00    +0.013 A 
BRANCH  18  19
ATOM     19  C   UNL     1       7.177  -3.569  12.327  0.00  0.00    +0.119 C 
BRANCH  19  20
ATOM     20  N   UNL     1       8.043  -3.393  11.123  0.00  0.00    -0.302 NA
ATOM     21  C   UNL     1       7.539  -4.207   9.928  0.00  0.00    +0.066 C 
ATOM     22  C   UNL     1       8.443  -3.993   8.671  0.00  0.00    -0.064 C 
ATOM     23  N   UNL     1       9.885  -4.371   9.013  0.00  0.00    +0.379 N 
ATOM     24  C   UNL     1      10.727  -4.227   7.817  0.00  0.00    -0.096 C 
ATOM     25  H   UNL     1       9.892  -5.447   9.304  0.00  0.00    -0.082 HD
ATOM     26  C   UNL     1      10.394  -3.568  10.202  0.00  0.00    -0.064 C 
ATOM     27  C   UNL     1       9.471  -3.764  11.437  0.00  0.00    +0.066 C 
ENDBRANCH  19  20
ENDBRANCH  18  19
ENDBRANCH  14  15
ENDBRANCH  12  13
TORSDOF 6
ENDMDL
MODEL 5
REMARK VINA RESULT:      -7.9      2.981      4.627
REMARK  Name = C:\Users\Docking\Desktop\test protocol\1iep_ligandH.pdb
REMARK  8 active torsions:
REMARK  status: ('A' for Active; 'I' for Inactive)
REMARK    1  A    between atoms: _5  and  _11
REMARK    2  A    between atoms: _19  and  _21
REMARK    3  A    between atoms: _22  and  _66
REMARK    4  A    between atoms: _27  and  _30
REMARK    5  A    between atoms: _32  and  _33
REMARK    6  A    between atoms: _38  and  _43
REMARK    7  A    between atoms: _43  and  _46
REMARK    8  A    between atoms: _53  and  _55
REMARK                            x       y       z     vdW  Elec       q    Type
REMARK                         _______ _______ _______ _____ _____    ______ ____
ROOT
ATOM     10  C   UNL     1       7.176  -0.233  10.525  0.00  0.00    +0.038 A 
ATOM     11  C   UNL     1       7.876   0.941  10.145  0.00  0.00    +0.047 A 
ATOM     12  C   UNL     1       8.025   2.059  11.063  0.00  0.00    +0.035 A 
ATOM     32  C   UNL     1       7.451   1.946  12.363  0.00  0.00    +0.024 A 
ATOM     33  C   UNL     1       6.736   0.760  12.766  0.00  0.00    +0.007 A 
ATOM     34  C   UNL     1       6.584  -0.345  11.863  0.00  0.00    -0.029 A 
ATOM     35  C   UNL     1       5.802  -1.588  12.347  0.00  0.00    +0.045 C 
ENDROOT
BRANCH  10   9
ATOM      4  C   UNL     1       8.800  -4.249   8.457  0.00  0.00    +0.077 A 
ATOM      5  C   UNL     1       9.986  -4.255   9.263  0.00  0.00    +0.048 A 
ATOM      6  C   UNL     1      10.144  -3.203  10.193  0.00  0.00    +0.116 A 
ATOM      7  N   UNL     1       9.181  -2.223  10.300  0.00  0.00    -0.223 NA
ATOM      8  C   UNL     1       8.049  -2.247   9.506  0.00  0.00    +0.220 A 
ATOM      9  N   UNL     1       7.063  -1.276   9.603  0.00  0.00    -0.283 N 
ATOM     36  H   UNL     1       6.247  -1.325   8.994  0.00  0.00    +0.155 HD
ATOM     37  N   UNL     1       7.875  -3.240   8.610  0.00  0.00    -0.214 NA
BRANCH   4   3
ATOM      1  C   UNL     1       8.376  -6.132   5.055  0.00  0.00    +0.020 A 
ATOM      2  C   UNL     1       8.693  -5.090   6.003  0.00  0.00    +0.013 A 
ATOM      3  C   UNL     1       8.488  -5.295   7.432  0.00  0.00    +0.019 A 
ATOM     38  C   UNL     1       7.958  -6.576   7.871  0.00  0.00    +0.120 A 
ATOM     39  N   UNL     1       7.660  -7.562   6.934  0.00  0.00    -0.263 NA
ATOM     40  C   UNL     1       7.851  -7.375   5.557  0.00  0.00    +0.111 A 
ENDBRANCH   4   3
ENDBRANCH  10   9
BRANCH  12  13
ATOM     13  N   UNL     1       8.717   3.279  10.730  0.00  0.00    -0.281 N 
ATOM     14  C   UNL     1       8.194   4.559  10.647  0.00  0.00    +0.248 C 
ATOM     30  O   UNL     1       7.000   4.818  10.638  0.00  0.00    -0.270 OA
ATOM     31  H   UNL     1       9.713   3.188  10.532  0.00  0.00    +0.155 HD
BRANCH  14  15
ATOM     15  C   UNL     1       9.133   5.717  10.544  0.00  0.00    +0.037 A 
ATOM     16  C   UNL     1       9.497   6.507  11.724  0.00  0.00    +0.013 A 
ATOM     17  C   UNL     1      10.391   7.630  11.594  0.00  0.00    +0.005 A 
ATOM     18  C   UNL     1      10.930   7.969  10.279  0.00  0.00    -0.033 A 
ATOM     28  C   UNL     1      10.557   7.165   9.127  0.00  0.00    +0.005 A 
ATOM     29  C   UNL     1       9.679   6.064   9.250  0.00  0.00    +0.013 A 
BRANCH  18  19
ATOM     19  C   UNL     1      11.874   9.162  10.044  0.00  0.00    +0.119 C 
BRANCH  19  20
ATOM     20  N   UNL     1      13.312   8.855   9.779  0.00  0.00    -0.302 NA
ATOM     21  C   UNL     1      13.822   7.703  10.648  0.00  0.00    +0.066 C 
ATOM     22  C   UNL     1      15.321   7.380  10.341  0.00  0.00    -0.064 C 
ATOM     23  N   UNL     1      16.165   8.637  10.558  0.00  0.00    +0.379 N 
ATOM     24  C   UNL     1      17.583   8.322  10.327  0.00  0.00    -0.096 C 
ATOM     25  H   UNL     1      16.055   8.938  11.626  0.00  0.00    -0.082 HD
ATOM     26  C   UNL     1      15.662   9.789   9.700  0.00  0.00    -0.064 C 
ATOM     27  C   UNL     1      14.164  10.082   9.991  0.00  0.00    +0.066 C 
ENDBRANCH  19  20
ENDBRANCH  18  19
ENDBRANCH  14  15
ENDBRANCH  12  13
TORSDOF 6
ENDMDL
