MODEL 1
REMARK VINA RESULT:      -8.0      0.000      0.000
REMARK  Name = C:\Users\Docking\Desktop\test protocol\1iep_ligandH.pdb
REMARK  8 active torsions:
REMARK  status: ('A' for Active; 'I' for Inactive)
REMARK    1  A    between atoms: _5  and  _11
REMARK    2  A    between atoms: _19  and  _21
REMARK    3  A    between atoms: _22  and  _66
REMARK    4  A    between atoms: _27  and  _30
REMARK    5  A    between atoms: _32  and  _33
REMARK    6  A    between atoms: _38  and  _43
REMARK    7  A    between atoms: _43  and  _46
REMARK    8  A    between atoms: _53  and  _55
REMARK                            x       y       z     vdW  Elec       q    Type
REMARK                         _______ _______ _______ _____ _____    ______ ____
ROOT
ATOM     10  C   UNL     1       7.353  -0.602  11.755  0.00  0.00    +0.038 A 
ATOM     11  C   UNL     1       8.035   0.640  11.688  0.00  0.00    +0.047 A 
ATOM     12  C   UNL     1       7.843   1.543  10.564  0.00  0.00    +0.035 A 
ATOM     32  C   UNL     1       6.947   1.152   9.528  0.00  0.00    +0.024 A 
ATOM     33  C   UNL     1       6.246  -0.107   9.580  0.00  0.00    +0.007 A 
ATOM     34  C   UNL     1       6.433  -1.004  10.684  0.00  0.00    -0.029 A 
ATOM     35  C   UNL     1       5.660  -2.343  10.684  0.00  0.00    +0.045 C 
ENDROOT
BRANCH  10   9
ATOM      4  C   UNL     1       9.786  -4.056  14.033  0.00  0.00    +0.077 A 
ATOM      5  C   UNL     1      10.675  -4.243  12.923  0.00  0.00    +0.048 A 
ATOM      6  C   UNL     1      10.468  -3.436  11.782  0.00  0.00    +0.116 A 
ATOM      7  N   UNL     1       9.445  -2.513  11.764  0.00  0.00    -0.223 NA
ATOM      8  C   UNL     1       8.604  -2.358  12.851  0.00  0.00    +0.220 A 
ATOM      9  N   UNL     1       7.574  -1.431  12.858  0.00  0.00    -0.283 N 
ATOM     36  H   UNL     1       6.971  -1.353  13.676  0.00  0.00    +0.155 HD
ATOM     37  N   UNL     1       8.781  -3.119  13.952  0.00  0.00    -0.214 NA
BRANCH   4   3
ATOM      1  C   UNL     1      10.413  -5.036  17.767  0.00  0.00    +0.020 A 
ATOM      2  C   UNL     1      10.342  -4.244  16.561  0.00  0.00    +0.013 A 
ATOM      3  C   UNL     1       9.879  -4.831  15.310  0.00  0.00    +0.019 A 
ATOM     38  C   UNL     1       9.491  -6.233  15.314  0.00  0.00    +0.120 A 
ATOM     39  N   UNL     1       9.571  -6.972  16.490  0.00  0.00    -0.263 NA
ATOM     40  C   UNL     1      10.017  -6.418  17.700  0.00  0.00    +0.111 A 
ENDBRANCH   4   3
ENDBRANCH  10   9
BRANCH  12  13
ATOM     13  N   UNL     1       8.515   2.813  10.437  0.00  0.00    -0.281 N 
ATOM     14  C   UNL     1       8.130   4.036  10.961  0.00  0.00    +0.248 C 
ATOM     30  O   UNL     1       7.030   4.267  11.442  0.00  0.00    -0.270 OA
ATOM     31  H   UNL     1       9.379   2.810   9.896  0.00  0.00    +0.155 HD
BRANCH  14  15
ATOM     15  C   UNL     1       9.101   5.172  10.934  0.00  0.00    +0.037 A 
ATOM     16  C   UNL     1       9.839   5.511   9.714  0.00  0.00    +0.013 A 
ATOM     17  C   UNL     1      10.783   6.600   9.720  0.00  0.00    +0.005 A 
ATOM     18  C   UNL     1      10.993   7.360  10.950  0.00  0.00    -0.033 A 
ATOM     28  C   UNL     1      10.243   7.006  12.144  0.00  0.00    +0.005 A 
ATOM     29  C   UNL     1       9.318   5.938  12.142  0.00  0.00    +0.013 A 
BRANCH  18  19
ATOM     19  C   UNL     1      11.995   8.525  11.053  0.00  0.00    +0.119 C 
BRANCH  19  20
ATOM     20  N   UNL     1      13.415   8.239  10.690  0.00  0.00    -0.302 NA
ATOM     21  C   UNL     1      14.061   7.231  11.645  0.00  0.00    +0.066 C 
ATOM     22  C   UNL     1      15.539   6.926  11.237  0.00  0.00    -0.064 C 
ATOM     23  N   UNL     1      16.336   8.231  11.207  0.00  0.00    +0.379 N 
ATOM     24  C   UNL     1      17.740   7.941  10.880  0.00  0.00    -0.096 C 
ATOM     25  H   UNL     1      16.311   8.667  12.233  0.00  0.00    -0.082 HD
ATOM     26  C   UNL     1      15.700   9.240  10.261  0.00  0.00    -0.064 C 
ATOM     27  C   UNL     1      14.222   9.513  10.658  0.00  0.00    +0.066 C 
ENDBRANCH  19  20
ENDBRANCH  18  19
ENDBRANCH  14  15
ENDBRANCH  12  13
TORSDOF 6
ENDMDL
MODEL 2
REMARK VINA RESULT:      -8.0      5.743      8.016
REMARK  Name = C:\Users\Docking\Desktop\test protocol\1iep_ligandH.pdb
REMARK  8 active torsions:
REMARK  status: ('A' for Active; 'I' for Inactive)
REMARK    1  A    between atoms: _5  and  _11
REMARK    2  A    between atoms: _19  and  _21
REMARK    3  A    between atoms: _22  and  _66
REMARK    4  A    between atoms: _27  and  _30
REMARK    5  A    between atoms: _32  and  _33
REMARK    6  A    between atoms: _38  and  _43
REMARK    7  A    between atoms: _43  and  _46
REMARK    8  A    between atoms: _53  and  _55
REMARK                            x       y       z     vdW  Elec       q    Type
REMARK                         _______ _______ _______ _____ _____    ______ ____
ROOT
ATOM     10  C   UNL     1       7.611  -1.809  13.491  0.00  0.00    +0.038 A 
ATOM     11  C   UNL     1       7.211  -0.627  14.164  0.00  0.00    +0.047 A 
ATOM     12  C   UNL     1       7.369   0.681  13.546  0.00  0.00    +0.035 A 
ATOM     32  C   UNL     1       7.937   0.746  12.240  0.00  0.00    +0.024 A 
ATOM     33  C   UNL     1       8.350  -0.446  11.542  0.00  0.00    +0.007 A 
ATOM     34  C   UNL     1       8.198  -1.738  12.148  0.00  0.00    -0.029 A 
ATOM     35  C   UNL     1       8.664  -2.982  11.356  0.00  0.00    +0.045 C 
ENDROOT
BRANCH  10   9
ATOM      4  C   UNL     1       9.019  -5.223  16.557  0.00  0.00    +0.077 A 
ATOM      5  C   UNL     1      10.218  -4.511  16.892  0.00  0.00    +0.048 A 
ATOM      6  C   UNL     1      10.439  -3.273  16.247  0.00  0.00    +0.116 A 
ATOM      7  N   UNL     1       9.521  -2.793  15.338  0.00  0.00    -0.223 NA
ATOM      8  C   UNL     1       8.376  -3.506  15.037  0.00  0.00    +0.220 A 
ATOM      9  N   UNL     1       7.436  -3.038  14.131  0.00  0.00    -0.283 N 
ATOM     36  H   UNL     1       6.607  -3.597  13.931  0.00  0.00    +0.155 HD
ATOM     37  N   UNL     1       8.142  -4.691  15.638  0.00  0.00    -0.214 NA
BRANCH   4   3
ATOM      1  C   UNL     1       9.052  -8.991  17.609  0.00  0.00    +0.020 A 
ATOM      2  C   UNL     1       9.460  -7.741  17.010  0.00  0.00    +0.013 A 
ATOM      3  C   UNL     1       8.643  -6.543  17.156  0.00  0.00    +0.019 A 
ATOM     38  C   UNL     1       7.409  -6.644  17.922  0.00  0.00    +0.120 A 
ATOM     39  N   UNL     1       7.041  -7.861  18.486  0.00  0.00    -0.263 NA
ATOM     40  C   UNL     1       7.819  -9.021  18.351  0.00  0.00    +0.111 A 
ENDBRANCH   4   3
ENDBRANCH  10   9
BRANCH  12  13
ATOM     13  N   UNL     1       6.989   1.917  14.184  0.00  0.00    -0.281 N 
ATOM     14  C   UNL     1       5.811   2.629  14.027  0.00  0.00    +0.248 C 
ATOM     30  O   UNL     1       4.989   2.420  13.147  0.00  0.00    -0.270 OA
ATOM     31  H   UNL     1       7.671   2.315  14.829  0.00  0.00    +0.155 HD
BRANCH  14  15
ATOM     15  C   UNL     1       5.509   3.743  14.976  0.00  0.00    +0.037 A 
ATOM     16  C   UNL     1       5.588   3.549  16.426  0.00  0.00    +0.013 A 
ATOM     17  C   UNL     1       5.275   4.635  17.320  0.00  0.00    +0.005 A 
ATOM     18  C   UNL     1       4.881   5.928  16.764  0.00  0.00    -0.033 A 
ATOM     28  C   UNL     1       4.817   6.095  15.322  0.00  0.00    +0.005 A 
ATOM     29  C   UNL     1       5.122   5.032  14.443  0.00  0.00    +0.013 A 
BRANCH  18  19
ATOM     19  C   UNL     1       4.509   7.137  17.643  0.00  0.00    +0.119 C 
BRANCH  19  20
ATOM     20  N   UNL     1       3.106   7.641  17.554  0.00  0.00    -0.302 NA
ATOM     21  C   UNL     1       3.011   8.936  16.743  0.00  0.00    +0.066 C 
ATOM     22  C   UNL     1       1.534   9.437  16.641  0.00  0.00    -0.064 C 
ATOM     23  N   UNL     1       0.968   9.637  18.048  0.00  0.00    +0.379 N 
ATOM     24  C   UNL     1      -0.402  10.163  17.956  0.00  0.00    -0.096 C 
ATOM     25  H   UNL     1       1.593  10.407  18.557  0.00  0.00    -0.082 HD
ATOM     26  C   UNL     1       1.061   8.355  18.863  0.00  0.00    -0.064 C 
ATOM     27  C   UNL     1       2.529   7.850  18.933  0.00  0.00    +0.066 C 
ENDBRANCH  19  20
ENDBRANCH  18  19
ENDBRANCH  14  15
ENDBRANCH  12  13
TORSDOF 6
ENDMDL
MODEL 3
REMARK VINA RESULT:      -8.0      7.649     12.261
REMARK  Name = C:\Users\Docking\Desktop\test protocol\1iep_ligandH.pdb
REMARK  8 active torsions:
REMARK  status: ('A' for Active; 'I' for Inactive)
REMARK    1  A    between atoms: _5  and  _11
REMARK    2  A    between atoms: _19  and  _21
REMARK    3  A    between atoms: _22  and  _66
REMARK    4  A    between atoms: _27  and  _30
REMARK    5  A    between atoms: _32  and  _33
REMARK    6  A    between atoms: _38  and  _43
REMARK    7  A    between atoms: _43  and  _46
REMARK    8  A    between atoms: _53  and  _55
REMARK                            x       y       z     vdW  Elec       q    Type
REMARK                         _______ _______ _______ _____ _____    ______ ____
ROOT
ATOM     10  C   UNL     1       5.214   5.651  17.180  0.00  0.00    +0.038 A 
ATOM     11  C   UNL     1       5.463   4.314  16.779  0.00  0.00    +0.047 A 
ATOM     12  C   UNL     1       4.911   3.784  15.542  0.00  0.00    +0.035 A 
ATOM     32  C   UNL     1       4.112   4.646  14.735  0.00  0.00    +0.024 A 
ATOM     33  C   UNL     1       3.848   6.007  15.128  0.00  0.00    +0.007 A 
ATOM     34  C   UNL     1       4.387   6.535  16.349  0.00  0.00    -0.029 A 
ATOM     35  C   UNL     1       4.066   8.000  16.724  0.00  0.00    +0.045 C 
ENDROOT
BRANCH  10   9
ATOM      4  C   UNL     1       4.945   6.602  21.877  0.00  0.00    +0.077 A 
ATOM      5  C   UNL     1       3.576   6.179  21.945  0.00  0.00    +0.048 A 
ATOM      6  C   UNL     1       2.976   5.731  20.747  0.00  0.00    +0.116 A 
ATOM      7  N   UNL     1       3.700   5.710  19.575  0.00  0.00    -0.223 NA
ATOM      8  C   UNL     1       5.018   6.127  19.544  0.00  0.00    +0.220 A 
ATOM      9  N   UNL     1       5.768   6.107  18.378  0.00  0.00    -0.283 N 
ATOM     36  H   UNL     1       6.735   6.430  18.396  0.00  0.00    +0.155 HD
ATOM     37  N   UNL     1       5.614   6.561  20.674  0.00  0.00    -0.214 NA
BRANCH   4   3
ATOM      1  C   UNL     1       7.759   7.131  24.542  0.00  0.00    +0.020 A 
ATOM      2  C   UNL     1       7.054   6.618  23.390  0.00  0.00    +0.013 A 
ATOM      3  C   UNL     1       5.719   7.099  23.059  0.00  0.00    +0.019 A 
ATOM     38  C   UNL     1       5.122   8.109  23.919  0.00  0.00    +0.120 A 
ATOM     39  N   UNL     1       5.824   8.584  25.023  0.00  0.00    -0.263 NA
ATOM     40  C   UNL     1       7.108   8.126  25.353  0.00  0.00    +0.111 A 
ENDBRANCH   4   3
ENDBRANCH  10   9
BRANCH  12  13
ATOM     13  N   UNL     1       5.124   2.432  15.087  0.00  0.00    -0.281 N 
ATOM     14  C   UNL     1       6.104   1.968  14.225  0.00  0.00    +0.248 C 
ATOM     30  O   UNL     1       6.820   2.685  13.543  0.00  0.00    -0.270 OA
ATOM     31  H   UNL     1       4.472   1.733  15.444  0.00  0.00    +0.155 HD
BRANCH  14  15
ATOM     15  C   UNL     1       6.307   0.493  14.091  0.00  0.00    +0.037 A 
ATOM     16  C   UNL     1       7.229  -0.060  13.095  0.00  0.00    +0.013 A 
ATOM     17  C   UNL     1       7.393  -1.487  12.975  0.00  0.00    +0.005 A 
ATOM     18  C   UNL     1       6.635  -2.372  13.856  0.00  0.00    -0.033 A 
ATOM     28  C   UNL     1       5.732  -1.796  14.839  0.00  0.00    +0.005 A 
ATOM     29  C   UNL     1       5.567  -0.398  14.959  0.00  0.00    +0.013 A 
BRANCH  18  19
ATOM     19  C   UNL     1       6.732  -3.907  13.785  0.00  0.00    +0.119 C 
BRANCH  19  20
ATOM     20  N   UNL     1       7.747  -4.569  14.657  0.00  0.00    -0.302 NA
ATOM     21  C   UNL     1       7.287  -4.648  16.116  0.00  0.00    +0.066 C 
ATOM     22  C   UNL     1       8.351  -5.364  17.010  0.00  0.00    -0.064 C 
ATOM     23  N   UNL     1       9.685  -4.624  16.903  0.00  0.00    +0.379 N 
ATOM     24  C   UNL     1      10.672  -5.260  17.787  0.00  0.00    -0.096 C 
ATOM     25  H   UNL     1       9.525  -3.583  17.268  0.00  0.00    -0.082 HD
ATOM     26  C   UNL     1      10.149  -4.539  15.455  0.00  0.00    -0.064 C 
ATOM     27  C   UNL     1       9.072  -3.852  14.569  0.00  0.00    +0.066 C 
ENDBRANCH  19  20
ENDBRANCH  18  19
ENDBRANCH  14  15
ENDBRANCH  12  13
TORSDOF 6
ENDMDL
MODEL 4
REMARK VINA RESULT:      -7.9      5.814      8.188
REMARK  Name = C:\Users\Docking\Desktop\test protocol\1iep_ligandH.pdb
REMARK  8 active torsions:
REMARK  status: ('A' for Active; 'I' for Inactive)
REMARK    1  A    between atoms: _5  and  _11
REMARK    2  A    between atoms: _19  and  _21
REMARK    3  A    between atoms: _22  and  _66
REMARK    4  A    between atoms: _27  and  _30
REMARK    5  A    between atoms: _32  and  _33
REMARK    6  A    between atoms: _38  and  _43
REMARK    7  A    between atoms: _43  and  _46
REMARK    8  A    between atoms: _53  and  _55
REMARK                            x       y       z     vdW  Elec       q    Type
REMARK                         _______ _______ _______ _____ _____    ______ ____
ROOT
ATOM     10  C   UNL     1       7.681  -2.162  13.463  0.00  0.00    +0.038 A 
ATOM     11  C   UNL     1       7.257  -0.978  14.120  0.00  0.00    +0.047 A 
ATOM     12  C   UNL     1       7.397   0.324  13.487  0.00  0.00    +0.035 A 
ATOM     32  C   UNL     1       7.971   0.384  12.184  0.00  0.00    +0.024 A 
ATOM     33  C   UNL     1       8.408  -0.809  11.502  0.00  0.00    +0.007 A 
ATOM     34  C   UNL     1       8.274  -2.096  12.122  0.00  0.00    -0.029 A 
ATOM     35  C   UNL     1       8.766  -3.341  11.348  0.00  0.00    +0.045 C 
ENDROOT
BRANCH  10   9
ATOM      4  C   UNL     1       9.075  -5.471  16.649  0.00  0.00    +0.077 A 
ATOM      5  C   UNL     1      10.231  -4.709  17.023  0.00  0.00    +0.048 A 
ATOM      6  C   UNL     1      10.435  -3.474  16.367  0.00  0.00    +0.116 A 
ATOM      7  N   UNL     1       9.542  -3.043  15.410  0.00  0.00    -0.223 NA
ATOM      8  C   UNL     1       8.437  -3.803  15.071  0.00  0.00    +0.220 A 
ATOM      9  N   UNL     1       7.522  -3.386  14.117  0.00  0.00    -0.283 N 
ATOM     36  H   UNL     1       6.724  -3.979  13.890  0.00  0.00    +0.155 HD
ATOM     37  N   UNL     1       8.221  -4.987  15.682  0.00  0.00    -0.214 NA
BRANCH   4   3
ATOM      1  C   UNL     1       9.213  -9.208  17.795  0.00  0.00    +0.020 A 
ATOM      2  C   UNL     1       9.602  -7.953  17.194  0.00  0.00    +0.013 A 
ATOM      3  C   UNL     1       8.721  -6.794  17.254  0.00  0.00    +0.019 A 
ATOM     38  C   UNL     1       7.444  -6.938  17.937  0.00  0.00    +0.120 A 
ATOM     39  N   UNL     1       7.096  -8.159  18.505  0.00  0.00    -0.263 NA
ATOM     40  C   UNL     1       7.935  -9.282  18.452  0.00  0.00    +0.111 A 
ENDBRANCH   4   3
ENDBRANCH  10   9
BRANCH  12  13
ATOM     13  N   UNL     1       6.993   1.561  14.108  0.00  0.00    -0.281 N 
ATOM     14  C   UNL     1       5.853   2.308  13.857  0.00  0.00    +0.248 C 
ATOM     30  O   UNL     1       5.110   2.134  12.902  0.00  0.00    -0.270 OA
ATOM     31  H   UNL     1       7.623   1.931  14.820  0.00  0.00    +0.155 HD
BRANCH  14  15
ATOM     15  C   UNL     1       5.495   3.416  14.793  0.00  0.00    +0.037 A 
ATOM     16  C   UNL     1       5.281   4.782  14.307  0.00  0.00    +0.013 A 
ATOM     17  C   UNL     1       4.953   5.836  15.234  0.00  0.00    +0.005 A 
ATOM     18  C   UNL     1       4.836   5.528  16.657  0.00  0.00    -0.033 A 
ATOM     28  C   UNL     1       5.048   4.163  17.111  0.00  0.00    +0.005 A 
ATOM     29  C   UNL     1       5.371   3.128  16.206  0.00  0.00    +0.013 A 
BRANCH  18  19
ATOM     19  C   UNL     1       4.510   6.594  17.720  0.00  0.00    +0.119 C 
BRANCH  19  20
ATOM     20  N   UNL     1       3.915   6.119  19.005  0.00  0.00    -0.302 NA
ATOM     21  C   UNL     1       2.386   6.208  18.997  0.00  0.00    +0.066 C 
ATOM     22  C   UNL     1       1.780   5.687  20.341  0.00  0.00    -0.064 C 
ATOM     23  N   UNL     1       2.363   6.488  21.506  0.00  0.00    +0.379 N 
ATOM     24  C   UNL     1       1.751   6.039  22.765  0.00  0.00    -0.096 C 
ATOM     25  H   UNL     1       2.083   7.556  21.355  0.00  0.00    -0.082 HD
ATOM     26  C   UNL     1       3.883   6.407  21.519  0.00  0.00    -0.064 C 
ATOM     27  C   UNL     1       4.474   6.900  20.169  0.00  0.00    +0.066 C 
ENDBRANCH  19  20
ENDBRANCH  18  19
ENDBRANCH  14  15
ENDBRANCH  12  13
TORSDOF 6
ENDMDL
MODEL 5
REMARK VINA RESULT:      -7.9      7.861     12.256
REMARK  Name = C:\Users\Docking\Desktop\test protocol\1iep_ligandH.pdb
REMARK  8 active torsions:
REMARK  status: ('A' for Active; 'I' for Inactive)
REMARK    1  A    between atoms: _5  and  _11
REMARK    2  A    between atoms: _19  and  _21
REMARK    3  A    between atoms: _22  and  _66
REMARK    4  A    between atoms: _27  and  _30
REMARK    5  A    between atoms: _32  and  _33
REMARK    6  A    between atoms: _38  and  _43
REMARK    7  A    between atoms: _43  and  _46
REMARK    8  A    between atoms: _53  and  _55
REMARK                            x       y       z     vdW  Elec       q    Type
REMARK                         _______ _______ _______ _____ _____    ______ ____
ROOT
ATOM     10  C   UNL     1       5.365   5.350  17.408  0.00  0.00    +0.038 A 
ATOM     11  C   UNL     1       5.754   4.022  17.101  0.00  0.00    +0.047 A 
ATOM     12  C   UNL     1       5.277   3.357  15.897  0.00  0.00    +0.035 A 
ATOM     32  C   UNL     1       4.408   4.077  15.027  0.00  0.00    +0.024 A 
ATOM     33  C   UNL     1       4.002   5.428  15.324  0.00  0.00    +0.007 A 
ATOM     34  C   UNL     1       4.466   6.088  16.511  0.00  0.00    -0.029 A 
ATOM     35  C   UNL     1       3.993   7.535  16.783  0.00  0.00    +0.045 C 
ENDROOT
BRANCH  10   9
ATOM      4  C   UNL     1       4.916   6.610  22.017  0.00  0.00    +0.077 A 
ATOM      5  C   UNL     1       3.589   6.072  22.097  0.00  0.00    +0.048 A 
ATOM      6  C   UNL     1       3.055   5.487  20.927  0.00  0.00    +0.116 A 
ATOM      7  N   UNL     1       3.803   5.447  19.770  0.00  0.00    -0.223 NA
ATOM      8  C   UNL     1       5.079   5.976  19.727  0.00  0.00    +0.220 A 
ATOM      9  N   UNL     1       5.852   5.940  18.577  0.00  0.00    -0.283 N 
ATOM     36  H   UNL     1       6.787   6.348  18.584  0.00  0.00    +0.155 HD
ATOM     37  N   UNL     1       5.611   6.542  20.830  0.00  0.00    -0.214 NA
BRANCH   4   3
ATOM      1  C   UNL     1       5.728   8.888  25.092  0.00  0.00    +0.020 A 
ATOM      2  C   UNL     1       5.006   8.295  23.990  0.00  0.00    +0.013 A 
ATOM      3  C   UNL     1       5.619   7.258  23.170  0.00  0.00    +0.019 A 
ATOM     38  C   UNL     1       6.974   6.840  23.494  0.00  0.00    +0.120 A 
ATOM     39  N   UNL     1       7.646   7.430  24.561  0.00  0.00    -0.263 NA
ATOM     40  C   UNL     1       7.066   8.430  25.356  0.00  0.00    +0.111 A 
ENDBRANCH   4   3
ENDBRANCH  10   9
BRANCH  12  13
ATOM     13  N   UNL     1       5.632   2.007  15.537  0.00  0.00    -0.281 N 
ATOM     14  C   UNL     1       4.836   0.874  15.590  0.00  0.00    +0.248 C 
ATOM     30  O   UNL     1       3.757   0.814  16.161  0.00  0.00    -0.270 OA
ATOM     31  H   UNL     1       6.586   1.869  15.203  0.00  0.00    +0.155 HD
BRANCH  14  15
ATOM     15  C   UNL     1       5.314  -0.376  14.926  0.00  0.00    +0.037 A 
ATOM     16  C   UNL     1       4.427  -1.529  14.748  0.00  0.00    +0.013 A 
ATOM     17  C   UNL     1       4.918  -2.729  14.119  0.00  0.00    +0.005 A 
ATOM     18  C   UNL     1       6.305  -2.782  13.662  0.00  0.00    -0.033 A 
ATOM     28  C   UNL     1       7.161  -1.622  13.847  0.00  0.00    +0.005 A 
ATOM     29  C   UNL     1       6.683  -0.444  14.464  0.00  0.00    +0.013 A 
BRANCH  18  19
ATOM     19  C   UNL     1       6.920  -4.029  13.000  0.00  0.00    +0.119 C 
BRANCH  19  20
ATOM     20  N   UNL     1       7.766  -3.813  11.788  0.00  0.00    -0.302 NA
ATOM     21  C   UNL     1       6.925  -3.479  10.553  0.00  0.00    +0.066 C 
ATOM     22  C   UNL     1       7.827  -3.233   9.300  0.00  0.00    -0.064 C 
ATOM     23  N   UNL     1       8.693  -4.469   9.048  0.00  0.00    +0.379 N 
ATOM     24  C   UNL     1       9.500  -4.264   7.836  0.00  0.00    -0.096 C 
ATOM     25  H   UNL     1       8.008  -5.328   8.857  0.00  0.00    -0.082 HD
ATOM     26  C   UNL     1       9.530  -4.810  10.272  0.00  0.00    -0.064 C 
ATOM     27  C   UNL     1       8.626  -5.023  11.518  0.00  0.00    +0.066 C 
ENDBRANCH  19  20
ENDBRANCH  18  19
ENDBRANCH  14  15
ENDBRANCH  12  13
TORSDOF 6
ENDMDL
