MODEL 1
REMARK VINA RESULT:      -8.6      0.000      0.000
REMARK  Name = C:\Users\Docking\Desktop\test protocol\1iep_ligandH.pdb
REMARK  8 active torsions:
REMARK  status: ('A' for Active; 'I' for Inactive)
REMARK    1  A    between atoms: _5  and  _11
REMARK    2  A    between atoms: _19  and  _21
REMARK    3  A    between atoms: _22  and  _66
REMARK    4  A    between atoms: _27  and  _30
REMARK    5  A    between atoms: _32  and  _33
REMARK    6  A    between atoms: _38  and  _43
REMARK    7  A    between atoms: _43  and  _46
REMARK    8  A    between atoms: _53  and  _55
REMARK                            x       y       z     vdW  Elec       q    Type
REMARK                         _______ _______ _______ _____ _____    ______ ____
ROOT
ATOM     10  C   UNL     1       6.575  12.497  29.243  0.00  0.00    +0.038 A 
ATOM     11  C   UNL     1       5.745  12.574  28.095  0.00  0.00    +0.047 A 
ATOM     12  C   UNL     1       4.324  12.862  28.212  0.00  0.00    +0.035 A 
ATOM     32  C   UNL     1       3.781  13.069  29.514  0.00  0.00    +0.024 A 
ATOM     33  C   UNL     1       4.610  12.994  30.691  0.00  0.00    +0.007 A 
ATOM     34  C   UNL     1       6.012  12.708  30.582  0.00  0.00    -0.029 A 
ATOM     35  C   UNL     1       6.851  12.633  31.879  0.00  0.00    +0.045 C 
ENDROOT
BRANCH  10   9
ATOM      4  C   UNL     1      10.206  10.426  26.885  0.00  0.00    +0.077 A 
ATOM      5  C   UNL     1       9.321   9.829  25.927  0.00  0.00    +0.048 A 
ATOM      6  C   UNL     1       7.938  10.073  26.081  0.00  0.00    +0.116 A 
ATOM      7  N   UNL     1       7.485  10.858  27.118  0.00  0.00    -0.223 NA
ATOM      8  C   UNL     1       8.365  11.418  28.026  0.00  0.00    +0.220 A 
ATOM      9  N   UNL     1       7.932  12.217  29.073  0.00  0.00    -0.283 N 
ATOM     36  H   UNL     1       8.613  12.606  29.725  0.00  0.00    +0.155 HD
ATOM     37  N   UNL     1       9.691  11.198  27.902  0.00  0.00    -0.214 NA
BRANCH   4   3
ATOM      1  C   UNL     1      13.845   9.568  25.734  0.00  0.00    +0.020 A 
ATOM      2  C   UNL     1      12.407   9.704  25.713  0.00  0.00    +0.013 A 
ATOM      3  C   UNL     1      11.694  10.263  26.855  0.00  0.00    +0.019 A 
ATOM     38  C   UNL     1      12.473  10.681  28.011  0.00  0.00    +0.120 A 
ATOM     39  N   UNL     1      13.857  10.537  28.003  0.00  0.00    -0.263 NA
ATOM     40  C   UNL     1      14.553   9.998  26.911  0.00  0.00    +0.111 A 
ENDBRANCH   4   3
ENDBRANCH  10   9
BRANCH  12  13
ATOM     13  N   UNL     1       3.430  12.944  27.083  0.00  0.00    -0.281 N 
ATOM     14  C   UNL     1       2.603  11.954  26.578  0.00  0.00    +0.248 C 
ATOM     30  O   UNL     1       2.665  10.775  26.892  0.00  0.00    -0.270 OA
ATOM     31  H   UNL     1       3.404  13.841  26.598  0.00  0.00    +0.155 HD
BRANCH  14  15
ATOM     15  C   UNL     1       1.567  12.325  25.567  0.00  0.00    +0.037 A 
ATOM     16  C   UNL     1       0.323  11.561  25.438  0.00  0.00    +0.013 A 
ATOM     17  C   UNL     1      -0.652  11.931  24.443  0.00  0.00    +0.005 A 
ATOM     18  C   UNL     1      -0.388  13.072  23.569  0.00  0.00    -0.033 A 
ATOM     28  C   UNL     1       0.852  13.815  23.723  0.00  0.00    +0.005 A 
ATOM     29  C   UNL     1       1.811  13.456  24.696  0.00  0.00    +0.013 A 
BRANCH  18  19
ATOM     19  C   UNL     1      -1.362  13.524  22.466  0.00  0.00    +0.119 C 
BRANCH  19  20
ATOM     20  N   UNL     1      -1.044  13.120  21.064  0.00  0.00    -0.302 NA
ATOM     21  C   UNL     1      -1.638  14.088  20.038  0.00  0.00    +0.066 C 
ATOM     22  C   UNL     1      -1.276  13.663  18.578  0.00  0.00    -0.064 C 
ATOM     23  N   UNL     1      -1.770  12.237  18.327  0.00  0.00    +0.379 N 
ATOM     24  C   UNL     1      -1.483  11.855  16.937  0.00  0.00    -0.096 C 
ATOM     25  H   UNL     1      -2.878  12.236  18.456  0.00  0.00    -0.082 HD
ATOM     26  C   UNL     1      -1.186  11.268  19.345  0.00  0.00    -0.064 C 
ATOM     27  C   UNL     1      -1.527  11.716  20.794  0.00  0.00    +0.066 C 
ENDBRANCH  19  20
ENDBRANCH  18  19
ENDBRANCH  14  15
ENDBRANCH  12  13
TORSDOF 6
ENDMDL
MODEL 2
REMARK VINA RESULT:      -8.3     17.194     19.960
REMARK  Name = C:\Users\Docking\Desktop\test protocol\1iep_ligandH.pdb
REMARK  8 active torsions:
REMARK  status: ('A' for Active; 'I' for Inactive)
REMARK    1  A    between atoms: _5  and  _11
REMARK    2  A    between atoms: _19  and  _21
REMARK    3  A    between atoms: _22  and  _66
REMARK    4  A    between atoms: _27  and  _30
REMARK    5  A    between atoms: _32  and  _33
REMARK    6  A    between atoms: _38  and  _43
REMARK    7  A    between atoms: _43  and  _46
REMARK    8  A    between atoms: _53  and  _55
REMARK                            x       y       z     vdW  Elec       q    Type
REMARK                         _______ _______ _______ _____ _____    ______ ____
ROOT
ATOM     10  C   UNL     1       7.385   0.124  11.420  0.00  0.00    +0.038 A 
ATOM     11  C   UNL     1       8.099   1.344  11.300  0.00  0.00    +0.047 A 
ATOM     12  C   UNL     1       7.883   2.235  10.171  0.00  0.00    +0.035 A 
ATOM     32  C   UNL     1       6.930   1.852   9.182  0.00  0.00    +0.024 A 
ATOM     33  C   UNL     1       6.196   0.615   9.287  0.00  0.00    +0.007 A 
ATOM     34  C   UNL     1       6.407  -0.268  10.398  0.00  0.00    -0.029 A 
ATOM     35  C   UNL     1       5.598  -1.584  10.457  0.00  0.00    +0.045 C 
ENDROOT
BRANCH  10   9
ATOM      4  C   UNL     1       9.761  -3.421  13.617  0.00  0.00    +0.077 A 
ATOM      5  C   UNL     1      10.559  -3.686  12.455  0.00  0.00    +0.048 A 
ATOM      6  C   UNL     1      10.322  -2.893  11.310  0.00  0.00    +0.116 A 
ATOM      7  N   UNL     1       9.356  -1.910  11.337  0.00  0.00    -0.223 NA
ATOM      8  C   UNL     1       8.603  -1.681  12.474  0.00  0.00    +0.220 A 
ATOM      9  N   UNL     1       7.632  -0.693  12.526  0.00  0.00    -0.283 N 
ATOM     36  H   UNL     1       7.093  -0.560  13.381  0.00  0.00    +0.155 HD
ATOM     37  N   UNL     1       8.809  -2.426  13.579  0.00  0.00    -0.214 NA
BRANCH   4   3
ATOM      1  C   UNL     1       9.827  -6.289  16.276  0.00  0.00    +0.020 A 
ATOM      2  C   UNL     1       9.684  -5.611  15.009  0.00  0.00    +0.013 A 
ATOM      3  C   UNL     1       9.895  -4.172  14.905  0.00  0.00    +0.019 A 
ATOM     38  C   UNL     1      10.254  -3.444  16.112  0.00  0.00    +0.120 A 
ATOM     39  N   UNL     1      10.383  -4.123  17.320  0.00  0.00    -0.263 NA
ATOM     40  C   UNL     1      10.180  -5.506  17.432  0.00  0.00    +0.111 A 
ENDBRANCH   4   3
ENDBRANCH  10   9
BRANCH  12  13
ATOM     13  N   UNL     1       8.584   3.482   9.991  0.00  0.00    -0.281 N 
ATOM     14  C   UNL     1       8.200   4.743  10.417  0.00  0.00    +0.248 C 
ATOM     30  O   UNL     1       7.085   5.023  10.832  0.00  0.00    -0.270 OA
ATOM     31  H   UNL     1       9.470   3.429   9.490  0.00  0.00    +0.155 HD
BRANCH  14  15
ATOM     15  C   UNL     1       9.193   5.858  10.359  0.00  0.00    +0.037 A 
ATOM     16  C   UNL     1       9.843   6.233   9.100  0.00  0.00    +0.013 A 
ATOM     17  C   UNL     1      10.810   7.301   9.075  0.00  0.00    +0.005 A 
ATOM     18  C   UNL     1      11.133   8.004  10.314  0.00  0.00    -0.033 A 
ATOM     28  C   UNL     1      10.470   7.615  11.548  0.00  0.00    +0.005 A 
ATOM     29  C   UNL     1       9.522   6.568  11.577  0.00  0.00    +0.013 A 
BRANCH  18  19
ATOM     19  C   UNL     1      12.169   9.142  10.385  0.00  0.00    +0.119 C 
BRANCH  19  20
ATOM     20  N   UNL     1      13.588   8.795  10.074  0.00  0.00    -0.302 NA
ATOM     21  C   UNL     1      14.044   7.530  10.807  0.00  0.00    +0.066 C 
ATOM     22  C   UNL     1      15.523   7.170  10.453  0.00  0.00    -0.064 C 
ATOM     23  N   UNL     1      16.430   8.352  10.798  0.00  0.00    +0.379 N 
ATOM     24  C   UNL     1      17.829   7.995  10.521  0.00  0.00    -0.096 C 
ATOM     25  H   UNL     1      16.340   8.540  11.894  0.00  0.00    -0.082 HD
ATOM     26  C   UNL     1      15.982   9.615  10.076  0.00  0.00    -0.064 C 
ATOM     27  C   UNL     1      14.501   9.948  10.411  0.00  0.00    +0.066 C 
ENDBRANCH  19  20
ENDBRANCH  18  19
ENDBRANCH  14  15
ENDBRANCH  12  13
TORSDOF 6
ENDMDL
MODEL 3
REMARK VINA RESULT:      -8.2      5.508     13.256
REMARK  Name = C:\Users\Docking\Desktop\test protocol\1iep_ligandH.pdb
REMARK  8 active torsions:
REMARK  status: ('A' for Active; 'I' for Inactive)
REMARK    1  A    between atoms: _5  and  _11
REMARK    2  A    between atoms: _19  and  _21
REMARK    3  A    between atoms: _22  and  _66
REMARK    4  A    between atoms: _27  and  _30
REMARK    5  A    between atoms: _32  and  _33
REMARK    6  A    between atoms: _38  and  _43
REMARK    7  A    between atoms: _43  and  _46
REMARK    8  A    between atoms: _53  and  _55
REMARK                            x       y       z     vdW  Elec       q    Type
REMARK                         _______ _______ _______ _____ _____    ______ ____
ROOT
ATOM     10  C   UNL     1       4.243   6.601  18.476  0.00  0.00    +0.038 A 
ATOM     11  C   UNL     1       4.725   7.320  19.599  0.00  0.00    +0.047 A 
ATOM     12  C   UNL     1       4.679   6.748  20.935  0.00  0.00    +0.035 A 
ATOM     32  C   UNL     1       4.138   5.439  21.092  0.00  0.00    +0.024 A 
ATOM     33  C   UNL     1       3.642   4.694  19.961  0.00  0.00    +0.007 A 
ATOM     34  C   UNL     1       3.683   5.254  18.641  0.00  0.00    -0.029 A 
ATOM     35  C   UNL     1       3.132   4.412  17.466  0.00  0.00    +0.045 C 
ENDROOT
BRANCH  10   9
ATOM      4  C   UNL     1       2.574   9.590  15.112  0.00  0.00    +0.077 A 
ATOM      5  C   UNL     1       1.455   9.974  15.925  0.00  0.00    +0.048 A 
ATOM      6  C   UNL     1       1.342   9.374  17.199  0.00  0.00    +0.116 A 
ATOM      7  N   UNL     1       2.284   8.459  17.619  0.00  0.00    -0.223 NA
ATOM      8  C   UNL     1       3.349   8.110  16.810  0.00  0.00    +0.220 A 
ATOM      9  N   UNL     1       4.312   7.198  17.215  0.00  0.00    -0.283 N 
ATOM     36  H   UNL     1       5.078   6.961  16.586  0.00  0.00    +0.155 HD
ATOM     37  N   UNL     1       3.479   8.668  15.588  0.00  0.00    -0.214 NA
BRANCH   4   3
ATOM      1  C   UNL     1       3.060   9.895  11.243  0.00  0.00    +0.020 A 
ATOM      2  C   UNL     1       2.804   9.315  12.541  0.00  0.00    +0.013 A 
ATOM      3  C   UNL     1       2.832  10.139  13.744  0.00  0.00    +0.019 A 
ATOM     38  C   UNL     1       3.124  11.557  13.596  0.00  0.00    +0.120 A 
ATOM     39  N   UNL     1       3.369  12.087  12.333  0.00  0.00    -0.263 NA
ATOM     40  C   UNL     1       3.346  11.304  11.169  0.00  0.00    +0.111 A 
ENDBRANCH   4   3
ENDBRANCH  10   9
BRANCH  12  13
ATOM     13  N   UNL     1       5.147   7.435  22.114  0.00  0.00    -0.281 N 
ATOM     14  C   UNL     1       6.339   7.246  22.793  0.00  0.00    +0.248 C 
ATOM     30  O   UNL     1       7.096   6.304  22.612  0.00  0.00    -0.270 OA
ATOM     31  H   UNL     1       4.522   8.146  22.494  0.00  0.00    +0.155 HD
BRANCH  14  15
ATOM     15  C   UNL     1       6.743   8.241  23.833  0.00  0.00    +0.037 A 
ATOM     16  C   UNL     1       5.748   9.063  24.526  0.00  0.00    +0.013 A 
ATOM     17  C   UNL     1       6.166  10.026  25.513  0.00  0.00    +0.005 A 
ATOM     18  C   UNL     1       7.588  10.172  25.814  0.00  0.00    -0.033 A 
ATOM     28  C   UNL     1       8.553   9.340  25.116  0.00  0.00    +0.005 A 
ATOM     29  C   UNL     1       8.148   8.395  24.147  0.00  0.00    +0.013 A 
BRANCH  18  19
ATOM     19  C   UNL     1       8.126  11.189  26.838  0.00  0.00    +0.119 C 
BRANCH  19  20
ATOM     20  N   UNL     1       8.627  10.652  28.138  0.00  0.00    -0.302 NA
ATOM     21  C   UNL     1       7.960  11.333  29.336  0.00  0.00    +0.066 C 
ATOM     22  C   UNL     1       8.479  10.743  30.688  0.00  0.00    -0.064 C 
ATOM     23  N   UNL     1      10.000  10.894  30.756  0.00  0.00    +0.379 N 
ATOM     24  C   UNL     1      10.485  10.393  32.050  0.00  0.00    -0.096 C 
ATOM     25  H   UNL     1      10.234  11.982  30.705  0.00  0.00    -0.082 HD
ATOM     26  C   UNL     1      10.671  10.221  29.567  0.00  0.00    -0.064 C 
ATOM     27  C   UNL     1      10.126  10.794  28.228  0.00  0.00    +0.066 C 
ENDBRANCH  19  20
ENDBRANCH  18  19
ENDBRANCH  14  15
ENDBRANCH  12  13
TORSDOF 6
ENDMDL
MODEL 4
REMARK VINA RESULT:      -8.0     16.724     19.683
REMARK  Name = C:\Users\Docking\Desktop\test protocol\1iep_ligandH.pdb
REMARK  8 active torsions:
REMARK  status: ('A' for Active; 'I' for Inactive)
REMARK    1  A    between atoms: _5  and  _11
REMARK    2  A    between atoms: _19  and  _21
REMARK    3  A    between atoms: _22  and  _66
REMARK    4  A    between atoms: _27  and  _30
REMARK    5  A    between atoms: _32  and  _33
REMARK    6  A    between atoms: _38  and  _43
REMARK    7  A    between atoms: _43  and  _46
REMARK    8  A    between atoms: _53  and  _55
REMARK                            x       y       z     vdW  Elec       q    Type
REMARK                         _______ _______ _______ _____ _____    ______ ____
ROOT
ATOM     10  C   UNL     1       9.396  -2.260  12.382  0.00  0.00    +0.038 A 
ATOM     11  C   UNL     1       8.593  -1.118  12.632  0.00  0.00    +0.047 A 
ATOM     12  C   UNL     1       8.214  -0.746  13.986  0.00  0.00    +0.035 A 
ATOM     32  C   UNL     1       8.673  -1.559  15.063  0.00  0.00    +0.024 A 
ATOM     33  C   UNL     1       9.488  -2.725  14.827  0.00  0.00    +0.007 A 
ATOM     34  C   UNL     1       9.863  -3.097  13.493  0.00  0.00    -0.029 A 
ATOM     35  C   UNL     1      10.734  -4.361  13.298  0.00  0.00    +0.045 C 
ENDROOT
BRANCH  10   9
ATOM      4  C   UNL     1       8.748  -4.737   8.322  0.00  0.00    +0.077 A 
ATOM      5  C   UNL     1       7.670  -5.496   8.887  0.00  0.00    +0.048 A 
ATOM      6  C   UNL     1       7.318  -5.224  10.228  0.00  0.00    +0.116 A 
ATOM      7  N   UNL     1       8.000  -4.261  10.941  0.00  0.00    -0.223 NA
ATOM      8  C   UNL     1       9.036  -3.548  10.366  0.00  0.00    +0.220 A 
ATOM      9  N   UNL     1       9.730  -2.570  11.062  0.00  0.00    -0.283 N 
ATOM     36  H   UNL     1      10.493  -2.072  10.604  0.00  0.00    +0.155 HD
ATOM     37  N   UNL     1       9.392  -3.791   9.088  0.00  0.00    -0.214 NA
BRANCH   4   3
ATOM      1  C   UNL     1      10.886  -4.489   5.056  0.00  0.00    +0.020 A 
ATOM      2  C   UNL     1      10.461  -4.292   6.422  0.00  0.00    +0.013 A 
ATOM      3  C   UNL     1       9.235  -4.907   6.916  0.00  0.00    +0.019 A 
ATOM     38  C   UNL     1       8.458  -5.722   5.995  0.00  0.00    +0.120 A 
ATOM     39  N   UNL     1       8.892  -5.893   4.684  0.00  0.00    -0.263 NA
ATOM     40  C   UNL     1      10.069  -5.304   4.197  0.00  0.00    +0.111 A 
ENDBRANCH   4   3
ENDBRANCH  10   9
BRANCH  12  13
ATOM     13  N   UNL     1       7.395   0.398  14.300  0.00  0.00    -0.281 N 
ATOM     14  C   UNL     1       6.013   0.490  14.270  0.00  0.00    +0.248 C 
ATOM     30  O   UNL     1       5.276  -0.341  13.759  0.00  0.00    -0.270 OA
ATOM     31  H   UNL     1       7.894   1.243  14.579  0.00  0.00    +0.155 HD
BRANCH  14  15
ATOM     15  C   UNL     1       5.355   1.683  14.883  0.00  0.00    +0.037 A 
ATOM     16  C   UNL     1       4.168   1.545  15.732  0.00  0.00    +0.013 A 
ATOM     17  C   UNL     1       3.543   2.714  16.297  0.00  0.00    +0.005 A 
ATOM     18  C   UNL     1       4.105   4.033  16.017  0.00  0.00    -0.033 A 
ATOM     28  C   UNL     1       5.286   4.141  15.176  0.00  0.00    +0.005 A 
ATOM     29  C   UNL     1       5.901   2.997  14.619  0.00  0.00    +0.013 A 
BRANCH  18  19
ATOM     19  C   UNL     1       3.491   5.337  16.560  0.00  0.00    +0.119 C 
BRANCH  19  20
ATOM     20  N   UNL     1       3.712   5.646  18.004  0.00  0.00    -0.302 NA
ATOM     21  C   UNL     1       4.074   7.117  18.228  0.00  0.00    +0.066 C 
ATOM     22  C   UNL     1       4.280   7.429  19.746  0.00  0.00    -0.064 C 
ATOM     23  N   UNL     1       5.367   6.512  20.309  0.00  0.00    +0.379 N 
ATOM     24  C   UNL     1       5.604   6.842  21.722  0.00  0.00    -0.096 C 
ATOM     25  H   UNL     1       6.309   6.721  19.750  0.00  0.00    -0.082 HD
ATOM     26  C   UNL     1       5.016   5.047  20.089  0.00  0.00    -0.064 C 
ATOM     27  C   UNL     1       4.785   4.755  18.580  0.00  0.00    +0.066 C 
ENDBRANCH  19  20
ENDBRANCH  18  19
ENDBRANCH  14  15
ENDBRANCH  12  13
TORSDOF 6
ENDMDL
MODEL 5
REMARK VINA RESULT:      -8.0     21.989     25.389
REMARK  Name = C:\Users\Docking\Desktop\test protocol\1iep_ligandH.pdb
REMARK  8 active torsions:
REMARK  status: ('A' for Active; 'I' for Inactive)
REMARK    1  A    between atoms: _5  and  _11
REMARK    2  A    between atoms: _19  and  _21
REMARK    3  A    between atoms: _22  and  _66
REMARK    4  A    between atoms: _27  and  _30
REMARK    5  A    between atoms: _32  and  _33
REMARK    6  A    between atoms: _38  and  _43
REMARK    7  A    between atoms: _43  and  _46
REMARK    8  A    between atoms: _53  and  _55
REMARK                            x       y       z     vdW  Elec       q    Type
REMARK                         _______ _______ _______ _____ _____    ______ ____
ROOT
ATOM     10  C   UNL     1       9.228  -4.970  15.122  0.00  0.00    +0.038 A 
ATOM     11  C   UNL     1       9.142  -6.322  15.544  0.00  0.00    +0.047 A 
ATOM     12  C   UNL     1       9.711  -6.752  16.812  0.00  0.00    +0.035 A 
ATOM     32  C   UNL     1      10.359  -5.778  17.626  0.00  0.00    +0.024 A 
ATOM     33  C   UNL     1      10.456  -4.400  17.212  0.00  0.00    +0.007 A 
ATOM     34  C   UNL     1       9.899  -3.971  15.962  0.00  0.00    -0.029 A 
ATOM     35  C   UNL     1      10.038  -2.482  15.565  0.00  0.00    +0.045 C 
ENDROOT
BRANCH  10   9
ATOM      4  C   UNL     1       9.586  -3.735  10.498  0.00  0.00    +0.077 A 
ATOM      5  C   UNL     1      11.019  -3.780  10.536  0.00  0.00    +0.048 A 
ATOM      6  C   UNL     1      11.625  -4.118  11.766  0.00  0.00    +0.116 A 
ATOM      7  N   UNL     1      10.846  -4.390  12.870  0.00  0.00    -0.223 NA
ATOM      8  C   UNL     1       9.467  -4.336  12.800  0.00  0.00    +0.220 A 
ATOM      9  N   UNL     1       8.663  -4.613  13.895  0.00  0.00    -0.283 N 
ATOM     36  H   UNL     1       7.649  -4.555  13.805  0.00  0.00    +0.155 HD
ATOM     37  N   UNL     1       8.863  -4.014  11.637  0.00  0.00    -0.214 NA
BRANCH   4   3
ATOM      1  C   UNL     1       7.848  -1.758   7.604  0.00  0.00    +0.020 A 
ATOM      2  C   UNL     1       8.618  -2.031   8.796  0.00  0.00    +0.013 A 
ATOM      3  C   UNL     1       8.798  -3.397   9.270  0.00  0.00    +0.019 A 
ATOM     38  C   UNL     1       8.182  -4.473   8.509  0.00  0.00    +0.120 A 
ATOM     39  N   UNL     1       7.445  -4.180   7.366  0.00  0.00    -0.263 NA
ATOM     40  C   UNL     1       7.264  -2.869   6.901  0.00  0.00    +0.111 A 
ENDBRANCH   4   3
ENDBRANCH  10   9
BRANCH  12  13
ATOM     13  N   UNL     1       9.662  -8.111  17.289  0.00  0.00    -0.281 N 
ATOM     14  C   UNL     1       8.568  -8.800  17.786  0.00  0.00    +0.248 C 
ATOM     30  O   UNL     1       7.506  -8.280  18.096  0.00  0.00    -0.270 OA
ATOM     31  H   UNL     1      10.541  -8.629  17.257  0.00  0.00    +0.155 HD
BRANCH  14  15
ATOM     15  C   UNL     1       8.673 -10.279  17.980  0.00  0.00    +0.037 A 
ATOM     16  C   UNL     1       8.422 -11.210  16.877  0.00  0.00    +0.013 A 
ATOM     17  C   UNL     1       8.513 -12.632  17.096  0.00  0.00    +0.005 A 
ATOM     18  C   UNL     1       8.859 -13.131  18.425  0.00  0.00    -0.033 A 
ATOM     28  C   UNL     1       9.108 -12.185  19.500  0.00  0.00    +0.005 A 
ATOM     29  C   UNL     1       9.018 -10.791  19.289  0.00  0.00    +0.013 A 
BRANCH  18  19
ATOM     19  C   UNL     1       8.958 -14.632  18.754  0.00  0.00    +0.119 C 
BRANCH  19  20
ATOM     20  N   UNL     1      10.088 -15.393  18.142  0.00  0.00    -0.302 NA
ATOM     21  C   UNL     1      11.382 -14.577  18.114  0.00  0.00    +0.066 C 
ATOM     22  C   UNL     1      12.559 -15.396  17.491  0.00  0.00    -0.064 C 
ATOM     23  N   UNL     1      12.173 -15.847  16.082  0.00  0.00    +0.379 N 
ATOM     24  C   UNL     1      13.299 -16.568  15.471  0.00  0.00    -0.096 C 
ATOM     25  H   UNL     1      11.987 -14.932  15.473  0.00  0.00    -0.082 HD
ATOM     26  C   UNL     1      10.885 -16.658  16.100  0.00  0.00    -0.064 C 
ATOM     27  C   UNL     1       9.729 -15.845  16.748  0.00  0.00    +0.066 C 
ENDBRANCH  19  20
ENDBRANCH  18  19
ENDBRANCH  14  15
ENDBRANCH  12  13
TORSDOF 6
ENDMDL
