MODEL 1
REMARK VINA RESULT:      -8.5      0.000      0.000
REMARK  Name = C:\Users\Docking\Desktop\test protocol\1iep_ligandH.pdb
REMARK  8 active torsions:
REMARK  status: ('A' for Active; 'I' for Inactive)
REMARK    1  A    between atoms: _5  and  _11
REMARK    2  A    between atoms: _19  and  _21
REMARK    3  A    between atoms: _22  and  _66
REMARK    4  A    between atoms: _27  and  _30
REMARK    5  A    between atoms: _32  and  _33
REMARK    6  A    between atoms: _38  and  _43
REMARK    7  A    between atoms: _43  and  _46
REMARK    8  A    between atoms: _53  and  _55
REMARK                            x       y       z     vdW  Elec       q    Type
REMARK                         _______ _______ _______ _____ _____    ______ ____
ROOT
ATOM     10  C   UNL     1       1.528   0.491  10.960  0.00  0.00    +0.038 A 
ATOM     11  C   UNL     1       1.338   1.277   9.794  0.00  0.00    +0.047 A 
ATOM     12  C   UNL     1       0.787   2.621   9.875  0.00  0.00    +0.035 A 
ATOM     32  C   UNL     1       0.444   3.134  11.159  0.00  0.00    +0.024 A 
ATOM     33  C   UNL     1       0.630   2.349  12.354  0.00  0.00    +0.007 A 
ATOM     34  C   UNL     1       1.170   1.022  12.280  0.00  0.00    -0.029 A 
ATOM     35  C   UNL     1       1.342   0.223  13.593  0.00  0.00    +0.045 C 
ENDROOT
BRANCH  10   9
ATOM      4  C   UNL     1       1.068  -4.283  10.761  0.00  0.00    +0.077 A 
ATOM      5  C   UNL     1      -0.350  -4.214  10.972  0.00  0.00    +0.048 A 
ATOM      6  C   UNL     1      -0.920  -2.932  11.134  0.00  0.00    +0.116 A 
ATOM      7  N   UNL     1      -0.123  -1.808  11.086  0.00  0.00    -0.223 NA
ATOM      8  C   UNL     1       1.241  -1.910  10.883  0.00  0.00    +0.220 A 
ATOM      9  N   UNL     1       2.060  -0.793  10.824  0.00  0.00    -0.283 N 
ATOM     36  H   UNL     1       3.063  -0.911  10.680  0.00  0.00    +0.155 HD
ATOM     37  N   UNL     1       1.810  -3.123  10.727  0.00  0.00    -0.214 NA
BRANCH   4   3
ATOM      1  C   UNL     1       2.037  -7.914   9.678  0.00  0.00    +0.020 A 
ATOM      2  C   UNL     1       1.272  -6.699   9.834  0.00  0.00    +0.013 A 
ATOM      3  C   UNL     1       1.817  -5.565  10.570  0.00  0.00    +0.019 A 
ATOM     38  C   UNL     1       3.150  -5.694  11.138  0.00  0.00    +0.120 A 
ATOM     39  N   UNL     1       3.863  -6.877  10.973  0.00  0.00    -0.263 NA
ATOM     40  C   UNL     1       3.348  -7.976  10.269  0.00  0.00    +0.111 A 
ENDBRANCH   4   3
ENDBRANCH  10   9
BRANCH  12  13
ATOM     13  N   UNL     1       0.564   3.462   8.725  0.00  0.00    -0.281 N 
ATOM     14  C   UNL     1       1.505   4.153   7.980  0.00  0.00    +0.248 C 
ATOM     30  O   UNL     1       2.666   4.323   8.319  0.00  0.00    -0.270 OA
ATOM     31  H   UNL     1      -0.406   3.561   8.425  0.00  0.00    +0.155 HD
BRANCH  14  15
ATOM     15  C   UNL     1       1.093   4.753   6.674  0.00  0.00    +0.037 A 
ATOM     16  C   UNL     1      -0.003   5.723   6.596  0.00  0.00    +0.013 A 
ATOM     17  C   UNL     1      -0.391   6.274   5.322  0.00  0.00    +0.005 A 
ATOM     18  C   UNL     1       0.318   5.857   4.115  0.00  0.00    -0.033 A 
ATOM     28  C   UNL     1       1.405   4.897   4.222  0.00  0.00    +0.005 A 
ATOM     29  C   UNL     1       1.788   4.354   5.469  0.00  0.00    +0.013 A 
BRANCH  18  19
ATOM     19  C   UNL     1      -0.042   6.377   2.711  0.00  0.00    +0.119 C 
BRANCH  19  20
ATOM     20  N   UNL     1      -0.731   5.428   1.786  0.00  0.00    -0.302 NA
ATOM     21  C   UNL     1       0.086   5.166   0.518  0.00  0.00    +0.066 C 
ATOM     22  C   UNL     1      -0.639   4.153  -0.427  0.00  0.00    -0.064 C 
ATOM     23  N   UNL     1      -2.027   4.692  -0.779  0.00  0.00    +0.379 N 
ATOM     24  C   UNL     1      -2.689   3.771  -1.714  0.00  0.00    -0.096 C 
ATOM     25  H   UNL     1      -1.888   5.666  -1.304  0.00  0.00    -0.082 HD
ATOM     26  C   UNL     1      -2.845   4.958   0.476  0.00  0.00    -0.064 C 
ATOM     27  C   UNL     1      -2.102   5.942   1.423  0.00  0.00    +0.066 C 
ENDBRANCH  19  20
ENDBRANCH  18  19
ENDBRANCH  14  15
ENDBRANCH  12  13
TORSDOF 6
ENDMDL
MODEL 2
REMARK VINA RESULT:      -8.4      1.184      1.783
REMARK  Name = C:\Users\Docking\Desktop\test protocol\1iep_ligandH.pdb
REMARK  8 active torsions:
REMARK  status: ('A' for Active; 'I' for Inactive)
REMARK    1  A    between atoms: _5  and  _11
REMARK    2  A    between atoms: _19  and  _21
REMARK    3  A    between atoms: _22  and  _66
REMARK    4  A    between atoms: _27  and  _30
REMARK    5  A    between atoms: _32  and  _33
REMARK    6  A    between atoms: _38  and  _43
REMARK    7  A    between atoms: _43  and  _46
REMARK    8  A    between atoms: _53  and  _55
REMARK                            x       y       z     vdW  Elec       q    Type
REMARK                         _______ _______ _______ _____ _____    ______ ____
ROOT
ATOM     10  C   UNL     1       1.570   0.305  11.204  0.00  0.00    +0.038 A 
ATOM     11  C   UNL     1       1.474   0.989   9.966  0.00  0.00    +0.047 A 
ATOM     12  C   UNL     1       0.937   2.339   9.892  0.00  0.00    +0.035 A 
ATOM     32  C   UNL     1       0.510   2.963  11.100  0.00  0.00    +0.024 A 
ATOM     33  C   UNL     1       0.600   2.282  12.367  0.00  0.00    +0.007 A 
ATOM     34  C   UNL     1       1.126   0.949  12.446  0.00  0.00    -0.029 A 
ATOM     35  C   UNL     1       1.192   0.264  13.831  0.00  0.00    +0.045 C 
ENDROOT
BRANCH  10   9
ATOM      4  C   UNL     1       1.061  -4.468  11.133  0.00  0.00    +0.077 A 
ATOM      5  C   UNL     1      -0.370  -4.373  11.093  0.00  0.00    +0.048 A 
ATOM      6  C   UNL     1      -0.936  -3.079  11.099  0.00  0.00    +0.116 A 
ATOM      7  N   UNL     1      -0.121  -1.968  11.142  0.00  0.00    -0.223 NA
ATOM      8  C   UNL     1       1.255  -2.094  11.182  0.00  0.00    +0.220 A 
ATOM      9  N   UNL     1       2.093  -0.990  11.218  0.00  0.00    -0.283 N 
ATOM     36  H   UNL     1       3.104  -1.126  11.254  0.00  0.00    +0.155 HD
ATOM     37  N   UNL     1       1.820  -3.319  11.178  0.00  0.00    -0.214 NA
BRANCH   4   3
ATOM      1  C   UNL     1       2.242  -8.092  10.254  0.00  0.00    +0.020 A 
ATOM      2  C   UNL     1       1.490  -6.859  10.218  0.00  0.00    +0.013 A 
ATOM      3  C   UNL     1       1.807  -5.765  11.128  0.00  0.00    +0.019 A 
ATOM     38  C   UNL     1       2.901  -5.953  12.069  0.00  0.00    +0.120 A 
ATOM     39  N   UNL     1       3.607  -7.151  12.082  0.00  0.00    -0.263 NA
ATOM     40  C   UNL     1       3.310  -8.211  11.212  0.00  0.00    +0.111 A 
ENDBRANCH   4   3
ENDBRANCH  10   9
BRANCH  12  13
ATOM     13  N   UNL     1       0.808   3.080   8.662  0.00  0.00    -0.281 N 
ATOM     14  C   UNL     1       1.740   3.916   8.069  0.00  0.00    +0.248 C 
ATOM     30  O   UNL     1       2.753   4.323   8.620  0.00  0.00    -0.270 OA
ATOM     31  H   UNL     1      -0.079   2.976   8.168  0.00  0.00    +0.155 HD
BRANCH  14  15
ATOM     15  C   UNL     1       1.507   4.379   6.667  0.00  0.00    +0.037 A 
ATOM     16  C   UNL     1       2.484   4.117   5.608  0.00  0.00    +0.013 A 
ATOM     17  C   UNL     1       2.243   4.589   4.268  0.00  0.00    +0.005 A 
ATOM     18  C   UNL     1       1.016   5.328   3.979  0.00  0.00    -0.033 A 
ATOM     28  C   UNL     1       0.061   5.570   5.048  0.00  0.00    +0.005 A 
ATOM     29  C   UNL     1       0.295   5.110   6.363  0.00  0.00    +0.013 A 
BRANCH  18  19
ATOM     19  C   UNL     1       0.686   5.888   2.583  0.00  0.00    +0.119 C 
BRANCH  19  20
ATOM     20  N   UNL     1      -0.670   6.483   2.388  0.00  0.00    -0.302 NA
ATOM     21  C   UNL     1      -1.454   5.774   1.280  0.00  0.00    +0.066 C 
ATOM     22  C   UNL     1      -2.879   6.394   1.105  0.00  0.00    -0.064 C 
ATOM     23  N   UNL     1      -2.748   7.888   0.805  0.00  0.00    +0.379 N 
ATOM     24  C   UNL     1      -4.083   8.463   0.582  0.00  0.00    -0.096 C 
ATOM     25  H   UNL     1      -2.172   7.993  -0.144  0.00  0.00    -0.082 HD
ATOM     26  C   UNL     1      -1.967   8.600   1.900  0.00  0.00    -0.064 C 
ATOM     27  C   UNL     1      -0.564   7.957   2.086  0.00  0.00    +0.066 C 
ENDBRANCH  19  20
ENDBRANCH  18  19
ENDBRANCH  14  15
ENDBRANCH  12  13
TORSDOF 6
ENDMDL
MODEL 3
REMARK VINA RESULT:      -8.3      7.064     13.391
REMARK  Name = C:\Users\Docking\Desktop\test protocol\1iep_ligandH.pdb
REMARK  8 active torsions:
REMARK  status: ('A' for Active; 'I' for Inactive)
REMARK    1  A    between atoms: _5  and  _11
REMARK    2  A    between atoms: _19  and  _21
REMARK    3  A    between atoms: _22  and  _66
REMARK    4  A    between atoms: _27  and  _30
REMARK    5  A    between atoms: _32  and  _33
REMARK    6  A    between atoms: _38  and  _43
REMARK    7  A    between atoms: _43  and  _46
REMARK    8  A    between atoms: _53  and  _55
REMARK                            x       y       z     vdW  Elec       q    Type
REMARK                         _______ _______ _______ _____ _____    ______ ____
ROOT
ATOM     10  C   UNL     1       2.804  -3.278  10.161  0.00  0.00    +0.038 A 
ATOM     11  C   UNL     1       3.353  -3.504  11.449  0.00  0.00    +0.047 A 
ATOM     12  C   UNL     1       2.920  -2.726  12.599  0.00  0.00    +0.035 A 
ATOM     32  C   UNL     1       1.923  -1.726  12.401  0.00  0.00    +0.024 A 
ATOM     33  C   UNL     1       1.355  -1.482  11.098  0.00  0.00    +0.007 A 
ATOM     34  C   UNL     1       1.781  -2.245   9.960  0.00  0.00    -0.029 A 
ATOM     35  C   UNL     1       1.142  -1.936   8.586  0.00  0.00    +0.045 C 
ENDROOT
BRANCH  10   9
ATOM      4  C   UNL     1       2.724  -7.269   7.497  0.00  0.00    +0.077 A 
ATOM      5  C   UNL     1       1.713  -7.869   8.320  0.00  0.00    +0.048 A 
ATOM      6  C   UNL     1       1.246  -7.120   9.423  0.00  0.00    +0.116 A 
ATOM      7  N   UNL     1       1.758  -5.866   9.675  0.00  0.00    -0.223 NA
ATOM      8  C   UNL     1       2.733  -5.317   8.862  0.00  0.00    +0.220 A 
ATOM      9  N   UNL     1       3.257  -4.054   9.092  0.00  0.00    -0.283 N 
ATOM     36  H   UNL     1       3.980  -3.688   8.474  0.00  0.00    +0.155 HD
ATOM     37  N   UNL     1       3.197  -6.013   7.803  0.00  0.00    -0.214 NA
BRANCH   4   3
ATOM      1  C   UNL     1       4.568  -9.811   5.164  0.00  0.00    +0.020 A 
ATOM      2  C   UNL     1       4.015  -9.211   6.357  0.00  0.00    +0.013 A 
ATOM      3  C   UNL     1       3.316  -7.934   6.293  0.00  0.00    +0.019 A 
ATOM     38  C   UNL     1       3.192  -7.285   4.997  0.00  0.00    +0.120 A 
ATOM     39  N   UNL     1       3.736  -7.885   3.866  0.00  0.00    -0.263 NA
ATOM     40  C   UNL     1       4.412  -9.113   3.915  0.00  0.00    +0.111 A 
ENDBRANCH   4   3
ENDBRANCH  10   9
BRANCH  12  13
ATOM     13  N   UNL     1       3.446  -2.905  13.929  0.00  0.00    -0.281 N 
ATOM     14  C   UNL     1       4.577  -2.326  14.482  0.00  0.00    +0.248 C 
ATOM     30  O   UNL     1       5.430  -1.728  13.844  0.00  0.00    -0.270 OA
ATOM     31  H   UNL     1       2.923  -3.535  14.536  0.00  0.00    +0.155 HD
BRANCH  14  15
ATOM     15  C   UNL     1       4.799  -2.441  15.956  0.00  0.00    +0.037 A 
ATOM     16  C   UNL     1       6.023  -1.934  16.582  0.00  0.00    +0.013 A 
ATOM     17  C   UNL     1       6.219  -2.072  18.003  0.00  0.00    +0.005 A 
ATOM     18  C   UNL     1       5.186  -2.719  18.809  0.00  0.00    -0.033 A 
ATOM     28  C   UNL     1       3.979  -3.208  18.163  0.00  0.00    +0.005 A 
ATOM     29  C   UNL     1       3.784  -3.075  16.770  0.00  0.00    +0.013 A 
BRANCH  18  19
ATOM     19  C   UNL     1       5.321  -2.929  20.329  0.00  0.00    +0.119 C 
BRANCH  19  20
ATOM     20  N   UNL     1       5.578  -1.719  21.166  0.00  0.00    -0.302 NA
ATOM     21  C   UNL     1       5.532  -2.036  22.663  0.00  0.00    +0.066 C 
ATOM     22  C   UNL     1       5.825  -0.764  23.524  0.00  0.00    -0.064 C 
ATOM     23  N   UNL     1       4.818   0.331  23.170  0.00  0.00    +0.379 N 
ATOM     24  C   UNL     1       5.055   1.508  24.019  0.00  0.00    -0.096 C 
ATOM     25  H   UNL     1       3.800  -0.057  23.407  0.00  0.00    -0.082 HD
ATOM     26  C   UNL     1       4.855   0.650  21.683  0.00  0.00    -0.064 C 
ATOM     27  C   UNL     1       4.591  -0.626  20.836  0.00  0.00    +0.066 C 
ENDBRANCH  19  20
ENDBRANCH  18  19
ENDBRANCH  14  15
ENDBRANCH  12  13
TORSDOF 6
ENDMDL
MODEL 4
REMARK VINA RESULT:      -8.3     13.619     19.313
REMARK  Name = C:\Users\Docking\Desktop\test protocol\1iep_ligandH.pdb
REMARK  8 active torsions:
REMARK  status: ('A' for Active; 'I' for Inactive)
REMARK    1  A    between atoms: _5  and  _11
REMARK    2  A    between atoms: _19  and  _21
REMARK    3  A    between atoms: _22  and  _66
REMARK    4  A    between atoms: _27  and  _30
REMARK    5  A    between atoms: _32  and  _33
REMARK    6  A    between atoms: _38  and  _43
REMARK    7  A    between atoms: _43  and  _46
REMARK    8  A    between atoms: _53  and  _55
REMARK                            x       y       z     vdW  Elec       q    Type
REMARK                         _______ _______ _______ _____ _____    ______ ____
ROOT
ATOM     10  C   UNL     1       2.610   4.567  27.394  0.00  0.00    +0.038 A 
ATOM     11  C   UNL     1       2.712   3.694  26.280  0.00  0.00    +0.047 A 
ATOM     12  C   UNL     1       3.997   3.413  25.660  0.00  0.00    +0.035 A 
ATOM     32  C   UNL     1       5.160   4.036  26.201  0.00  0.00    +0.024 A 
ATOM     33  C   UNL     1       5.074   4.927  27.332  0.00  0.00    +0.007 A 
ATOM     34  C   UNL     1       3.809   5.210  27.946  0.00  0.00    -0.029 A 
ATOM     35  C   UNL     1       3.776   6.178  29.152  0.00  0.00    +0.045 C 
ENDROOT
BRANCH  10   9
ATOM      4  C   UNL     1      -1.519   7.001  27.647  0.00  0.00    +0.077 A 
ATOM      5  C   UNL     1      -1.123   7.898  26.600  0.00  0.00    +0.048 A 
ATOM      6  C   UNL     1       0.154   7.703  26.027  0.00  0.00    +0.116 A 
ATOM      7  N   UNL     1       0.966   6.684  26.476  0.00  0.00    -0.223 NA
ATOM      8  C   UNL     1       0.554   5.838  27.489  0.00  0.00    +0.220 A 
ATOM      9  N   UNL     1       1.351   4.801  27.950  0.00  0.00    -0.283 N 
ATOM     36  H   UNL     1       1.014   4.203  28.704  0.00  0.00    +0.155 HD
ATOM     37  N   UNL     1      -0.660   6.004  28.053  0.00  0.00    -0.214 NA
BRANCH   4   3
ATOM      1  C   UNL     1      -4.638   8.325  29.600  0.00  0.00    +0.020 A 
ATOM      2  C   UNL     1      -3.357   8.306  28.934  0.00  0.00    +0.013 A 
ATOM      3  C   UNL     1      -2.839   7.076  28.349  0.00  0.00    +0.019 A 
ATOM     38  C   UNL     1      -3.651   5.872  28.455  0.00  0.00    +0.120 A 
ATOM     39  N   UNL     1      -4.881   5.920  29.104  0.00  0.00    -0.263 NA
ATOM     40  C   UNL     1      -5.388   7.098  29.672  0.00  0.00    +0.111 A 
ENDBRANCH   4   3
ENDBRANCH  10   9
BRANCH  12  13
ATOM     13  N   UNL     1       4.161   2.542  24.523  0.00  0.00    -0.281 N 
ATOM     14  C   UNL     1       5.340   2.173  23.896  0.00  0.00    +0.248 C 
ATOM     30  O   UNL     1       6.422   2.708  24.087  0.00  0.00    -0.270 OA
ATOM     31  H   UNL     1       3.304   2.149  24.133  0.00  0.00    +0.155 HD
BRANCH  14  15
ATOM     15  C   UNL     1       5.311   1.057  22.902  0.00  0.00    +0.037 A 
ATOM     16  C   UNL     1       5.491   1.309  21.470  0.00  0.00    +0.013 A 
ATOM     17  C   UNL     1       5.441   0.217  20.531  0.00  0.00    +0.005 A 
ATOM     18  C   UNL     1       5.211  -1.140  21.022  0.00  0.00    -0.033 A 
ATOM     28  C   UNL     1       5.040  -1.362  22.448  0.00  0.00    +0.005 A 
ATOM     29  C   UNL     1       5.088  -0.294  23.371  0.00  0.00    +0.013 A 
BRANCH  18  19
ATOM     19  C   UNL     1       5.122  -2.362  20.090  0.00  0.00    +0.119 C 
BRANCH  19  20
ATOM     20  N   UNL     1       5.184  -2.108  18.620  0.00  0.00    -0.302 NA
ATOM     21  C   UNL     1       4.294  -3.072  17.831  0.00  0.00    +0.066 C 
ATOM     22  C   UNL     1       4.354  -2.777  16.297  0.00  0.00    -0.064 C 
ATOM     23  N   UNL     1       5.805  -2.866  15.820  0.00  0.00    +0.379 N 
ATOM     24  C   UNL     1       5.858  -2.646  14.367  0.00  0.00    -0.096 C 
ATOM     25  H   UNL     1       6.162  -3.903  16.018  0.00  0.00    -0.082 HD
ATOM     26  C   UNL     1       6.698  -1.913  16.601  0.00  0.00    -0.064 C 
ATOM     27  C   UNL     1       6.608  -2.195  18.126  0.00  0.00    +0.066 C 
ENDBRANCH  19  20
ENDBRANCH  18  19
ENDBRANCH  14  15
ENDBRANCH  12  13
TORSDOF 6
ENDMDL
MODEL 5
REMARK VINA RESULT:      -8.3     13.670     19.564
REMARK  Name = C:\Users\Docking\Desktop\test protocol\1iep_ligandH.pdb
REMARK  8 active torsions:
REMARK  status: ('A' for Active; 'I' for Inactive)
REMARK    1  A    between atoms: _5  and  _11
REMARK    2  A    between atoms: _19  and  _21
REMARK    3  A    between atoms: _22  and  _66
REMARK    4  A    between atoms: _27  and  _30
REMARK    5  A    between atoms: _32  and  _33
REMARK    6  A    between atoms: _38  and  _43
REMARK    7  A    between atoms: _43  and  _46
REMARK    8  A    between atoms: _53  and  _55
REMARK                            x       y       z     vdW  Elec       q    Type
REMARK                         _______ _______ _______ _____ _____    ______ ____
ROOT
ATOM     10  C   UNL     1       2.591   4.473  27.216  0.00  0.00    +0.038 A 
ATOM     11  C   UNL     1       2.760   3.736  26.016  0.00  0.00    +0.047 A 
ATOM     12  C   UNL     1       4.078   3.534  25.435  0.00  0.00    +0.035 A 
ATOM     32  C   UNL     1       5.204   4.096  26.105  0.00  0.00    +0.024 A 
ATOM     33  C   UNL     1       5.051   4.849  27.324  0.00  0.00    +0.007 A 
ATOM     34  C   UNL     1       3.753   5.053  27.901  0.00  0.00    -0.029 A 
ATOM     35  C   UNL     1       3.648   5.875  29.207  0.00  0.00    +0.045 C 
ENDROOT
BRANCH  10   9
ATOM      4  C   UNL     1      -1.478   6.967  27.727  0.00  0.00    +0.077 A 
ATOM      5  C   UNL     1      -0.985   8.049  26.926  0.00  0.00    +0.048 A 
ATOM      6  C   UNL     1       0.324   7.929  26.407  0.00  0.00    +0.116 A 
ATOM      7  N   UNL     1       1.074   6.804  26.675  0.00  0.00    -0.223 NA
ATOM      8  C   UNL     1       0.569   5.779  27.453  0.00  0.00    +0.220 A 
ATOM      9  N   UNL     1       1.303   4.636  27.729  0.00  0.00    -0.283 N 
ATOM     36  H   UNL     1       0.897   3.905  28.314  0.00  0.00    +0.155 HD
ATOM     37  N   UNL     1      -0.678   5.871  27.962  0.00  0.00    -0.214 NA
BRANCH   4   3
ATOM      1  C   UNL     1      -5.010   5.800  28.936  0.00  0.00    +0.020 A 
ATOM      2  C   UNL     1      -3.701   5.768  28.325  0.00  0.00    +0.013 A 
ATOM      3  C   UNL     1      -2.842   6.945  28.344  0.00  0.00    +0.019 A 
ATOM     38  C   UNL     1      -3.341   8.148  28.994  0.00  0.00    +0.120 A 
ATOM     39  N   UNL     1      -4.607   8.149  29.572  0.00  0.00    -0.263 NA
ATOM     40  C   UNL     1      -5.443   7.023  29.559  0.00  0.00    +0.111 A 
ENDBRANCH   4   3
ENDBRANCH  10   9
BRANCH  12  13
ATOM     13  N   UNL     1       4.309   2.801  24.215  0.00  0.00    -0.281 N 
ATOM     14  C   UNL     1       5.469   2.156  23.816  0.00  0.00    +0.248 C 
ATOM     30  O   UNL     1       6.556   2.293  24.356  0.00  0.00    -0.270 OA
ATOM     31  H   UNL     1       3.523   2.752  23.567  0.00  0.00    +0.155 HD
BRANCH  14  15
ATOM     15  C   UNL     1       5.415   1.237  22.639  0.00  0.00    +0.037 A 
ATOM     16  C   UNL     1       4.648  -0.010  22.683  0.00  0.00    +0.013 A 
ATOM     17  C   UNL     1       4.626  -0.887  21.539  0.00  0.00    +0.005 A 
ATOM     18  C   UNL     1       5.374  -0.518  20.340  0.00  0.00    -0.033 A 
ATOM     28  C   UNL     1       6.122   0.728  20.321  0.00  0.00    +0.005 A 
ATOM     29  C   UNL     1       6.147   1.589  21.441  0.00  0.00    +0.013 A 
BRANCH  18  19
ATOM     19  C   UNL     1       5.425  -1.403  19.080  0.00  0.00    +0.119 C 
BRANCH  19  20
ATOM     20  N   UNL     1       4.688  -2.701  19.126  0.00  0.00    -0.302 NA
ATOM     21  C   UNL     1       5.555  -3.836  19.678  0.00  0.00    +0.066 C 
ATOM     22  C   UNL     1       4.761  -5.181  19.740  0.00  0.00    -0.064 C 
ATOM     23  N   UNL     1       4.240  -5.527  18.344  0.00  0.00    +0.379 N 
ATOM     24  C   UNL     1       3.542  -6.820  18.388  0.00  0.00    -0.096 C 
ATOM     25  H   UNL     1       5.122  -5.641  17.673  0.00  0.00    -0.082 HD
ATOM     26  C   UNL     1       3.378  -4.403  17.787  0.00  0.00    -0.064 C 
ATOM     27  C   UNL     1       4.167  -3.064  17.757  0.00  0.00    +0.066 C 
ENDBRANCH  19  20
ENDBRANCH  18  19
ENDBRANCH  14  15
ENDBRANCH  12  13
TORSDOF 6
ENDMDL
