MODEL 1
REMARK VINA RESULT:      -8.2      0.000      0.000
REMARK  Name = C:\Users\Docking\Desktop\test protocol\1iep_ligandH.pdb
REMARK  8 active torsions:
REMARK  status: ('A' for Active; 'I' for Inactive)
REMARK    1  A    between atoms: _5  and  _11
REMARK    2  A    between atoms: _19  and  _21
REMARK    3  A    between atoms: _22  and  _66
REMARK    4  A    between atoms: _27  and  _30
REMARK    5  A    between atoms: _32  and  _33
REMARK    6  A    between atoms: _38  and  _43
REMARK    7  A    between atoms: _43  and  _46
REMARK    8  A    between atoms: _53  and  _55
REMARK                            x       y       z     vdW  Elec       q    Type
REMARK                         _______ _______ _______ _____ _____    ______ ____
ROOT
ATOM     10  C   UNL     1     -13.262  23.745  25.598  0.00  0.00    +0.038 A 
ATOM     11  C   UNL     1     -13.328  24.992  26.271  0.00  0.00    +0.047 A 
ATOM     12  C   UNL     1     -14.341  25.978  25.930  0.00  0.00    +0.035 A 
ATOM     32  C   UNL     1     -15.274  25.660  24.900  0.00  0.00    +0.024 A 
ATOM     33  C   UNL     1     -15.221  24.398  24.205  0.00  0.00    +0.007 A 
ATOM     34  C   UNL     1     -14.222  23.422  24.535  0.00  0.00    -0.029 A 
ATOM     35  C   UNL     1     -14.208  22.088  23.753  0.00  0.00    +0.045 C 
ENDROOT
BRANCH  10   9
ATOM      4  C   UNL     1      -8.818  21.962  25.258  0.00  0.00    +0.077 A 
ATOM      5  C   UNL     1      -8.454  22.907  24.241  0.00  0.00    +0.048 A 
ATOM      6  C   UNL     1      -9.441  23.830  23.829  0.00  0.00    +0.116 A 
ATOM      7  N   UNL     1     -10.696  23.802  24.398  0.00  0.00    -0.223 NA
ATOM      8  C   UNL     1     -11.015  22.876  25.375  0.00  0.00    +0.220 A 
ATOM      9  N   UNL     1     -12.268  22.835  25.966  0.00  0.00    -0.283 N 
ATOM     36  H   UNL     1     -12.467  22.132  26.678  0.00  0.00    +0.155 HD
ATOM     37  N   UNL     1     -10.091  21.983  25.785  0.00  0.00    -0.214 NA
BRANCH   4   3
ATOM      1  C   UNL     1      -6.903  19.570  27.687  0.00  0.00    +0.020 A 
ATOM      2  C   UNL     1      -7.823  20.578  27.215  0.00  0.00    +0.013 A 
ATOM      3  C   UNL     1      -7.884  20.926  25.801  0.00  0.00    +0.019 A 
ATOM     38  C   UNL     1      -6.996  20.228  24.884  0.00  0.00    +0.120 A 
ATOM     39  N   UNL     1      -6.119  19.262  25.368  0.00  0.00    -0.263 NA
ATOM     40  C   UNL     1      -6.050  18.920  26.727  0.00  0.00    +0.111 A 
ENDBRANCH   4   3
ENDBRANCH  10   9
BRANCH  12  13
ATOM     13  N   UNL     1     -14.452  27.264  26.572  0.00  0.00    -0.281 N 
ATOM     14  C   UNL     1     -13.446  28.185  26.815  0.00  0.00    +0.248 C 
ATOM     30  O   UNL     1     -12.252  27.948  26.706  0.00  0.00    -0.270 OA
ATOM     31  H   UNL     1     -15.386  27.528  26.887  0.00  0.00    +0.155 HD
BRANCH  14  15
ATOM     15  C   UNL     1     -13.819  29.563  27.256  0.00  0.00    +0.037 A 
ATOM     16  C   UNL     1     -14.877  30.317  26.579  0.00  0.00    +0.013 A 
ATOM     17  C   UNL     1     -15.206  31.652  27.014  0.00  0.00    +0.005 A 
ATOM     18  C   UNL     1     -14.475  32.240  28.134  0.00  0.00    -0.033 A 
ATOM     28  C   UNL     1     -13.434  31.468  28.791  0.00  0.00    +0.005 A 
ATOM     29  C   UNL     1     -13.108  30.160  28.367  0.00  0.00    +0.013 A 
BRANCH  18  19
ATOM     19  C   UNL     1     -14.744  33.665  28.652  0.00  0.00    +0.119 C 
BRANCH  19  20
ATOM     20  N   UNL     1     -14.985  33.827  30.117  0.00  0.00    -0.302 NA
ATOM     21  C   UNL     1     -16.193  34.722  30.406  0.00  0.00    +0.066 C 
ATOM     22  C   UNL     1     -16.443  34.862  31.943  0.00  0.00    -0.064 C 
ATOM     23  N   UNL     1     -15.185  35.416  32.614  0.00  0.00    +0.379 N 
ATOM     24  C   UNL     1     -15.437  35.603  34.050  0.00  0.00    -0.096 C 
ATOM     25  H   UNL     1     -14.981  36.419  32.173  0.00  0.00    -0.082 HD
ATOM     26  C   UNL     1     -13.979  34.533  32.329  0.00  0.00    -0.064 C 
ATOM     27  C   UNL     1     -13.756  34.377  30.799  0.00  0.00    +0.066 C 
ENDBRANCH  19  20
ENDBRANCH  18  19
ENDBRANCH  14  15
ENDBRANCH  12  13
TORSDOF 6
ENDMDL
MODEL 2
REMARK VINA RESULT:      -7.9      7.939     11.957
REMARK  Name = C:\Users\Docking\Desktop\test protocol\1iep_ligandH.pdb
REMARK  8 active torsions:
REMARK  status: ('A' for Active; 'I' for Inactive)
REMARK    1  A    between atoms: _5  and  _11
REMARK    2  A    between atoms: _19  and  _21
REMARK    3  A    between atoms: _22  and  _66
REMARK    4  A    between atoms: _27  and  _30
REMARK    5  A    between atoms: _32  and  _33
REMARK    6  A    between atoms: _38  and  _43
REMARK    7  A    between atoms: _43  and  _46
REMARK    8  A    between atoms: _53  and  _55
REMARK                            x       y       z     vdW  Elec       q    Type
REMARK                         _______ _______ _______ _____ _____    ______ ____
ROOT
ATOM     10  C   UNL     1      -8.043  16.498  29.246  0.00  0.00    +0.038 A 
ATOM     11  C   UNL     1      -8.685  17.556  28.553  0.00  0.00    +0.047 A 
ATOM     12  C   UNL     1      -7.948  18.411  27.635  0.00  0.00    +0.035 A 
ATOM     32  C   UNL     1      -6.558  18.157  27.444  0.00  0.00    +0.024 A 
ATOM     33  C   UNL     1      -5.890  17.087  28.141  0.00  0.00    +0.007 A 
ATOM     34  C   UNL     1      -6.611  16.242  29.050  0.00  0.00    -0.029 A 
ATOM     35  C   UNL     1      -5.842  15.113  29.775  0.00  0.00    +0.045 C 
ENDROOT
BRANCH  10   9
ATOM      4  C   UNL     1      -9.889  15.542  33.572  0.00  0.00    +0.077 A 
ATOM      5  C   UNL     1      -9.272  16.699  34.156  0.00  0.00    +0.048 A 
ATOM      6  C   UNL     1      -8.483  17.510  33.310  0.00  0.00    +0.116 A 
ATOM      7  N   UNL     1      -8.328  17.179  31.981  0.00  0.00    -0.223 NA
ATOM      8  C   UNL     1      -8.935  16.056  31.451  0.00  0.00    +0.220 A 
ATOM      9  N   UNL     1      -8.799  15.709  30.115  0.00  0.00    -0.283 N 
ATOM     36  H   UNL     1      -9.257  14.868  29.764  0.00  0.00    +0.155 HD
ATOM     37  N   UNL     1      -9.693  15.264  32.238  0.00  0.00    -0.214 NA
BRANCH   4   3
ATOM      1  C   UNL     1     -11.366  12.279  35.144  0.00  0.00    +0.020 A 
ATOM      2  C   UNL     1     -10.498  13.156  34.392  0.00  0.00    +0.013 A 
ATOM      3  C   UNL     1     -10.755  14.590  34.336  0.00  0.00    +0.019 A 
ATOM     38  C   UNL     1     -11.907  15.108  35.058  0.00  0.00    +0.120 A 
ATOM     39  N   UNL     1     -12.726  14.240  35.773  0.00  0.00    -0.263 NA
ATOM     40  C   UNL     1     -12.489  12.858  35.833  0.00  0.00    +0.111 A 
ENDBRANCH   4   3
ENDBRANCH  10   9
BRANCH  12  13
ATOM     13  N   UNL     1      -8.544  19.505  26.910  0.00  0.00    -0.281 N 
ATOM     14  C   UNL     1      -8.259  20.856  27.021  0.00  0.00    +0.248 C 
ATOM     30  O   UNL     1      -7.595  21.351  27.920  0.00  0.00    -0.270 OA
ATOM     31  H   UNL     1      -9.263  19.253  26.231  0.00  0.00    +0.155 HD
BRANCH  14  15
ATOM     15  C   UNL     1      -8.803  21.796  25.994  0.00  0.00    +0.037 A 
ATOM     16  C   UNL     1      -8.149  21.961  24.693  0.00  0.00    +0.013 A 
ATOM     17  C   UNL     1      -8.684  22.887  23.727  0.00  0.00    +0.005 A 
ATOM     18  C   UNL     1      -9.882  23.655  24.058  0.00  0.00    -0.033 A 
ATOM     28  C   UNL     1     -10.513  23.468  25.354  0.00  0.00    +0.005 A 
ATOM     29  C   UNL     1      -9.991  22.562  26.304  0.00  0.00    +0.013 A 
BRANCH  18  19
ATOM     19  C   UNL     1     -10.510  24.681  23.096  0.00  0.00    +0.119 C 
BRANCH  19  20
ATOM     20  N   UNL     1      -9.981  24.722  21.700  0.00  0.00    -0.302 NA
ATOM     21  C   UNL     1      -9.165  25.989  21.432  0.00  0.00    +0.066 C 
ATOM     22  C   UNL     1      -8.601  26.006  19.974  0.00  0.00    -0.064 C 
ATOM     23  N   UNL     1      -9.758  25.887  18.981  0.00  0.00    +0.379 N 
ATOM     24  C   UNL     1      -9.236  25.960  17.609  0.00  0.00    -0.096 C 
ATOM     25  H   UNL     1     -10.428  26.765  19.136  0.00  0.00    -0.082 HD
ATOM     26  C   UNL     1     -10.577  24.630  19.242  0.00  0.00    -0.064 C 
ATOM     27  C   UNL     1     -11.108  24.610  20.703  0.00  0.00    +0.066 C 
ENDBRANCH  19  20
ENDBRANCH  18  19
ENDBRANCH  14  15
ENDBRANCH  12  13
TORSDOF 6
ENDMDL
MODEL 3
REMARK VINA RESULT:      -7.9      6.005     11.541
REMARK  Name = C:\Users\Docking\Desktop\test protocol\1iep_ligandH.pdb
REMARK  8 active torsions:
REMARK  status: ('A' for Active; 'I' for Inactive)
REMARK    1  A    between atoms: _5  and  _11
REMARK    2  A    between atoms: _19  and  _21
REMARK    3  A    between atoms: _22  and  _66
REMARK    4  A    between atoms: _27  and  _30
REMARK    5  A    between atoms: _32  and  _33
REMARK    6  A    between atoms: _38  and  _43
REMARK    7  A    between atoms: _43  and  _46
REMARK    8  A    between atoms: _53  and  _55
REMARK                            x       y       z     vdW  Elec       q    Type
REMARK                         _______ _______ _______ _____ _____    ______ ____
ROOT
ATOM     10  C   UNL     1      -7.165  16.072  29.585  0.00  0.00    +0.038 A 
ATOM     11  C   UNL     1      -7.637  17.234  28.924  0.00  0.00    +0.047 A 
ATOM     12  C   UNL     1      -6.759  18.029  28.079  0.00  0.00    +0.035 A 
ATOM     32  C   UNL     1      -5.406  17.610  27.929  0.00  0.00    +0.024 A 
ATOM     33  C   UNL     1      -4.908  16.432  28.594  0.00  0.00    +0.007 A 
ATOM     34  C   UNL     1      -5.769  15.645  29.430  0.00  0.00    -0.029 A 
ATOM     35  C   UNL     1      -5.180  14.395  30.124  0.00  0.00    +0.045 C 
ENDROOT
BRANCH  10   9
ATOM      4  C   UNL     1      -9.703  15.458  33.612  0.00  0.00    +0.077 A 
ATOM      5  C   UNL     1      -9.199  16.673  34.185  0.00  0.00    +0.048 A 
ATOM      6  C   UNL     1      -8.284  17.423  33.413  0.00  0.00    +0.116 A 
ATOM      7  N   UNL     1      -7.907  16.982  32.163  0.00  0.00    -0.223 NA
ATOM      8  C   UNL     1      -8.410  15.805  31.641  0.00  0.00    +0.220 A 
ATOM      9  N   UNL     1      -8.051  15.346  30.383  0.00  0.00    -0.283 N 
ATOM     36  H   UNL     1      -8.439  14.469  30.037  0.00  0.00    +0.155 HD
ATOM     37  N   UNL     1      -9.285  15.069  32.359  0.00  0.00    -0.214 NA
BRANCH   4   3
ATOM      1  C   UNL     1     -11.502  12.284  35.022  0.00  0.00    +0.020 A 
ATOM      2  C   UNL     1     -10.530  13.108  34.341  0.00  0.00    +0.013 A 
ATOM      3  C   UNL     1     -10.679  14.557  34.303  0.00  0.00    +0.019 A 
ATOM     38  C   UNL     1     -11.831  15.146  34.969  0.00  0.00    +0.120 A 
ATOM     39  N   UNL     1     -12.752  14.327  35.615  0.00  0.00    -0.263 NA
ATOM     40  C   UNL     1     -12.620  12.931  35.658  0.00  0.00    +0.111 A 
ENDBRANCH   4   3
ENDBRANCH  10   9
BRANCH  12  13
ATOM     13  N   UNL     1      -7.181  19.223  27.390  0.00  0.00    -0.281 N 
ATOM     14  C   UNL     1      -7.446  19.378  26.039  0.00  0.00    +0.248 C 
ATOM     30  O   UNL     1      -7.153  18.560  25.179  0.00  0.00    -0.270 OA
ATOM     31  H   UNL     1      -7.298  20.056  27.968  0.00  0.00    +0.155 HD
BRANCH  14  15
ATOM     15  C   UNL     1      -8.121  20.628  25.574  0.00  0.00    +0.037 A 
ATOM     16  C   UNL     1      -7.626  21.373  24.414  0.00  0.00    +0.013 A 
ATOM     17  C   UNL     1      -8.286  22.585  23.997  0.00  0.00    +0.005 A 
ATOM     18  C   UNL     1      -9.451  23.058  24.740  0.00  0.00    -0.033 A 
ATOM     28  C   UNL     1      -9.925  22.296  25.884  0.00  0.00    +0.005 A 
ATOM     29  C   UNL     1      -9.280  21.109  26.297  0.00  0.00    +0.013 A 
BRANCH  18  19
ATOM     19  C   UNL     1     -10.204  24.352  24.379  0.00  0.00    +0.119 C 
BRANCH  19  20
ATOM     20  N   UNL     1     -11.644  24.435  24.765  0.00  0.00    -0.302 NA
ATOM     21  C   UNL     1     -12.565  23.883  23.673  0.00  0.00    +0.066 C 
ATOM     22  C   UNL     1     -14.066  23.956  24.103  0.00  0.00    -0.064 C 
ATOM     23  N   UNL     1     -14.428  25.405  24.435  0.00  0.00    +0.379 N 
ATOM     24  C   UNL     1     -15.854  25.487  24.784  0.00  0.00    -0.096 C 
ATOM     25  H   UNL     1     -14.269  26.013  23.514  0.00  0.00    -0.082 HD
ATOM     26  C   UNL     1     -13.516  25.963  25.519  0.00  0.00    -0.064 C 
ATOM     27  C   UNL     1     -12.025  25.858  25.094  0.00  0.00    +0.066 C 
ENDBRANCH  19  20
ENDBRANCH  18  19
ENDBRANCH  14  15
ENDBRANCH  12  13
TORSDOF 6
ENDMDL
MODEL 4
REMARK VINA RESULT:      -7.8      8.435     12.635
REMARK  Name = C:\Users\Docking\Desktop\test protocol\1iep_ligandH.pdb
REMARK  8 active torsions:
REMARK  status: ('A' for Active; 'I' for Inactive)
REMARK    1  A    between atoms: _5  and  _11
REMARK    2  A    between atoms: _19  and  _21
REMARK    3  A    between atoms: _22  and  _66
REMARK    4  A    between atoms: _27  and  _30
REMARK    5  A    between atoms: _32  and  _33
REMARK    6  A    between atoms: _38  and  _43
REMARK    7  A    between atoms: _43  and  _46
REMARK    8  A    between atoms: _53  and  _55
REMARK                            x       y       z     vdW  Elec       q    Type
REMARK                         _______ _______ _______ _____ _____    ______ ____
ROOT
ATOM     10  C   UNL     1      -6.869  15.815  29.746  0.00  0.00    +0.038 A 
ATOM     11  C   UNL     1      -7.359  16.740  28.789  0.00  0.00    +0.047 A 
ATOM     12  C   UNL     1      -6.452  17.491  27.935  0.00  0.00    +0.035 A 
ATOM     32  C   UNL     1      -5.051  17.272  28.080  0.00  0.00    +0.024 A 
ATOM     33  C   UNL     1      -4.536  16.336  29.048  0.00  0.00    +0.007 A 
ATOM     34  C   UNL     1      -5.426  15.594  29.895  0.00  0.00    -0.029 A 
ATOM     35  C   UNL     1      -4.817  14.609  30.920  0.00  0.00    +0.045 C 
ENDROOT
BRANCH  10   9
ATOM      4  C   UNL     1      -9.683  15.439  33.616  0.00  0.00    +0.077 A 
ATOM      5  C   UNL     1      -9.273  16.721  34.112  0.00  0.00    +0.048 A 
ATOM      6  C   UNL     1      -8.331  17.442  33.345  0.00  0.00    +0.116 A 
ATOM      7  N   UNL     1      -7.842  16.911  32.171  0.00  0.00    -0.223 NA
ATOM      8  C   UNL     1      -8.258  15.671  31.722  0.00  0.00    +0.220 A 
ATOM      9  N   UNL     1      -7.785  15.121  30.540  0.00  0.00    -0.283 N 
ATOM     36  H   UNL     1      -8.111  14.200  30.247  0.00  0.00    +0.155 HD
ATOM     37  N   UNL     1      -9.155  14.962  32.437  0.00  0.00    -0.214 NA
BRANCH   4   3
ATOM      1  C   UNL     1     -11.523  12.304  35.061  0.00  0.00    +0.020 A 
ATOM      2  C   UNL     1     -10.538  13.108  34.376  0.00  0.00    +0.013 A 
ATOM      3  C   UNL     1     -10.674  14.558  34.312  0.00  0.00    +0.019 A 
ATOM     38  C   UNL     1     -11.827  15.167  34.958  0.00  0.00    +0.120 A 
ATOM     39  N   UNL     1     -12.760  14.367  35.610  0.00  0.00    -0.263 NA
ATOM     40  C   UNL     1     -12.640  12.971  35.676  0.00  0.00    +0.111 A 
ENDBRANCH   4   3
ENDBRANCH  10   9
BRANCH  12  13
ATOM     13  N   UNL     1      -6.891  18.450  26.952  0.00  0.00    -0.281 N 
ATOM     14  C   UNL     1      -7.185  19.790  27.141  0.00  0.00    +0.248 C 
ATOM     30  O   UNL     1      -7.320  20.320  28.234  0.00  0.00    -0.270 OA
ATOM     31  H   UNL     1      -6.998  18.097  26.000  0.00  0.00    +0.155 HD
BRANCH  14  15
ATOM     15  C   UNL     1      -7.369  20.665  25.944  0.00  0.00    +0.037 A 
ATOM     16  C   UNL     1      -8.546  21.526  25.805  0.00  0.00    +0.013 A 
ATOM     17  C   UNL     1      -8.707  22.348  24.632  0.00  0.00    +0.005 A 
ATOM     18  C   UNL     1      -7.686  22.313  23.587  0.00  0.00    -0.033 A 
ATOM     28  C   UNL     1      -6.525  21.454  23.753  0.00  0.00    +0.005 A 
ATOM     29  C   UNL     1      -6.365  20.646  24.901  0.00  0.00    +0.013 A 
BRANCH  18  19
ATOM     19  C   UNL     1      -7.786  23.140  22.292  0.00  0.00    +0.119 C 
BRANCH  19  20
ATOM     20  N   UNL     1      -9.132  23.669  21.921  0.00  0.00    -0.302 NA
ATOM     21  C   UNL     1      -9.645  23.068  20.609  0.00  0.00    +0.066 C 
ATOM     22  C   UNL     1     -11.064  23.615  20.248  0.00  0.00    -0.064 C 
ATOM     23  N   UNL     1     -11.011  25.141  20.159  0.00  0.00    +0.379 N 
ATOM     24  C   UNL     1     -12.330  25.655  19.763  0.00  0.00    -0.096 C 
ATOM     25  H   UNL     1     -10.288  25.409  19.354  0.00  0.00    -0.082 HD
ATOM     26  C   UNL     1     -10.500  25.748  21.459  0.00  0.00    -0.064 C 
ATOM     27  C   UNL     1      -9.102  25.175  21.824  0.00  0.00    +0.066 C 
ENDBRANCH  19  20
ENDBRANCH  18  19
ENDBRANCH  14  15
ENDBRANCH  12  13
TORSDOF 6
ENDMDL
MODEL 5
REMARK VINA RESULT:      -7.8      8.371     15.381
REMARK  Name = C:\Users\Docking\Desktop\test protocol\1iep_ligandH.pdb
REMARK  8 active torsions:
REMARK  status: ('A' for Active; 'I' for Inactive)
REMARK    1  A    between atoms: _5  and  _11
REMARK    2  A    between atoms: _19  and  _21
REMARK    3  A    between atoms: _22  and  _66
REMARK    4  A    between atoms: _27  and  _30
REMARK    5  A    between atoms: _32  and  _33
REMARK    6  A    between atoms: _38  and  _43
REMARK    7  A    between atoms: _43  and  _46
REMARK    8  A    between atoms: _53  and  _55
REMARK                            x       y       z     vdW  Elec       q    Type
REMARK                         _______ _______ _______ _____ _____    ______ ____
ROOT
ATOM     10  C   UNL     1      -7.425  18.245  28.195  0.00  0.00    +0.038 A 
ATOM     11  C   UNL     1      -8.088  17.612  29.277  0.00  0.00    +0.047 A 
ATOM     12  C   UNL     1      -7.633  16.329  29.790  0.00  0.00    +0.035 A 
ATOM     32  C   UNL     1      -6.498  15.721  29.179  0.00  0.00    +0.024 A 
ATOM     33  C   UNL     1      -5.814  16.350  28.077  0.00  0.00    +0.007 A 
ATOM     34  C   UNL     1      -6.259  17.614  27.565  0.00  0.00    -0.029 A 
ATOM     35  C   UNL     1      -5.491  18.240  26.378  0.00  0.00    +0.045 C 
ENDROOT
BRANCH  10   9
ATOM      4  C   UNL     1     -10.258  20.909  25.381  0.00  0.00    +0.077 A 
ATOM      5  C   UNL     1     -10.811  19.751  24.740  0.00  0.00    +0.048 A 
ATOM      6  C   UNL     1     -10.334  18.488  25.158  0.00  0.00    +0.116 A 
ATOM      7  N   UNL     1      -9.376  18.403  26.145  0.00  0.00    -0.223 NA
ATOM      8  C   UNL     1      -8.863  19.540  26.742  0.00  0.00    +0.220 A 
ATOM      9  N   UNL     1      -7.905  19.477  27.742  0.00  0.00    -0.283 N 
ATOM     36  H   UNL     1      -7.546  20.339  28.151  0.00  0.00    +0.155 HD
ATOM     37  N   UNL     1      -9.301  20.757  26.359  0.00  0.00    -0.214 NA
BRANCH   4   3
ATOM      1  C   UNL     1     -11.096  24.719  25.670  0.00  0.00    +0.020 A 
ATOM      2  C   UNL     1     -10.698  23.381  26.042  0.00  0.00    +0.013 A 
ATOM      3  C   UNL     1     -10.662  22.313  25.051  0.00  0.00    +0.019 A 
ATOM     38  C   UNL     1     -11.037  22.635  23.682  0.00  0.00    +0.120 A 
ATOM     39  N   UNL     1     -11.417  23.932  23.354  0.00  0.00    -0.263 NA
ATOM     40  C   UNL     1     -11.457  24.968  24.299  0.00  0.00    +0.111 A 
ENDBRANCH   4   3
ENDBRANCH  10   9
BRANCH  12  13
ATOM     13  N   UNL     1      -8.271  15.635  30.882  0.00  0.00    -0.281 N 
ATOM     14  C   UNL     1      -7.939  15.674  32.226  0.00  0.00    +0.248 C 
ATOM     30  O   UNL     1      -6.903  16.149  32.669  0.00  0.00    -0.270 OA
ATOM     31  H   UNL     1      -9.063  15.042  30.633  0.00  0.00    +0.155 HD
BRANCH  14  15
ATOM     15  C   UNL     1      -8.887  15.088  33.221  0.00  0.00    +0.037 A 
ATOM     16  C   UNL     1      -9.414  13.731  33.061  0.00  0.00    +0.013 A 
ATOM     17  C   UNL     1     -10.341  13.196  34.027  0.00  0.00    +0.005 A 
ATOM     18  C   UNL     1     -10.746  14.020  35.163  0.00  0.00    -0.033 A 
ATOM     28  C   UNL     1     -10.204  15.362  35.301  0.00  0.00    +0.005 A 
ATOM     29  C   UNL     1      -9.296  15.889  34.355  0.00  0.00    +0.013 A 
BRANCH  18  19
ATOM     19  C   UNL     1     -11.747  13.539  36.231  0.00  0.00    +0.119 C 
BRANCH  19  20
ATOM     20  N   UNL     1     -11.487  12.212  36.863  0.00  0.00    -0.302 NA
ATOM     21  C   UNL     1     -12.360  11.107  36.261  0.00  0.00    +0.066 C 
ATOM     22  C   UNL     1     -12.059   9.721  36.919  0.00  0.00    -0.064 C 
ATOM     23  N   UNL     1     -12.274   9.819  38.430  0.00  0.00    +0.379 N 
ATOM     24  C   UNL     1     -12.048   8.503  39.044  0.00  0.00    -0.096 C 
ATOM     25  H   UNL     1     -13.341  10.094  38.602  0.00  0.00    -0.082 HD
ATOM     26  C   UNL     1     -11.412  10.917  39.036  0.00  0.00    -0.064 C 
ATOM     27  C   UNL     1     -11.698  12.284  38.356  0.00  0.00    +0.066 C 
ENDBRANCH  19  20
ENDBRANCH  18  19
ENDBRANCH  14  15
ENDBRANCH  12  13
TORSDOF 6
ENDMDL
