MODEL 1
REMARK VINA RESULT:      -9.2      0.000      0.000
REMARK  Name = C:\Users\Docking\Desktop\test protocol\1iep_ligandH.pdb
REMARK  8 active torsions:
REMARK  status: ('A' for Active; 'I' for Inactive)
REMARK    1  A    between atoms: _5  and  _11
REMARK    2  A    between atoms: _19  and  _21
REMARK    3  A    between atoms: _22  and  _66
REMARK    4  A    between atoms: _27  and  _30
REMARK    5  A    between atoms: _32  and  _33
REMARK    6  A    between atoms: _38  and  _43
REMARK    7  A    between atoms: _43  and  _46
REMARK    8  A    between atoms: _53  and  _55
REMARK                            x       y       z     vdW  Elec       q    Type
REMARK                         _______ _______ _______ _____ _____    ______ ____
ROOT
ATOM     10  C   UNL     1      74.777  53.320  19.714  0.00  0.00    +0.038 A 
ATOM     11  C   UNL     1      74.442  53.785  21.012  0.00  0.00    +0.047 A 
ATOM     12  C   UNL     1      75.402  54.523  21.817  0.00  0.00    +0.035 A 
ATOM     32  C   UNL     1      76.694  54.773  21.269  0.00  0.00    +0.024 A 
ATOM     33  C   UNL     1      77.052  54.307  19.952  0.00  0.00    +0.007 A 
ATOM     34  C   UNL     1      76.109  53.576  19.154  0.00  0.00    -0.029 A 
ATOM     35  C   UNL     1      76.549  53.095  17.752  0.00  0.00    +0.045 C 
ENDROOT
BRANCH  10   9
ATOM      4  C   UNL     1      70.611  53.065  17.344  0.00  0.00    +0.077 A 
ATOM      5  C   UNL     1      70.310  54.443  17.604  0.00  0.00    +0.048 A 
ATOM      6  C   UNL     1      71.250  55.181  18.358  0.00  0.00    +0.116 A 
ATOM      7  N   UNL     1      72.402  54.576  18.812  0.00  0.00    -0.223 NA
ATOM      8  C   UNL     1      72.661  53.244  18.544  0.00  0.00    +0.220 A 
ATOM      9  N   UNL     1      73.816  52.617  18.984  0.00  0.00    -0.283 N 
ATOM     36  H   UNL     1      73.967  51.631  18.772  0.00  0.00    +0.155 HD
ATOM     37  N   UNL     1      71.778  52.517  17.828  0.00  0.00    -0.214 NA
BRANCH   4   3
ATOM      1  C   UNL     1      68.372  51.567  14.508  0.00  0.00    +0.020 A 
ATOM      2  C   UNL     1      69.232  52.481  15.224  0.00  0.00    +0.013 A 
ATOM      3  C   UNL     1      69.718  52.155  16.559  0.00  0.00    +0.019 A 
ATOM     38  C   UNL     1      69.313  50.887  17.145  0.00  0.00    +0.120 A 
ATOM     39  N   UNL     1      68.483  50.027  16.433  0.00  0.00    -0.263 NA
ATOM     40  C   UNL     1      68.007  50.330  15.148  0.00  0.00    +0.111 A 
ENDBRANCH   4   3
ENDBRANCH  10   9
BRANCH  12  13
ATOM     13  N   UNL     1      75.122  55.013  23.144  0.00  0.00    -0.281 N 
ATOM     14  C   UNL     1      74.046  55.782  23.559  0.00  0.00    +0.248 C 
ATOM     30  O   UNL     1      73.269  56.347  22.804  0.00  0.00    -0.270 OA
ATOM     31  H   UNL     1      75.798  54.763  23.866  0.00  0.00    +0.155 HD
BRANCH  14  15
ATOM     15  C   UNL     1      73.808  55.960  25.024  0.00  0.00    +0.037 A 
ATOM     16  C   UNL     1      73.278  57.216  25.560  0.00  0.00    +0.013 A 
ATOM     17  C   UNL     1      73.074  57.367  26.979  0.00  0.00    +0.005 A 
ATOM     18  C   UNL     1      73.399  56.257  27.872  0.00  0.00    -0.033 A 
ATOM     28  C   UNL     1      73.918  55.020  27.312  0.00  0.00    +0.005 A 
ATOM     29  C   UNL     1      74.121  54.869  25.922  0.00  0.00    +0.013 A 
BRANCH  18  19
ATOM     19  C   UNL     1      73.232  56.337  29.401  0.00  0.00    +0.119 C 
BRANCH  19  20
ATOM     20  N   UNL     1      72.251  57.331  29.931  0.00  0.00    -0.302 NA
ATOM     21  C   UNL     1      72.730  57.970  31.237  0.00  0.00    +0.066 C 
ATOM     22  C   UNL     1      71.702  59.023  31.766  0.00  0.00    -0.064 C 
ATOM     23  N   UNL     1      70.341  58.352  31.957  0.00  0.00    +0.379 N 
ATOM     24  C   UNL     1      69.388  59.325  32.509  0.00  0.00    -0.096 C 
ATOM     25  H   UNL     1      70.468  57.539  32.710  0.00  0.00    -0.082 HD
ATOM     26  C   UNL     1      69.859  57.712  30.663  0.00  0.00    -0.064 C 
ATOM     27  C   UNL     1      70.901  56.688  30.131  0.00  0.00    +0.066 C 
ENDBRANCH  19  20
ENDBRANCH  18  19
ENDBRANCH  14  15
ENDBRANCH  12  13
TORSDOF 6
ENDMDL
MODEL 2
REMARK VINA RESULT:      -9.2     26.727     31.446
REMARK  Name = C:\Users\Docking\Desktop\test protocol\1iep_ligandH.pdb
REMARK  8 active torsions:
REMARK  status: ('A' for Active; 'I' for Inactive)
REMARK    1  A    between atoms: _5  and  _11
REMARK    2  A    between atoms: _19  and  _21
REMARK    3  A    between atoms: _22  and  _66
REMARK    4  A    between atoms: _27  and  _30
REMARK    5  A    between atoms: _32  and  _33
REMARK    6  A    between atoms: _38  and  _43
REMARK    7  A    between atoms: _43  and  _46
REMARK    8  A    between atoms: _53  and  _55
REMARK                            x       y       z     vdW  Elec       q    Type
REMARK                         _______ _______ _______ _____ _____    ______ ____
ROOT
ATOM     10  C   UNL     1      70.868  39.674  -0.749  0.00  0.00    +0.038 A 
ATOM     11  C   UNL     1      71.071  40.690  -1.717  0.00  0.00    +0.047 A 
ATOM     12  C   UNL     1      71.156  42.090  -1.332  0.00  0.00    +0.035 A 
ATOM     32  C   UNL     1      71.034  42.419   0.050  0.00  0.00    +0.024 A 
ATOM     33  C   UNL     1      70.827  41.398   1.047  0.00  0.00    +0.007 A 
ATOM     34  C   UNL     1      70.739  40.016   0.672  0.00  0.00    -0.029 A 
ATOM     35  C   UNL     1      70.510  38.965   1.783  0.00  0.00    +0.045 C 
ENDROOT
BRANCH  10   9
ATOM      4  C   UNL     1      68.407  35.866  -2.326  0.00  0.00    +0.077 A 
ATOM      5  C   UNL     1      67.161  36.574  -2.270  0.00  0.00    +0.048 A 
ATOM      6  C   UNL     1      67.195  37.914  -1.823  0.00  0.00    +0.116 A 
ATOM      7  N   UNL     1      68.393  38.493  -1.462  0.00  0.00    -0.223 NA
ATOM      8  C   UNL     1      69.577  37.781  -1.526  0.00  0.00    +0.220 A 
ATOM      9  N   UNL     1      70.793  38.346  -1.176  0.00  0.00    -0.283 N 
ATOM     36  H   UNL     1      71.644  37.785  -1.230  0.00  0.00    +0.155 HD
ATOM     37  N   UNL     1      69.570  36.500  -1.948  0.00  0.00    -0.214 NA
BRANCH   4   3
ATOM      1  C   UNL     1      69.889  32.419  -3.432  0.00  0.00    +0.020 A 
ATOM      2  C   UNL     1      69.821  33.794  -2.994  0.00  0.00    +0.013 A 
ATOM      3  C   UNL     1      68.535  34.445  -2.780  0.00  0.00    +0.019 A 
ATOM     38  C   UNL     1      67.326  33.670  -3.019  0.00  0.00    +0.120 A 
ATOM     39  N   UNL     1      67.422  32.348  -3.442  0.00  0.00    -0.263 NA
ATOM     40  C   UNL     1      68.655  31.712  -3.653  0.00  0.00    +0.111 A 
ENDBRANCH   4   3
ENDBRANCH  10   9
BRANCH  12  13
ATOM     13  N   UNL     1      71.353  43.167  -2.271  0.00  0.00    -0.281 N 
ATOM     14  C   UNL     1      72.528  43.841  -2.560  0.00  0.00    +0.248 C 
ATOM     30  O   UNL     1      73.551  43.763  -1.896  0.00  0.00    -0.270 OA
ATOM     31  H   UNL     1      70.525  43.468  -2.785  0.00  0.00    +0.155 HD
BRANCH  14  15
ATOM     15  C   UNL     1      72.569  44.743  -3.751  0.00  0.00    +0.037 A 
ATOM     16  C   UNL     1      73.418  45.937  -3.771  0.00  0.00    +0.013 A 
ATOM     17  C   UNL     1      73.425  46.799  -4.926  0.00  0.00    +0.005 A 
ATOM     18  C   UNL     1      72.581  46.470  -6.071  0.00  0.00    -0.033 A 
ATOM     28  C   UNL     1      71.752  45.277  -6.027  0.00  0.00    +0.005 A 
ATOM     29  C   UNL     1      71.741  44.429  -4.896  0.00  0.00    +0.013 A 
BRANCH  18  19
ATOM     19  C   UNL     1      72.510  47.345  -7.337  0.00  0.00    +0.119 C 
BRANCH  19  20
ATOM     20  N   UNL     1      71.770  46.791  -8.510  0.00  0.00    -0.302 NA
ATOM     21  C   UNL     1      72.704  46.482  -9.684  0.00  0.00    +0.066 C 
ATOM     22  C   UNL     1      71.917  45.883 -10.895  0.00  0.00    -0.064 C 
ATOM     23  N   UNL     1      70.818  46.859 -11.319  0.00  0.00    +0.379 N 
ATOM     24  C   UNL     1      70.113  46.324 -12.493  0.00  0.00    -0.096 C 
ATOM     25  H   UNL     1      71.311  47.811 -11.624  0.00  0.00    -0.082 HD
ATOM     26  C   UNL     1      69.887  47.173 -10.157  0.00  0.00    -0.064 C 
ATOM     27  C   UNL     1      70.683  47.741  -8.948  0.00  0.00    +0.066 C 
ENDBRANCH  19  20
ENDBRANCH  18  19
ENDBRANCH  14  15
ENDBRANCH  12  13
TORSDOF 6
ENDMDL
MODEL 3
REMARK VINA RESULT:      -9.2     25.743     29.236
REMARK  Name = C:\Users\Docking\Desktop\test protocol\1iep_ligandH.pdb
REMARK  8 active torsions:
REMARK  status: ('A' for Active; 'I' for Inactive)
REMARK    1  A    between atoms: _5  and  _11
REMARK    2  A    between atoms: _19  and  _21
REMARK    3  A    between atoms: _22  and  _66
REMARK    4  A    between atoms: _27  and  _30
REMARK    5  A    between atoms: _32  and  _33
REMARK    6  A    between atoms: _38  and  _43
REMARK    7  A    between atoms: _43  and  _46
REMARK    8  A    between atoms: _53  and  _55
REMARK                            x       y       z     vdW  Elec       q    Type
REMARK                         _______ _______ _______ _____ _____    ______ ____
ROOT
ATOM     10  C   UNL     1      67.987  39.978   0.726  0.00  0.00    +0.038 A 
ATOM     11  C   UNL     1      67.443  41.195   0.242  0.00  0.00    +0.047 A 
ATOM     12  C   UNL     1      67.991  42.479   0.651  0.00  0.00    +0.035 A 
ATOM     32  C   UNL     1      69.094  42.486   1.553  0.00  0.00    +0.024 A 
ATOM     33  C   UNL     1      69.659  41.258   2.056  0.00  0.00    +0.007 A 
ATOM     34  C   UNL     1      69.121  39.989   1.658  0.00  0.00    -0.029 A 
ATOM     35  C   UNL     1      69.762  38.705   2.233  0.00  0.00    +0.045 C 
ENDROOT
BRANCH  10   9
ATOM      4  C   UNL     1      67.927  36.095  -2.096  0.00  0.00    +0.077 A 
ATOM      5  C   UNL     1      69.105  36.515  -2.798  0.00  0.00    +0.048 A 
ATOM      6  C   UNL     1      69.692  37.740  -2.408  0.00  0.00    +0.116 A 
ATOM      7  N   UNL     1      69.134  38.481  -1.389  0.00  0.00    -0.223 NA
ATOM      8  C   UNL     1      67.996  38.048  -0.733  0.00  0.00    +0.220 A 
ATOM      9  N   UNL     1      67.422  38.773   0.300  0.00  0.00    -0.283 N 
ATOM     36  H   UNL     1      66.579  38.424   0.754  0.00  0.00    +0.155 HD
ATOM     37  N   UNL     1      67.416  36.883  -1.088  0.00  0.00    -0.214 NA
BRANCH   4   3
ATOM      1  C   UNL     1      65.096  33.428  -2.509  0.00  0.00    +0.020 A 
ATOM      2  C   UNL     1      65.755  34.678  -2.209  0.00  0.00    +0.013 A 
ATOM      3  C   UNL     1      67.194  34.823  -2.390  0.00  0.00    +0.019 A 
ATOM     38  C   UNL     1      67.942  33.676  -2.881  0.00  0.00    +0.120 A 
ATOM     39  N   UNL     1      67.280  32.484  -3.160  0.00  0.00    -0.263 NA
ATOM     40  C   UNL     1      65.896  32.332  -2.988  0.00  0.00    +0.111 A 
ENDBRANCH   4   3
ENDBRANCH  10   9
BRANCH  12  13
ATOM     13  N   UNL     1      67.475  43.747   0.199  0.00  0.00    -0.281 N 
ATOM     14  C   UNL     1      67.494  44.265  -1.086  0.00  0.00    +0.248 C 
ATOM     30  O   UNL     1      68.152  43.805  -2.007  0.00  0.00    -0.270 OA
ATOM     31  H   UNL     1      67.044  44.335   0.913  0.00  0.00    +0.155 HD
BRANCH  14  15
ATOM     15  C   UNL     1      66.675  45.478  -1.388  0.00  0.00    +0.037 A 
ATOM     16  C   UNL     1      67.082  46.432  -2.423  0.00  0.00    +0.013 A 
ATOM     17  C   UNL     1      66.282  47.603  -2.682  0.00  0.00    +0.005 A 
ATOM     18  C   UNL     1      65.066  47.826  -1.904  0.00  0.00    -0.033 A 
ATOM     28  C   UNL     1      64.683  46.861  -0.887  0.00  0.00    +0.005 A 
ATOM     29  C   UNL     1      65.465  45.713  -0.630  0.00  0.00    +0.013 A 
BRANCH  18  19
ATOM     19  C   UNL     1      64.163  49.059  -2.099  0.00  0.00    +0.119 C 
BRANCH  19  20
ATOM     20  N   UNL     1      62.919  48.875  -2.904  0.00  0.00    -0.302 NA
ATOM     21  C   UNL     1      61.721  48.494  -2.031  0.00  0.00    +0.066 C 
ATOM     22  C   UNL     1      60.423  48.328  -2.888  0.00  0.00    -0.064 C 
ATOM     23  N   UNL     1      60.661  47.275  -3.971  0.00  0.00    +0.379 N 
ATOM     24  C   UNL     1      59.425  47.075  -4.741  0.00  0.00    -0.096 C 
ATOM     25  H   UNL     1      60.901  46.313  -3.460  0.00  0.00    -0.082 HD
ATOM     26  C   UNL     1      61.853  47.645  -4.842  0.00  0.00    -0.064 C 
ATOM     27  C   UNL     1      63.131  47.836  -3.978  0.00  0.00    +0.066 C 
ENDBRANCH  19  20
ENDBRANCH  18  19
ENDBRANCH  14  15
ENDBRANCH  12  13
TORSDOF 6
ENDMDL
MODEL 4
REMARK VINA RESULT:      -9.1      1.920      2.696
REMARK  Name = C:\Users\Docking\Desktop\test protocol\1iep_ligandH.pdb
REMARK  8 active torsions:
REMARK  status: ('A' for Active; 'I' for Inactive)
REMARK    1  A    between atoms: _5  and  _11
REMARK    2  A    between atoms: _19  and  _21
REMARK    3  A    between atoms: _22  and  _66
REMARK    4  A    between atoms: _27  and  _30
REMARK    5  A    between atoms: _32  and  _33
REMARK    6  A    between atoms: _38  and  _43
REMARK    7  A    between atoms: _43  and  _46
REMARK    8  A    between atoms: _53  and  _55
REMARK                            x       y       z     vdW  Elec       q    Type
REMARK                         _______ _______ _______ _____ _____    ______ ____
ROOT
ATOM     10  C   UNL     1      74.416  52.882  18.963  0.00  0.00    +0.038 A 
ATOM     11  C   UNL     1      74.140  53.335  20.279  0.00  0.00    +0.047 A 
ATOM     12  C   UNL     1      75.132  54.075  21.043  0.00  0.00    +0.035 A 
ATOM     32  C   UNL     1      76.394  54.339  20.435  0.00  0.00    +0.024 A 
ATOM     33  C   UNL     1      76.691  53.885  19.099  0.00  0.00    +0.007 A 
ATOM     34  C   UNL     1      75.717  53.152  18.342  0.00  0.00    -0.029 A 
ATOM     35  C   UNL     1      76.093  52.685  16.916  0.00  0.00    +0.045 C 
ENDROOT
BRANCH  10   9
ATOM      4  C   UNL     1      70.081  52.567  16.926  0.00  0.00    +0.077 A 
ATOM      5  C   UNL     1      69.748  53.915  17.287  0.00  0.00    +0.048 A 
ATOM      6  C   UNL     1      70.718  54.653  18.002  0.00  0.00    +0.116 A 
ATOM      7  N   UNL     1      71.926  54.076  18.327  0.00  0.00    -0.223 NA
ATOM      8  C   UNL     1      72.214  52.773  17.966  0.00  0.00    +0.220 A 
ATOM      9  N   UNL     1      73.426  52.175  18.275  0.00  0.00    -0.283 N 
ATOM     36  H   UNL     1      73.598  51.209  17.997  0.00  0.00    +0.155 HD
ATOM     37  N   UNL     1      71.305  52.047  17.283  0.00  0.00    -0.214 NA
BRANCH   4   3
ATOM      1  C   UNL     1      67.556  49.722  16.014  0.00  0.00    +0.020 A 
ATOM      2  C   UNL     1      68.430  50.568  16.794  0.00  0.00    +0.013 A 
ATOM      3  C   UNL     1      69.163  51.661  16.166  0.00  0.00    +0.019 A 
ATOM     38  C   UNL     1      68.987  51.873  14.737  0.00  0.00    +0.120 A 
ATOM     39  N   UNL     1      68.139  51.041  14.012  0.00  0.00    -0.263 NA
ATOM     40  C   UNL     1      67.430  49.985  14.605  0.00  0.00    +0.111 A 
ENDBRANCH   4   3
ENDBRANCH  10   9
BRANCH  12  13
ATOM     13  N   UNL     1      74.912  54.553  22.385  0.00  0.00    -0.281 N 
ATOM     14  C   UNL     1      74.053  55.557  22.802  0.00  0.00    +0.248 C 
ATOM     30  O   UNL     1      73.498  56.347  22.052  0.00  0.00    -0.270 OA
ATOM     31  H   UNL     1      75.455  54.096  23.118  0.00  0.00    +0.155 HD
BRANCH  14  15
ATOM     15  C   UNL     1      73.784  55.717  24.263  0.00  0.00    +0.037 A 
ATOM     16  C   UNL     1      73.312  56.990  24.814  0.00  0.00    +0.013 A 
ATOM     17  C   UNL     1      73.077  57.122  26.230  0.00  0.00    +0.005 A 
ATOM     18  C   UNL     1      73.311  55.976  27.105  0.00  0.00    -0.033 A 
ATOM     28  C   UNL     1      73.774  54.723  26.531  0.00  0.00    +0.005 A 
ATOM     29  C   UNL     1      74.007  54.591  25.144  0.00  0.00    +0.013 A 
BRANCH  18  19
ATOM     19  C   UNL     1      73.106  56.033  28.631  0.00  0.00    +0.119 C 
BRANCH  19  20
ATOM     20  N   UNL     1      74.219  56.600  29.449  0.00  0.00    -0.302 NA
ATOM     21  C   UNL     1      74.306  58.124  29.322  0.00  0.00    +0.066 C 
ATOM     22  C   UNL     1      75.461  58.703  30.203  0.00  0.00    -0.064 C 
ATOM     23  N   UNL     1      76.784  58.049  29.799  0.00  0.00    +0.379 N 
ATOM     24  C   UNL     1      77.880  58.633  30.586  0.00  0.00    -0.096 C 
ATOM     25  H   UNL     1      76.968  58.293  28.727  0.00  0.00    -0.082 HD
ATOM     26  C   UNL     1      76.704  56.533  29.921  0.00  0.00    -0.064 C 
ATOM     27  C   UNL     1      75.535  55.971  29.065  0.00  0.00    +0.066 C 
ENDBRANCH  19  20
ENDBRANCH  18  19
ENDBRANCH  14  15
ENDBRANCH  12  13
TORSDOF 6
ENDMDL
MODEL 5
REMARK VINA RESULT:      -9.0      2.779      3.860
REMARK  Name = C:\Users\Docking\Desktop\test protocol\1iep_ligandH.pdb
REMARK  8 active torsions:
REMARK  status: ('A' for Active; 'I' for Inactive)
REMARK    1  A    between atoms: _5  and  _11
REMARK    2  A    between atoms: _19  and  _21
REMARK    3  A    between atoms: _22  and  _66
REMARK    4  A    between atoms: _27  and  _30
REMARK    5  A    between atoms: _32  and  _33
REMARK    6  A    between atoms: _38  and  _43
REMARK    7  A    between atoms: _43  and  _46
REMARK    8  A    between atoms: _53  and  _55
REMARK                            x       y       z     vdW  Elec       q    Type
REMARK                         _______ _______ _______ _____ _____    ______ ____
ROOT
ATOM     10  C   UNL     1      73.635  52.737  17.871  0.00  0.00    +0.038 A 
ATOM     11  C   UNL     1      73.409  53.051  19.236  0.00  0.00    +0.047 A 
ATOM     12  C   UNL     1      74.436  53.696  20.039  0.00  0.00    +0.035 A 
ATOM     32  C   UNL     1      75.681  54.009  19.420  0.00  0.00    +0.024 A 
ATOM     33  C   UNL     1      75.928  53.696  18.035  0.00  0.00    +0.007 A 
ATOM     34  C   UNL     1      74.920  53.058  17.238  0.00  0.00    -0.029 A 
ATOM     35  C   UNL     1      75.242  52.739  15.759  0.00  0.00    +0.045 C 
ENDROOT
BRANCH  10   9
ATOM      4  C   UNL     1      69.180  52.621  16.090  0.00  0.00    +0.077 A 
ATOM      5  C   UNL     1      68.849  53.889  16.675  0.00  0.00    +0.048 A 
ATOM      6  C   UNL     1      69.852  54.535  17.433  0.00  0.00    +0.116 A 
ATOM      7  N   UNL     1      71.089  53.947  17.587  0.00  0.00    -0.223 NA
ATOM      8  C   UNL     1      71.374  52.723  17.011  0.00  0.00    +0.220 A 
ATOM      9  N   UNL     1      72.614  52.118  17.146  0.00  0.00    -0.283 N 
ATOM     36  H   UNL     1      72.783  51.211  16.712  0.00  0.00    +0.155 HD
ATOM     37  N   UNL     1      70.433  52.086  16.284  0.00  0.00    -0.214 NA
BRANCH   4   3
ATOM      1  C   UNL     1      67.707  50.060  13.527  0.00  0.00    +0.020 A 
ATOM      2  C   UNL     1      68.668  50.808  14.304  0.00  0.00    +0.013 A 
ATOM      3  C   UNL     1      68.228  51.818  15.259  0.00  0.00    +0.019 A 
ATOM     38  C   UNL     1      66.798  52.047  15.405  0.00  0.00    +0.120 A 
ATOM     39  N   UNL     1      65.897  51.312  14.641  0.00  0.00    -0.263 NA
ATOM     40  C   UNL     1      66.308  50.339  13.718  0.00  0.00    +0.111 A 
ENDBRANCH   4   3
ENDBRANCH  10   9
BRANCH  12  13
ATOM     13  N   UNL     1      74.267  54.032  21.431  0.00  0.00    -0.281 N 
ATOM     14  C   UNL     1      73.229  54.739  22.017  0.00  0.00    +0.248 C 
ATOM     30  O   UNL     1      72.391  55.377  21.397  0.00  0.00    -0.270 OA
ATOM     31  H   UNL     1      75.001  53.710  22.062  0.00  0.00    +0.155 HD
BRANCH  14  15
ATOM     15  C   UNL     1      73.113  54.750  23.507  0.00  0.00    +0.037 A 
ATOM     16  C   UNL     1      74.299  54.860  24.360  0.00  0.00    +0.013 A 
ATOM     17  C   UNL     1      74.161  54.851  25.795  0.00  0.00    +0.005 A 
ATOM     18  C   UNL     1      72.830  54.733  26.386  0.00  0.00    -0.033 A 
ATOM     28  C   UNL     1      71.670  54.630  25.516  0.00  0.00    +0.005 A 
ATOM     29  C   UNL     1      71.802  54.637  24.109  0.00  0.00    +0.013 A 
BRANCH  18  19
ATOM     19  C   UNL     1      72.591  54.694  27.907  0.00  0.00    +0.119 C 
BRANCH  19  20
ATOM     20  N   UNL     1      72.401  53.352  28.535  0.00  0.00    -0.302 NA
ATOM     21  C   UNL     1      73.113  52.246  27.752  0.00  0.00    +0.066 C 
ATOM     22  C   UNL     1      72.924  50.852  28.435  0.00  0.00    -0.064 C 
ATOM     23  N   UNL     1      71.430  50.549  28.564  0.00  0.00    +0.379 N 
ATOM     24  C   UNL     1      71.249  49.215  29.153  0.00  0.00    -0.096 C 
ATOM     25  H   UNL     1      71.000  50.527  27.535  0.00  0.00    -0.082 HD
ATOM     26  C   UNL     1      70.714  51.646  29.339  0.00  0.00    -0.064 C 
ATOM     27  C   UNL     1      70.933  53.031  28.668  0.00  0.00    +0.066 C 
ENDBRANCH  19  20
ENDBRANCH  18  19
ENDBRANCH  14  15
ENDBRANCH  12  13
TORSDOF 6
ENDMDL
