MODEL 1
REMARK VINA RESULT:      -8.6      0.000      0.000
REMARK  Name = C:\Users\Docking\Desktop\test protocol\1iep_ligandH.pdb
REMARK  8 active torsions:
REMARK  status: ('A' for Active; 'I' for Inactive)
REMARK    1  A    between atoms: _5  and  _11
REMARK    2  A    between atoms: _19  and  _21
REMARK    3  A    between atoms: _22  and  _66
REMARK    4  A    between atoms: _27  and  _30
REMARK    5  A    between atoms: _32  and  _33
REMARK    6  A    between atoms: _38  and  _43
REMARK    7  A    between atoms: _43  and  _46
REMARK    8  A    between atoms: _53  and  _55
REMARK                            x       y       z     vdW  Elec       q    Type
REMARK                         _______ _______ _______ _____ _____    ______ ____
ROOT
ATOM     10  C   UNL     1      37.264 -14.215  30.791  0.00  0.00    +0.038 A 
ATOM     11  C   UNL     1      36.207 -14.816  30.061  0.00  0.00    +0.047 A 
ATOM     12  C   UNL     1      35.845 -14.344  28.734  0.00  0.00    +0.035 A 
ATOM     32  C   UNL     1      36.581 -13.257  28.179  0.00  0.00    +0.024 A 
ATOM     33  C   UNL     1      37.658 -12.633  28.907  0.00  0.00    +0.007 A 
ATOM     34  C   UNL     1      38.019 -13.093  30.218  0.00  0.00    -0.029 A 
ATOM     35  C   UNL     1      39.178 -12.382  30.955  0.00  0.00    +0.045 C 
ENDROOT
BRANCH  10   9
ATOM      4  C   UNL     1      37.184 -13.917  35.581  0.00  0.00    +0.077 A 
ATOM      5  C   UNL     1      36.498 -12.657  35.550  0.00  0.00    +0.048 A 
ATOM      6  C   UNL     1      36.190 -12.117  34.281  0.00  0.00    +0.116 A 
ATOM      7  N   UNL     1      36.547 -12.794  33.135  0.00  0.00    -0.223 NA
ATOM      8  C   UNL     1      37.209 -14.006  33.200  0.00  0.00    +0.220 A 
ATOM      9  N   UNL     1      37.570 -14.709  32.061  0.00  0.00    -0.283 N 
ATOM     36  H   UNL     1      38.065 -15.596  32.151  0.00  0.00    +0.155 HD
ATOM     37  N   UNL     1      37.516 -14.543  34.400  0.00  0.00    -0.214 NA
BRANCH   4   3
ATOM      1  C   UNL     1      37.769 -14.757  39.356  0.00  0.00    +0.020 A 
ATOM      2  C   UNL     1      37.374 -14.038  38.167  0.00  0.00    +0.013 A 
ATOM      3  C   UNL     1      37.575 -14.618  36.845  0.00  0.00    +0.019 A 
ATOM     38  C   UNL     1      38.182 -15.937  36.760  0.00  0.00    +0.120 A 
ATOM     39  N   UNL     1      38.554 -16.606  37.922  0.00  0.00    -0.263 NA
ATOM     40  C   UNL     1      38.367 -16.057  39.200  0.00  0.00    +0.111 A 
ENDBRANCH   4   3
ENDBRANCH  10   9
BRANCH  12  13
ATOM     13  N   UNL     1      34.776 -14.910  27.950  0.00  0.00    -0.281 N 
ATOM     14  C   UNL     1      34.751 -16.134  27.302  0.00  0.00    +0.248 C 
ATOM     30  O   UNL     1      35.732 -16.840  27.121  0.00  0.00    -0.270 OA
ATOM     31  H   UNL     1      33.935 -14.339  27.861  0.00  0.00    +0.155 HD
BRANCH  14  15
ATOM     15  C   UNL     1      33.452 -16.641  26.765  0.00  0.00    +0.037 A 
ATOM     16  C   UNL     1      33.130 -16.546  25.338  0.00  0.00    +0.013 A 
ATOM     17  C   UNL     1      31.863 -17.027  24.849  0.00  0.00    +0.005 A 
ATOM     18  C   UNL     1      30.907 -17.609  25.788  0.00  0.00    -0.033 A 
ATOM     28  C   UNL     1      31.253 -17.696  27.197  0.00  0.00    +0.005 A 
ATOM     29  C   UNL     1      32.495 -17.224  27.680  0.00  0.00    +0.013 A 
BRANCH  18  19
ATOM     19  C   UNL     1      29.522 -18.129  25.358  0.00  0.00    +0.119 C 
BRANCH  19  20
ATOM     20  N   UNL     1      28.449 -18.157  26.397  0.00  0.00    -0.302 NA
ATOM     21  C   UNL     1      28.206 -19.570  26.933  0.00  0.00    +0.066 C 
ATOM     22  C   UNL     1      27.097 -19.578  28.035  0.00  0.00    -0.064 C 
ATOM     23  N   UNL     1      25.808 -18.987  27.461  0.00  0.00    +0.379 N 
ATOM     24  C   UNL     1      24.746 -19.046  28.476  0.00  0.00    -0.096 C 
ATOM     25  H   UNL     1      25.494 -19.629  26.605  0.00  0.00    -0.082 HD
ATOM     26  C   UNL     1      26.041 -17.583  26.922  0.00  0.00    -0.064 C 
ATOM     27  C   UNL     1      27.166 -17.582  25.850  0.00  0.00    +0.066 C 
ENDBRANCH  19  20
ENDBRANCH  18  19
ENDBRANCH  14  15
ENDBRANCH  12  13
TORSDOF 6
ENDMDL
MODEL 2
REMARK VINA RESULT:      -8.4      1.135      1.469
REMARK  Name = C:\Users\Docking\Desktop\test protocol\1iep_ligandH.pdb
REMARK  8 active torsions:
REMARK  status: ('A' for Active; 'I' for Inactive)
REMARK    1  A    between atoms: _5  and  _11
REMARK    2  A    between atoms: _19  and  _21
REMARK    3  A    between atoms: _22  and  _66
REMARK    4  A    between atoms: _27  and  _30
REMARK    5  A    between atoms: _32  and  _33
REMARK    6  A    between atoms: _38  and  _43
REMARK    7  A    between atoms: _43  and  _46
REMARK    8  A    between atoms: _53  and  _55
REMARK                            x       y       z     vdW  Elec       q    Type
REMARK                         _______ _______ _______ _____ _____    ______ ____
ROOT
ATOM     10  C   UNL     1      37.610 -15.205  31.549  0.00  0.00    +0.038 A 
ATOM     11  C   UNL     1      36.418 -15.492  30.836  0.00  0.00    +0.047 A 
ATOM     12  C   UNL     1      36.363 -15.380  29.387  0.00  0.00    +0.035 A 
ATOM     32  C   UNL     1      37.542 -14.976  28.695  0.00  0.00    +0.024 A 
ATOM     33  C   UNL     1      38.761 -14.679  29.404  0.00  0.00    +0.007 A 
ATOM     34  C   UNL     1      38.821 -14.785  30.834  0.00  0.00    -0.029 A 
ATOM     35  C   UNL     1      40.154 -14.448  31.543  0.00  0.00    +0.045 C 
ENDROOT
BRANCH  10   9
ATOM      4  C   UNL     1      36.793 -13.474  35.951  0.00  0.00    +0.077 A 
ATOM      5  C   UNL     1      36.362 -12.206  35.436  0.00  0.00    +0.048 A 
ATOM      6  C   UNL     1      36.372 -12.038  34.034  0.00  0.00    +0.116 A 
ATOM      7  N   UNL     1      36.784 -13.067  33.216  0.00  0.00    -0.223 NA
ATOM      8  C   UNL     1      37.196 -14.277  33.745  0.00  0.00    +0.220 A 
ATOM      9  N   UNL     1      37.607 -15.329  32.940  0.00  0.00    -0.283 N 
ATOM     36  H   UNL     1      37.910 -16.203  33.369  0.00  0.00    +0.155 HD
ATOM     37  N   UNL     1      37.197 -14.462  35.081  0.00  0.00    -0.214 NA
BRANCH   4   3
ATOM      1  C   UNL     1      35.792 -13.950  39.702  0.00  0.00    +0.020 A 
ATOM      2  C   UNL     1      35.698 -13.613  38.300  0.00  0.00    +0.013 A 
ATOM      3  C   UNL     1      36.836 -13.806  37.410  0.00  0.00    +0.019 A 
ATOM     38  C   UNL     1      38.063 -14.348  37.974  0.00  0.00    +0.120 A 
ATOM     39  N   UNL     1      38.124 -14.663  39.328  0.00  0.00    -0.263 NA
ATOM     40  C   UNL     1      37.036 -14.479  40.195  0.00  0.00    +0.111 A 
ENDBRANCH   4   3
ENDBRANCH  10   9
BRANCH  12  13
ATOM     13  N   UNL     1      35.179 -15.651  28.610  0.00  0.00    -0.281 N 
ATOM     14  C   UNL     1      35.031 -16.554  27.569  0.00  0.00    +0.248 C 
ATOM     30  O   UNL     1      35.958 -17.116  27.005  0.00  0.00    -0.270 OA
ATOM     31  H   UNL     1      34.349 -15.112  28.856  0.00  0.00    +0.155 HD
BRANCH  14  15
ATOM     15  C   UNL     1      33.656 -16.866  27.074  0.00  0.00    +0.037 A 
ATOM     16  C   UNL     1      32.661 -17.501  27.943  0.00  0.00    +0.013 A 
ATOM     17  C   UNL     1      31.348 -17.807  27.435  0.00  0.00    +0.005 A 
ATOM     18  C   UNL     1      31.020 -17.476  26.050  0.00  0.00    -0.033 A 
ATOM     28  C   UNL     1      32.024 -16.842  25.212  0.00  0.00    +0.005 A 
ATOM     29  C   UNL     1      33.313 -16.541  25.706  0.00  0.00    +0.013 A 
BRANCH  18  19
ATOM     19  C   UNL     1      29.650 -17.785  25.418  0.00  0.00    +0.119 C 
BRANCH  19  20
ATOM     20  N   UNL     1      28.500 -17.995  26.347  0.00  0.00    -0.302 NA
ATOM     21  C   UNL     1      28.325 -19.469  26.722  0.00  0.00    +0.066 C 
ATOM     22  C   UNL     1      27.131 -19.667  27.712  0.00  0.00    -0.064 C 
ATOM     23  N   UNL     1      25.852 -19.112  27.082  0.00  0.00    +0.379 N 
ATOM     24  C   UNL     1      24.717 -19.349  27.986  0.00  0.00    -0.096 C 
ATOM     25  H   UNL     1      25.662 -19.684  26.143  0.00  0.00    -0.082 HD
ATOM     26  C   UNL     1      26.019 -17.647  26.704  0.00  0.00    -0.064 C 
ATOM     27  C   UNL     1      27.226 -17.458  25.743  0.00  0.00    +0.066 C 
ENDBRANCH  19  20
ENDBRANCH  18  19
ENDBRANCH  14  15
ENDBRANCH  12  13
TORSDOF 6
ENDMDL
MODEL 3
REMARK VINA RESULT:      -8.3      2.047     12.090
REMARK  Name = C:\Users\Docking\Desktop\test protocol\1iep_ligandH.pdb
REMARK  8 active torsions:
REMARK  status: ('A' for Active; 'I' for Inactive)
REMARK    1  A    between atoms: _5  and  _11
REMARK    2  A    between atoms: _19  and  _21
REMARK    3  A    between atoms: _22  and  _66
REMARK    4  A    between atoms: _27  and  _30
REMARK    5  A    between atoms: _32  and  _33
REMARK    6  A    between atoms: _38  and  _43
REMARK    7  A    between atoms: _43  and  _46
REMARK    8  A    between atoms: _53  and  _55
REMARK                            x       y       z     vdW  Elec       q    Type
REMARK                         _______ _______ _______ _____ _____    ______ ____
ROOT
ATOM     10  C   UNL     1      29.779 -18.790  26.034  0.00  0.00    +0.038 A 
ATOM     11  C   UNL     1      30.856 -18.260  26.791  0.00  0.00    +0.047 A 
ATOM     12  C   UNL     1      31.805 -17.330  26.199  0.00  0.00    +0.035 A 
ATOM     32  C   UNL     1      31.626 -16.958  24.835  0.00  0.00    +0.024 A 
ATOM     33  C   UNL     1      30.538 -17.488  24.051  0.00  0.00    +0.007 A 
ATOM     34  C   UNL     1      29.600 -18.408  24.628  0.00  0.00    -0.029 A 
ATOM     35  C   UNL     1      28.457 -18.949  23.739  0.00  0.00    +0.045 C 
ENDROOT
BRANCH  10   9
ATOM      4  C   UNL     1      25.585 -19.826  28.126  0.00  0.00    +0.077 A 
ATOM      5  C   UNL     1      25.122 -18.474  28.001  0.00  0.00    +0.048 A 
ATOM      6  C   UNL     1      25.996 -17.541  27.399  0.00  0.00    +0.116 A 
ATOM      7  N   UNL     1      27.238 -17.942  26.958  0.00  0.00    -0.223 NA
ATOM      8  C   UNL     1      27.655 -19.253  27.096  0.00  0.00    +0.220 A 
ATOM      9  N   UNL     1      28.898 -19.680  26.652  0.00  0.00    -0.283 N 
ATOM     36  H   UNL     1      29.171 -20.654  26.779  0.00  0.00    +0.155 HD
ATOM     37  N   UNL     1      26.840 -20.162  27.668  0.00  0.00    -0.214 NA
BRANCH   4   3
ATOM      1  C   UNL     1      24.370 -22.696  30.489  0.00  0.00    +0.020 A 
ATOM      2  C   UNL     1      25.188 -21.640  29.939  0.00  0.00    +0.013 A 
ATOM      3  C   UNL     1      24.776 -20.927  28.737  0.00  0.00    +0.019 A 
ATOM     38  C   UNL     1      23.519 -21.309  28.111  0.00  0.00    +0.120 A 
ATOM     39  N   UNL     1      22.752 -22.331  28.662  0.00  0.00    -0.263 NA
ATOM     40  C   UNL     1      23.140 -23.025  29.818  0.00  0.00    +0.111 A 
ENDBRANCH   4   3
ENDBRANCH  10   9
BRANCH  12  13
ATOM     13  N   UNL     1      32.921 -16.765  26.916  0.00  0.00    -0.281 N 
ATOM     14  C   UNL     1      34.265 -17.071  26.776  0.00  0.00    +0.248 C 
ATOM     30  O   UNL     1      34.694 -18.036  26.160  0.00  0.00    -0.270 OA
ATOM     31  H   UNL     1      32.694 -16.054  27.610  0.00  0.00    +0.155 HD
BRANCH  14  15
ATOM     15  C   UNL     1      35.279 -16.186  27.426  0.00  0.00    +0.037 A 
ATOM     16  C   UNL     1      36.600 -16.694  27.804  0.00  0.00    +0.013 A 
ATOM     17  C   UNL     1      37.553 -15.823  28.446  0.00  0.00    +0.005 A 
ATOM     18  C   UNL     1      37.188 -14.434  28.712  0.00  0.00    -0.033 A 
ATOM     28  C   UNL     1      35.872 -13.955  28.322  0.00  0.00    +0.005 A 
ATOM     29  C   UNL     1      34.935 -14.806  27.694  0.00  0.00    +0.013 A 
BRANCH  18  19
ATOM     19  C   UNL     1      38.133 -13.439  29.411  0.00  0.00    +0.119 C 
BRANCH  19  20
ATOM     20  N   UNL     1      38.282 -13.563  30.892  0.00  0.00    -0.302 NA
ATOM     21  C   UNL     1      39.338 -14.603  31.278  0.00  0.00    +0.066 C 
ATOM     22  C   UNL     1      39.497 -14.704  32.830  0.00  0.00    -0.064 C 
ATOM     23  N   UNL     1      38.145 -15.046  33.458  0.00  0.00    +0.379 N 
ATOM     24  C   UNL     1      38.303 -15.198  34.911  0.00  0.00    -0.096 C 
ATOM     25  H   UNL     1      37.822 -16.031  33.047  0.00  0.00    -0.082 HD
ATOM     26  C   UNL     1      37.088 -14.018  33.076  0.00  0.00    -0.064 C 
ATOM     27  C   UNL     1      36.959 -13.905  31.532  0.00  0.00    +0.066 C 
ENDBRANCH  19  20
ENDBRANCH  18  19
ENDBRANCH  14  15
ENDBRANCH  12  13
TORSDOF 6
ENDMDL
MODEL 4
REMARK VINA RESULT:      -8.2      5.143      8.744
REMARK  Name = C:\Users\Docking\Desktop\test protocol\1iep_ligandH.pdb
REMARK  8 active torsions:
REMARK  status: ('A' for Active; 'I' for Inactive)
REMARK    1  A    between atoms: _5  and  _11
REMARK    2  A    between atoms: _19  and  _21
REMARK    3  A    between atoms: _22  and  _66
REMARK    4  A    between atoms: _27  and  _30
REMARK    5  A    between atoms: _32  and  _33
REMARK    6  A    between atoms: _38  and  _43
REMARK    7  A    between atoms: _43  and  _46
REMARK    8  A    between atoms: _53  and  _55
REMARK                            x       y       z     vdW  Elec       q    Type
REMARK                         _______ _______ _______ _____ _____    ______ ____
ROOT
ATOM     10  C   UNL     1      32.061 -18.739  27.669  0.00  0.00    +0.038 A 
ATOM     11  C   UNL     1      31.416 -18.348  26.468  0.00  0.00    +0.047 A 
ATOM     12  C   UNL     1      30.649 -19.300  25.681  0.00  0.00    +0.035 A 
ATOM     32  C   UNL     1      30.557 -20.644  26.148  0.00  0.00    +0.024 A 
ATOM     33  C   UNL     1      31.207 -21.059  27.366  0.00  0.00    +0.007 A 
ATOM     34  C   UNL     1      31.968 -20.125  28.145  0.00  0.00    -0.029 A 
ATOM     35  C   UNL     1      32.649 -20.628  29.439  0.00  0.00    +0.045 C 
ENDROOT
BRANCH  10   9
ATOM      4  C   UNL     1      36.080 -16.277  28.576  0.00  0.00    +0.077 A 
ATOM      5  C   UNL     1      36.808 -16.973  27.553  0.00  0.00    +0.048 A 
ATOM      6  C   UNL     1      36.113 -17.962  26.822  0.00  0.00    +0.116 A 
ATOM      7  N   UNL     1      34.789 -18.227  27.100  0.00  0.00    -0.223 NA
ATOM      8  C   UNL     1      34.118 -17.539  28.094  0.00  0.00    +0.220 A 
ATOM      9  N   UNL     1      32.785 -17.783  28.386  0.00  0.00    -0.283 N 
ATOM     36  H   UNL     1      32.328 -17.260  29.131  0.00  0.00    +0.155 HD
ATOM     37  N   UNL     1      34.760 -16.591  28.808  0.00  0.00    -0.214 NA
BRANCH   4   3
ATOM      1  C   UNL     1      37.052 -14.065  31.652  0.00  0.00    +0.020 A 
ATOM      2  C   UNL     1      36.454 -15.123  30.870  0.00  0.00    +0.013 A 
ATOM      3  C   UNL     1      36.675 -15.203  29.432  0.00  0.00    +0.019 A 
ATOM     38  C   UNL     1      37.515 -14.190  28.810  0.00  0.00    +0.120 A 
ATOM     39  N   UNL     1      38.076 -13.182  29.588  0.00  0.00    -0.263 NA
ATOM     40  C   UNL     1      37.869 -13.093  30.973  0.00  0.00    +0.111 A 
ENDBRANCH   4   3
ENDBRANCH  10   9
BRANCH  12  13
ATOM     13  N   UNL     1      29.979 -18.962  24.450  0.00  0.00    -0.281 N 
ATOM     14  C   UNL     1      28.667 -18.552  24.279  0.00  0.00    +0.248 C 
ATOM     30  O   UNL     1      27.804 -18.619  25.141  0.00  0.00    -0.270 OA
ATOM     31  H   UNL     1      30.540 -19.034  23.601  0.00  0.00    +0.155 HD
BRANCH  14  15
ATOM     15  C   UNL     1      28.249 -18.001  22.954  0.00  0.00    +0.037 A 
ATOM     16  C   UNL     1      28.997 -16.916  22.312  0.00  0.00    +0.013 A 
ATOM     17  C   UNL     1      28.562 -16.391  21.042  0.00  0.00    +0.005 A 
ATOM     18  C   UNL     1      27.374 -16.952  20.404  0.00  0.00    -0.033 A 
ATOM     28  C   UNL     1      26.655 -18.032  21.059  0.00  0.00    +0.005 A 
ATOM     29  C   UNL     1      27.077 -18.548  22.305  0.00  0.00    +0.013 A 
BRANCH  18  19
ATOM     19  C   UNL     1      26.827 -16.440  19.058  0.00  0.00    +0.119 C 
BRANCH  19  20
ATOM     20  N   UNL     1      27.683 -15.489  18.289  0.00  0.00    -0.302 NA
ATOM     21  C   UNL     1      27.250 -14.034  18.490  0.00  0.00    +0.066 C 
ATOM     22  C   UNL     1      28.171 -13.051  17.696  0.00  0.00    -0.064 C 
ATOM     23  N   UNL     1      28.150 -13.423  16.212  0.00  0.00    +0.379 N 
ATOM     24  C   UNL     1      28.969 -12.465  15.454  0.00  0.00    -0.096 C 
ATOM     25  H   UNL     1      27.098 -13.326  15.854  0.00  0.00    -0.082 HD
ATOM     26  C   UNL     1      28.577 -14.869  16.004  0.00  0.00    -0.064 C 
ATOM     27  C   UNL     1      27.674 -15.835  16.820  0.00  0.00    +0.066 C 
ENDBRANCH  19  20
ENDBRANCH  18  19
ENDBRANCH  14  15
ENDBRANCH  12  13
TORSDOF 6
ENDMDL
MODEL 5
REMARK VINA RESULT:      -8.2     15.333     21.226
REMARK  Name = C:\Users\Docking\Desktop\test protocol\1iep_ligandH.pdb
REMARK  8 active torsions:
REMARK  status: ('A' for Active; 'I' for Inactive)
REMARK    1  A    between atoms: _5  and  _11
REMARK    2  A    between atoms: _19  and  _21
REMARK    3  A    between atoms: _22  and  _66
REMARK    4  A    between atoms: _27  and  _30
REMARK    5  A    between atoms: _32  and  _33
REMARK    6  A    between atoms: _38  and  _43
REMARK    7  A    between atoms: _43  and  _46
REMARK    8  A    between atoms: _53  and  _55
REMARK                            x       y       z     vdW  Elec       q    Type
REMARK                         _______ _______ _______ _____ _____    ______ ____
ROOT
ATOM     10  C   UNL     1      25.514 -19.954  14.413  0.00  0.00    +0.038 A 
ATOM     11  C   UNL     1      24.231 -19.875  13.813  0.00  0.00    +0.047 A 
ATOM     12  C   UNL     1      23.460 -21.074  13.523  0.00  0.00    +0.035 A 
ATOM     32  C   UNL     1      24.026 -22.338  13.860  0.00  0.00    +0.024 A 
ATOM     33  C   UNL     1      25.330 -22.437  14.469  0.00  0.00    +0.007 A 
ATOM     34  C   UNL     1      26.095 -21.257  14.755  0.00  0.00    -0.029 A 
ATOM     35  C   UNL     1      27.489 -21.423  15.403  0.00  0.00    +0.045 C 
ENDROOT
BRANCH  10   9
ATOM      4  C   UNL     1      26.768 -16.318  17.284  0.00  0.00    +0.077 A 
ATOM      5  C   UNL     1      25.947 -16.803  18.356  0.00  0.00    +0.048 A 
ATOM      6  C   UNL     1      25.212 -17.988  18.125  0.00  0.00    +0.116 A 
ATOM      7  N   UNL     1      25.300 -18.631  16.909  0.00  0.00    -0.223 NA
ATOM      8  C   UNL     1      26.100 -18.135  15.896  0.00  0.00    +0.220 A 
ATOM      9  N   UNL     1      26.209 -18.770  14.669  0.00  0.00    -0.283 N 
ATOM     36  H   UNL     1      26.804 -18.368  13.945  0.00  0.00    +0.155 HD
ATOM     37  N   UNL     1      26.810 -17.005  16.091  0.00  0.00    -0.214 NA
BRANCH   4   3
ATOM      1  C   UNL     1      28.375 -12.983  18.547  0.00  0.00    +0.020 A 
ATOM      2  C   UNL     1      27.543 -14.164  18.507  0.00  0.00    +0.013 A 
ATOM      3  C   UNL     1      27.606 -15.081  17.376  0.00  0.00    +0.019 A 
ATOM     38  C   UNL     1      28.529 -14.772  16.294  0.00  0.00    +0.120 A 
ATOM     39  N   UNL     1      29.316 -13.627  16.359  0.00  0.00    -0.263 NA
ATOM     40  C   UNL     1      29.263 -12.736  17.441  0.00  0.00    +0.111 A 
ENDBRANCH   4   3
ENDBRANCH  10   9
BRANCH  12  13
ATOM     13  N   UNL     1      22.156 -21.057  12.908  0.00  0.00    -0.281 N 
ATOM     14  C   UNL     1      21.052 -20.305  13.274  0.00  0.00    +0.248 C 
ATOM     30  O   UNL     1      20.954 -19.687  14.324  0.00  0.00    -0.270 OA
ATOM     31  H   UNL     1      22.032 -21.674  12.105  0.00  0.00    +0.155 HD
BRANCH  14  15
ATOM     15  C   UNL     1      19.882 -20.241  12.346  0.00  0.00    +0.037 A 
ATOM     16  C   UNL     1      19.488 -21.399  11.540  0.00  0.00    +0.013 A 
ATOM     17  C   UNL     1      18.365 -21.305  10.640  0.00  0.00    +0.005 A 
ATOM     18  C   UNL     1      17.628 -20.047  10.543  0.00  0.00    -0.033 A 
ATOM     28  C   UNL     1      18.038 -18.916  11.359  0.00  0.00    +0.005 A 
ATOM     29  C   UNL     1      19.138 -19.004  12.241  0.00  0.00    +0.013 A 
BRANCH  18  19
ATOM     19  C   UNL     1      16.431 -19.851   9.594  0.00  0.00    +0.119 C 
BRANCH  19  20
ATOM     20  N   UNL     1      15.111 -19.532  10.216  0.00  0.00    -0.302 NA
ATOM     21  C   UNL     1      13.954 -20.229   9.495  0.00  0.00    +0.066 C 
ATOM     22  C   UNL     1      12.583 -19.903  10.172  0.00  0.00    -0.064 C 
ATOM     23  N   UNL     1      12.374 -18.388  10.192  0.00  0.00    +0.379 N 
ATOM     24  C   UNL     1      11.060 -18.081  10.775  0.00  0.00    -0.096 C 
ATOM     25  H   UNL     1      12.366 -18.035   9.135  0.00  0.00    -0.082 HD
ATOM     26  C   UNL     1      13.522 -17.687  10.904  0.00  0.00    -0.064 C 
ATOM     27  C   UNL     1      14.883 -18.041  10.242  0.00  0.00    +0.066 C 
ENDBRANCH  19  20
ENDBRANCH  18  19
ENDBRANCH  14  15
ENDBRANCH  12  13
TORSDOF 6
ENDMDL
