MODEL 1
REMARK VINA RESULT:      -7.6      0.000      0.000
REMARK  Name = C:\Users\Docking\Desktop\test protocol\1iep_ligandH.pdb
REMARK  8 active torsions:
REMARK  status: ('A' for Active; 'I' for Inactive)
REMARK    1  A    between atoms: _5  and  _11
REMARK    2  A    between atoms: _19  and  _21
REMARK    3  A    between atoms: _22  and  _66
REMARK    4  A    between atoms: _27  and  _30
REMARK    5  A    between atoms: _32  and  _33
REMARK    6  A    between atoms: _38  and  _43
REMARK    7  A    between atoms: _43  and  _46
REMARK    8  A    between atoms: _53  and  _55
REMARK                            x       y       z     vdW  Elec       q    Type
REMARK                         _______ _______ _______ _____ _____    ______ ____
ROOT
ATOM     10  C   UNL     1       2.004-108.209  21.184  0.00  0.00    +0.038 A 
ATOM     11  C   UNL     1       1.792-109.419  21.894  0.00  0.00    +0.047 A 
ATOM     12  C   UNL     1       1.365-110.629  21.208  0.00  0.00    +0.035 A 
ATOM     32  C   UNL     1       1.166-110.571  19.798  0.00  0.00    +0.024 A 
ATOM     33  C   UNL     1       1.376-109.350  19.061  0.00  0.00    +0.007 A 
ATOM     34  C   UNL     1       1.795-108.153  19.733  0.00  0.00    -0.029 A 
ATOM     35  C   UNL     1       1.999-106.870  18.893  0.00  0.00    +0.045 C 
ENDROOT
BRANCH  10   9
ATOM      4  C   UNL     1       1.087-104.292  23.801  0.00  0.00    +0.077 A 
ATOM      5  C   UNL     1      -0.330-104.502  23.727  0.00  0.00    +0.048 A 
ATOM      6  C   UNL     1      -0.782-105.626  23.000  0.00  0.00    +0.116 A 
ATOM      7  N   UNL     1       0.124-106.470  22.396  0.00  0.00    -0.223 NA
ATOM      8  C   UNL     1       1.484-106.238  22.486  0.00  0.00    +0.220 A 
ATOM      9  N   UNL     1       2.414-107.078  21.893  0.00  0.00    -0.283 N 
ATOM     36  H   UNL     1       3.409-106.868  21.976  0.00  0.00    +0.155 HD
ATOM     37  N   UNL     1       1.941-105.170  23.173  0.00  0.00    -0.214 NA
BRANCH   4   3
ATOM      1  C   UNL     1       1.606-101.069  25.956  0.00  0.00    +0.020 A 
ATOM      2  C   UNL     1       0.947-102.152  25.263  0.00  0.00    +0.013 A 
ATOM      3  C   UNL     1       1.719-103.150  24.535  0.00  0.00    +0.019 A 
ATOM     38  C   UNL     1       3.169-103.024  24.529  0.00  0.00    +0.120 A 
ATOM     39  N   UNL     1       3.776-101.970  25.204  0.00  0.00    -0.263 NA
ATOM     40  C   UNL     1       3.043-101.002  25.907  0.00  0.00    +0.111 A 
ENDBRANCH   4   3
ENDBRANCH  10   9
BRANCH  12  13
ATOM     13  N   UNL     1       1.126-111.884  21.877  0.00  0.00    -0.281 N 
ATOM     14  C   UNL     1       0.415-112.104  23.045  0.00  0.00    +0.248 C 
ATOM     30  O   UNL     1       0.054-111.223  23.812  0.00  0.00    -0.270 OA
ATOM     31  H   UNL     1       1.530-112.710  21.435  0.00  0.00    +0.155 HD
BRANCH  14  15
ATOM     15  C   UNL     1       0.066-113.507  23.424  0.00  0.00    +0.037 A 
ATOM     16  C   UNL     1      -0.106-114.548  22.408  0.00  0.00    +0.013 A 
ATOM     17  C   UNL     1      -0.460-115.890  22.800  0.00  0.00    +0.005 A 
ATOM     18  C   UNL     1      -0.642-116.198  24.216  0.00  0.00    -0.033 A 
ATOM     28  C   UNL     1      -0.461-115.147  25.203  0.00  0.00    +0.005 A 
ATOM     29  C   UNL     1      -0.115-113.831  24.823  0.00  0.00    +0.013 A 
BRANCH  18  19
ATOM     19  C   UNL     1      -1.040-117.596  24.723  0.00  0.00    +0.119 C 
BRANCH  19  20
ATOM     20  N   UNL     1      -2.484-117.970  24.636  0.00  0.00    -0.302 NA
ATOM     21  C   UNL     1      -2.857-118.503  23.250  0.00  0.00    +0.066 C 
ATOM     22  C   UNL     1      -4.365-118.910  23.184  0.00  0.00    -0.064 C 
ATOM     23  N   UNL     1      -5.232-117.705  23.552  0.00  0.00    +0.379 N 
ATOM     24  C   UNL     1      -6.652-118.068  23.435  0.00  0.00    -0.096 C 
ATOM     25  H   UNL     1      -5.026-116.900  22.809  0.00  0.00    -0.082 HD
ATOM     26  C   UNL     1      -4.866-117.167  24.928  0.00  0.00    -0.064 C 
ATOM     27  C   UNL     1      -3.359-116.794  24.992  0.00  0.00    +0.066 C 
ENDBRANCH  19  20
ENDBRANCH  18  19
ENDBRANCH  14  15
ENDBRANCH  12  13
TORSDOF 6
ENDMDL
MODEL 2
REMARK VINA RESULT:      -7.2      5.773     14.014
REMARK  Name = C:\Users\Docking\Desktop\test protocol\1iep_ligandH.pdb
REMARK  8 active torsions:
REMARK  status: ('A' for Active; 'I' for Inactive)
REMARK    1  A    between atoms: _5  and  _11
REMARK    2  A    between atoms: _19  and  _21
REMARK    3  A    between atoms: _22  and  _66
REMARK    4  A    between atoms: _27  and  _30
REMARK    5  A    between atoms: _32  and  _33
REMARK    6  A    between atoms: _38  and  _43
REMARK    7  A    between atoms: _43  and  _46
REMARK    8  A    between atoms: _53  and  _55
REMARK                            x       y       z     vdW  Elec       q    Type
REMARK                         _______ _______ _______ _____ _____    ______ ____
ROOT
ATOM     10  C   UNL     1       1.161-105.297  22.038  0.00  0.00    +0.038 A 
ATOM     11  C   UNL     1       2.262-104.916  22.846  0.00  0.00    +0.047 A 
ATOM     12  C   UNL     1       2.080-104.068  24.014  0.00  0.00    +0.035 A 
ATOM     32  C   UNL     1       0.762-103.628  24.331  0.00  0.00    +0.024 A 
ATOM     33  C   UNL     1      -0.369-104.005  23.519  0.00  0.00    +0.007 A 
ATOM     34  C   UNL     1      -0.195-104.839  22.365  0.00  0.00    -0.029 A 
ATOM     35  C   UNL     1      -1.442-105.207  21.527  0.00  0.00    +0.045 C 
ENDROOT
BRANCH  10   9
ATOM      4  C   UNL     1       1.882-109.591  20.018  0.00  0.00    +0.077 A 
ATOM      5  C   UNL     1       1.817-110.263  21.284  0.00  0.00    +0.048 A 
ATOM      6  C   UNL     1       1.604-109.467  22.431  0.00  0.00    +0.116 A 
ATOM      7  N   UNL     1       1.467-108.101  22.310  0.00  0.00    -0.223 NA
ATOM      8  C   UNL     1       1.536-107.484  21.074  0.00  0.00    +0.220 A 
ATOM      9  N   UNL     1       1.393-106.113  20.928  0.00  0.00    -0.283 N 
ATOM     36  H   UNL     1       1.458-105.695  20.000  0.00  0.00    +0.155 HD
ATOM     37  N   UNL     1       1.741-108.222  19.963  0.00  0.00    -0.214 NA
BRANCH   4   3
ATOM      1  C   UNL     1       1.380-111.863  16.874  0.00  0.00    +0.020 A 
ATOM      2  C   UNL     1       1.122-111.209  18.136  0.00  0.00    +0.013 A 
ATOM      3  C   UNL     1       2.099-110.295  18.715  0.00  0.00    +0.019 A 
ATOM     38  C   UNL     1       3.336-110.063  17.985  0.00  0.00    +0.120 A 
ATOM     39  N   UNL     1       3.558-110.708  16.772  0.00  0.00    -0.263 NA
ATOM     40  C   UNL     1       2.626-111.591  16.207  0.00  0.00    +0.111 A 
ENDBRANCH   4   3
ENDBRANCH  10   9
BRANCH  12  13
ATOM     13  N   UNL     1       3.161-103.642  24.868  0.00  0.00    -0.281 N 
ATOM     14  C   UNL     1       4.295-102.929  24.515  0.00  0.00    +0.248 C 
ATOM     30  O   UNL     1       4.657-102.732  23.364  0.00  0.00    -0.270 OA
ATOM     31  H   UNL     1       3.080-103.897  25.852  0.00  0.00    +0.155 HD
BRANCH  14  15
ATOM     15  C   UNL     1       5.159-102.364  25.596  0.00  0.00    +0.037 A 
ATOM     16  C   UNL     1       6.615-102.294  25.446  0.00  0.00    +0.013 A 
ATOM     17  C   UNL     1       7.426-101.760  26.511  0.00  0.00    +0.005 A 
ATOM     18  C   UNL     1       6.782-101.291  27.736  0.00  0.00    -0.033 A 
ATOM     28  C   UNL     1       5.336-101.367  27.856  0.00  0.00    +0.005 A 
ATOM     29  C   UNL     1       4.537-101.891  26.814  0.00  0.00    +0.013 A 
BRANCH  18  19
ATOM     19  C   UNL     1       7.571-100.726  28.932  0.00  0.00    +0.119 C 
BRANCH  19  20
ATOM     20  N   UNL     1       7.020 -99.511  29.602  0.00  0.00    -0.302 NA
ATOM     21  C   UNL     1       6.935 -98.317  28.647  0.00  0.00    +0.066 C 
ATOM     22  C   UNL     1       6.336 -97.060  29.358  0.00  0.00    -0.064 C 
ATOM     23  N   UNL     1       7.187 -96.715  30.581  0.00  0.00    +0.379 N 
ATOM     24  C   UNL     1       6.660 -95.500  31.219  0.00  0.00    -0.096 C 
ATOM     25  H   UNL     1       8.218 -96.489  30.222  0.00  0.00    -0.082 HD
ATOM     26  C   UNL     1       7.279 -97.898  31.535  0.00  0.00    -0.064 C 
ATOM     27  C   UNL     1       7.849 -99.150  30.811  0.00  0.00    +0.066 C 
ENDBRANCH  19  20
ENDBRANCH  18  19
ENDBRANCH  14  15
ENDBRANCH  12  13
TORSDOF 6
ENDMDL
MODEL 3
REMARK VINA RESULT:      -7.2      9.816     15.686
REMARK  Name = C:\Users\Docking\Desktop\test protocol\1iep_ligandH.pdb
REMARK  8 active torsions:
REMARK  status: ('A' for Active; 'I' for Inactive)
REMARK    1  A    between atoms: _5  and  _11
REMARK    2  A    between atoms: _19  and  _21
REMARK    3  A    between atoms: _22  and  _66
REMARK    4  A    between atoms: _27  and  _30
REMARK    5  A    between atoms: _32  and  _33
REMARK    6  A    between atoms: _38  and  _43
REMARK    7  A    between atoms: _43  and  _46
REMARK    8  A    between atoms: _53  and  _55
REMARK                            x       y       z     vdW  Elec       q    Type
REMARK                         _______ _______ _______ _____ _____    ______ ____
ROOT
ATOM     10  C   UNL     1       9.241 -99.146  31.399  0.00  0.00    +0.038 A 
ATOM     11  C   UNL     1       8.431 -99.749  30.404  0.00  0.00    +0.047 A 
ATOM     12  C   UNL     1       7.171 -99.148  29.992  0.00  0.00    +0.035 A 
ATOM     32  C   UNL     1       6.769 -97.930  30.614  0.00  0.00    +0.024 A 
ATOM     33  C   UNL     1       7.580 -97.304  31.629  0.00  0.00    +0.007 A 
ATOM     34  C   UNL     1       8.822 -97.894  32.041  0.00  0.00    -0.029 A 
ATOM     35  C   UNL     1       9.647 -97.182  33.138  0.00  0.00    +0.045 C 
ENDROOT
BRANCH  10   9
ATOM      4  C   UNL     1      11.806-102.149  34.127  0.00  0.00    +0.077 A 
ATOM      5  C   UNL     1      10.665-102.491  34.927  0.00  0.00    +0.048 A 
ATOM      6  C   UNL     1       9.438-101.867  34.608  0.00  0.00    +0.116 A 
ATOM      7  N   UNL     1       9.369-100.969  33.565  0.00  0.00    -0.223 NA
ATOM      8  C   UNL     1      10.489-100.660  32.814  0.00  0.00    +0.220 A 
ATOM      9  N   UNL     1      10.440 -99.766  31.756  0.00  0.00    -0.283 N 
ATOM     36  H   UNL     1      11.290 -99.559  31.231  0.00  0.00    +0.155 HD
ATOM     37  N   UNL     1      11.672-101.242  33.100  0.00  0.00    -0.214 NA
BRANCH   4   3
ATOM      1  C   UNL     1      14.730-104.555  35.107  0.00  0.00    +0.020 A 
ATOM      2  C   UNL     1      13.391-104.043  34.926  0.00  0.00    +0.013 A 
ATOM      3  C   UNL     1      13.170-102.728  34.338  0.00  0.00    +0.019 A 
ATOM     38  C   UNL     1      14.334-101.950  33.941  0.00  0.00    +0.120 A 
ATOM     39  N   UNL     1      15.612-102.469  34.129  0.00  0.00    -0.263 NA
ATOM     40  C   UNL     1      15.837-103.733  34.695  0.00  0.00    +0.111 A 
ENDBRANCH   4   3
ENDBRANCH  10   9
BRANCH  12  13
ATOM     13  N   UNL     1       6.303 -99.719  28.993  0.00  0.00    -0.281 N 
ATOM     14  C   UNL     1       6.454 -99.688  27.616  0.00  0.00    +0.248 C 
ATOM     30  O   UNL     1       7.251 -98.976  27.024  0.00  0.00    -0.270 OA
ATOM     31  H   UNL     1       5.477-100.205  29.342  0.00  0.00    +0.155 HD
BRANCH  14  15
ATOM     15  C   UNL     1       5.582-100.563  26.774  0.00  0.00    +0.037 A 
ATOM     16  C   UNL     1       5.854-100.760  25.348  0.00  0.00    +0.013 A 
ATOM     17  C   UNL     1       4.988-101.596  24.556  0.00  0.00    +0.005 A 
ATOM     18  C   UNL     1       3.841-102.244  25.189  0.00  0.00    -0.033 A 
ATOM     28  C   UNL     1       3.598-102.035  26.607  0.00  0.00    +0.005 A 
ATOM     29  C   UNL     1       4.444-101.215  27.387  0.00  0.00    +0.013 A 
BRANCH  18  19
ATOM     19  C   UNL     1       2.852-103.136  24.416  0.00  0.00    +0.119 C 
BRANCH  19  20
ATOM     20  N   UNL     1       1.905-102.457  23.482  0.00  0.00    -0.302 NA
ATOM     21  C   UNL     1       0.690-101.880  24.214  0.00  0.00    +0.066 C 
ATOM     22  C   UNL     1      -0.278-101.153  23.225  0.00  0.00    -0.064 C 
ATOM     23  N   UNL     1      -0.717-102.132  22.134  0.00  0.00    +0.379 N 
ATOM     24  C   UNL     1      -1.674-101.469  21.236  0.00  0.00    -0.096 C 
ATOM     25  H   UNL     1      -1.250-102.976  22.632  0.00  0.00    -0.082 HD
ATOM     26  C   UNL     1       0.485-102.713  21.403  0.00  0.00    -0.064 C 
ATOM     27  C   UNL     1       1.455-103.407  22.399  0.00  0.00    +0.066 C 
ENDBRANCH  19  20
ENDBRANCH  18  19
ENDBRANCH  14  15
ENDBRANCH  12  13
TORSDOF 6
ENDMDL
MODEL 4
REMARK VINA RESULT:      -6.9     13.968     18.011
REMARK  Name = C:\Users\Docking\Desktop\test protocol\1iep_ligandH.pdb
REMARK  8 active torsions:
REMARK  status: ('A' for Active; 'I' for Inactive)
REMARK    1  A    between atoms: _5  and  _11
REMARK    2  A    between atoms: _19  and  _21
REMARK    3  A    between atoms: _22  and  _66
REMARK    4  A    between atoms: _27  and  _30
REMARK    5  A    between atoms: _32  and  _33
REMARK    6  A    between atoms: _38  and  _43
REMARK    7  A    between atoms: _43  and  _46
REMARK    8  A    between atoms: _53  and  _55
REMARK                            x       y       z     vdW  Elec       q    Type
REMARK                         _______ _______ _______ _____ _____    ______ ____
ROOT
ATOM     10  C   UNL     1     -13.180-106.619  15.854  0.00  0.00    +0.038 A 
ATOM     11  C   UNL     1     -12.114-106.579  14.919  0.00  0.00    +0.047 A 
ATOM     12  C   UNL     1     -12.369-106.462  13.492  0.00  0.00    +0.035 A 
ATOM     32  C   UNL     1     -13.722-106.387  13.051  0.00  0.00    +0.024 A 
ATOM     33  C   UNL     1     -14.818-106.427  13.987  0.00  0.00    +0.007 A 
ATOM     34  C   UNL     1     -14.573-106.545  15.396  0.00  0.00    -0.029 A 
ATOM     35  C   UNL     1     -15.787-106.590  16.353  0.00  0.00    +0.045 C 
ENDROOT
BRANCH  10   9
ATOM      4  C   UNL     1     -12.514-109.206  19.842  0.00  0.00    +0.077 A 
ATOM      5  C   UNL     1     -12.820-110.434  19.167  0.00  0.00    +0.048 A 
ATOM      6  C   UNL     1     -13.150-110.356  17.795  0.00  0.00    +0.116 A 
ATOM      7  N   UNL     1     -13.170-109.136  17.156  0.00  0.00    -0.223 NA
ATOM      8  C   UNL     1     -12.872-107.970  17.837  0.00  0.00    +0.220 A 
ATOM      9  N   UNL     1     -12.878-106.732  17.213  0.00  0.00    -0.283 N 
ATOM     36  H   UNL     1     -12.660-105.894  17.752  0.00  0.00    +0.155 HD
ATOM     37  N   UNL     1     -12.555-108.017  19.148  0.00  0.00    -0.214 NA
BRANCH   4   3
ATOM      1  C   UNL     1     -10.458-109.026  23.164  0.00  0.00    +0.020 A 
ATOM      2  C   UNL     1     -10.762-109.106  21.754  0.00  0.00    +0.013 A 
ATOM      3  C   UNL     1     -12.143-109.125  21.290  0.00  0.00    +0.019 A 
ATOM     38  C   UNL     1     -13.202-109.061  22.286  0.00  0.00    +0.120 A 
ATOM     39  N   UNL     1     -12.879-108.986  23.638  0.00  0.00    -0.263 NA
ATOM     40  C   UNL     1     -11.553-108.969  24.096  0.00  0.00    +0.111 A 
ENDBRANCH   4   3
ENDBRANCH  10   9
BRANCH  12  13
ATOM     13  N   UNL     1     -11.327-106.424  12.496  0.00  0.00    -0.281 N 
ATOM     14  C   UNL     1     -10.687-107.494  11.892  0.00  0.00    +0.248 C 
ATOM     30  O   UNL     1     -10.764-108.652  12.276  0.00  0.00    -0.270 OA
ATOM     31  H   UNL     1     -11.025-105.496  12.199  0.00  0.00    +0.155 HD
BRANCH  14  15
ATOM     15  C   UNL     1      -9.824-107.240  10.699  0.00  0.00    +0.037 A 
ATOM     16  C   UNL     1      -8.444-107.729  10.640  0.00  0.00    +0.013 A 
ATOM     17  C   UNL     1      -7.628-107.455   9.484  0.00  0.00    +0.005 A 
ATOM     18  C   UNL     1      -8.191-106.687   8.375  0.00  0.00    -0.033 A 
ATOM     28  C   UNL     1      -9.564-106.218   8.458  0.00  0.00    +0.005 A 
ATOM     29  C   UNL     1     -10.367-106.484   9.590  0.00  0.00    +0.013 A 
BRANCH  18  19
ATOM     19  C   UNL     1      -7.386-106.329   7.112  0.00  0.00    +0.119 C 
BRANCH  19  20
ATOM     20  N   UNL     1      -6.292-105.324   7.260  0.00  0.00    -0.302 NA
ATOM     21  C   UNL     1      -6.818-103.887   7.183  0.00  0.00    +0.066 C 
ATOM     22  C   UNL     1      -5.664-102.848   7.363  0.00  0.00    -0.064 C 
ATOM     23  N   UNL     1      -4.593-103.091   6.298  0.00  0.00    +0.379 N 
ATOM     24  C   UNL     1      -3.534-102.079   6.427  0.00  0.00    -0.096 C 
ATOM     25  H   UNL     1      -5.071-102.954   5.300  0.00  0.00    -0.082 HD
ATOM     26  C   UNL     1      -4.066-104.518   6.365  0.00  0.00    -0.064 C 
ATOM     27  C   UNL     1      -5.226-105.542   6.215  0.00  0.00    +0.066 C 
ENDBRANCH  19  20
ENDBRANCH  18  19
ENDBRANCH  14  15
ENDBRANCH  12  13
TORSDOF 6
ENDMDL
MODEL 5
REMARK VINA RESULT:      -6.7     25.618     29.027
REMARK  Name = C:\Users\Docking\Desktop\test protocol\1iep_ligandH.pdb
REMARK  8 active torsions:
REMARK  status: ('A' for Active; 'I' for Inactive)
REMARK    1  A    between atoms: _5  and  _11
REMARK    2  A    between atoms: _19  and  _21
REMARK    3  A    between atoms: _22  and  _66
REMARK    4  A    between atoms: _27  and  _30
REMARK    5  A    between atoms: _32  and  _33
REMARK    6  A    between atoms: _38  and  _43
REMARK    7  A    between atoms: _43  and  _46
REMARK    8  A    between atoms: _53  and  _55
REMARK                            x       y       z     vdW  Elec       q    Type
REMARK                         _______ _______ _______ _____ _____    ______ ____
ROOT
ATOM     10  C   UNL     1       7.606-113.449  48.566  0.00  0.00    +0.038 A 
ATOM     11  C   UNL     1       8.515-112.516  48.004  0.00  0.00    +0.047 A 
ATOM     12  C   UNL     1       9.585-112.949  47.118  0.00  0.00    +0.035 A 
ATOM     32  C   UNL     1       9.697-114.339  46.823  0.00  0.00    +0.024 A 
ATOM     33  C   UNL     1       8.782-115.300  47.387  0.00  0.00    +0.007 A 
ATOM     34  C   UNL     1       7.727-114.880  48.263  0.00  0.00    -0.029 A 
ATOM     35  C   UNL     1       6.779-115.955  48.843  0.00  0.00    +0.045 C 
ENDROOT
BRANCH  10   9
ATOM      4  C   UNL     1       6.085-111.635  52.741  0.00  0.00    +0.077 A 
ATOM      5  C   UNL     1       7.407-111.650  53.297  0.00  0.00    +0.048 A 
ATOM      6  C   UNL     1       8.450-112.139  52.478  0.00  0.00    +0.116 A 
ATOM      7  N   UNL     1       8.179-112.577  51.200  0.00  0.00    -0.223 NA
ATOM      8  C   UNL     1       6.892-112.550  50.695  0.00  0.00    +0.220 A 
ATOM      9  N   UNL     1       6.597-112.978  49.410  0.00  0.00    -0.283 N 
ATOM     36  H   UNL     1       5.634-112.949  49.077  0.00  0.00    +0.155 HD
ATOM     37  N   UNL     1       5.879-112.089  51.458  0.00  0.00    -0.214 NA
BRANCH   4   3
ATOM      1  C   UNL     1       3.332-111.127  55.473  0.00  0.00    +0.020 A 
ATOM      2  C   UNL     1       4.506-111.635  54.801  0.00  0.00    +0.013 A 
ATOM      3  C   UNL     1       4.880-111.144  53.481  0.00  0.00    +0.019 A 
ATOM     38  C   UNL     1       4.038-110.130  52.864  0.00  0.00    +0.120 A 
ATOM     39  N   UNL     1       2.912-109.661  53.534  0.00  0.00    -0.263 NA
ATOM     40  C   UNL     1       2.542-110.128  54.804  0.00  0.00    +0.111 A 
ENDBRANCH   4   3
ENDBRANCH  10   9
BRANCH  12  13
ATOM     13  N   UNL     1      10.542-112.049  46.524  0.00  0.00    -0.281 N 
ATOM     14  C   UNL     1      11.702-111.545  47.090  0.00  0.00    +0.248 C 
ATOM     30  O   UNL     1      11.982-111.623  48.277  0.00  0.00    -0.270 OA
ATOM     31  H   UNL     1      10.341-111.747  45.571  0.00  0.00    +0.155 HD
BRANCH  14  15
ATOM     15  C   UNL     1      12.685-110.839  46.214  0.00  0.00    +0.037 A 
ATOM     16  C   UNL     1      13.442-111.559  45.187  0.00  0.00    +0.013 A 
ATOM     17  C   UNL     1      14.397-110.857  44.367  0.00  0.00    +0.005 A 
ATOM     18  C   UNL     1      14.599-109.424  44.570  0.00  0.00    -0.033 A 
ATOM     28  C   UNL     1      13.831-108.733  45.592  0.00  0.00    +0.005 A 
ATOM     29  C   UNL     1      12.895-109.418  46.398  0.00  0.00    +0.013 A 
BRANCH  18  19
ATOM     19  C   UNL     1      15.612-108.599  43.755  0.00  0.00    +0.119 C 
BRANCH  19  20
ATOM     20  N   UNL     1      15.302-107.154  43.540  0.00  0.00    -0.302 NA
ATOM     21  C   UNL     1      15.391-106.760  42.063  0.00  0.00    +0.066 C 
ATOM     22  C   UNL     1      15.041-105.251  41.855  0.00  0.00    -0.064 C 
ATOM     23  N   UNL     1      15.981-104.391  42.701  0.00  0.00    +0.379 N 
ATOM     24  C   UNL     1      15.693-102.969  42.463  0.00  0.00    -0.096 C 
ATOM     25  H   UNL     1      17.023-104.588  42.356  0.00  0.00    -0.082 HD
ATOM     26  C   UNL     1      15.901-104.777  44.172  0.00  0.00    -0.064 C 
ATOM     27  C   UNL     1      16.222-106.286  44.364  0.00  0.00    +0.066 C 
ENDBRANCH  19  20
ENDBRANCH  18  19
ENDBRANCH  14  15
ENDBRANCH  12  13
TORSDOF 6
ENDMDL
