MODEL 1
REMARK VINA RESULT:     -11.3      0.000      0.000
REMARK  Name = C:\Users\Docking\Desktop\test protocol\1iep_ligandH.pdb
REMARK  8 active torsions:
REMARK  status: ('A' for Active; 'I' for Inactive)
REMARK    1  A    between atoms: _5  and  _11
REMARK    2  A    between atoms: _19  and  _21
REMARK    3  A    between atoms: _22  and  _66
REMARK    4  A    between atoms: _27  and  _30
REMARK    5  A    between atoms: _32  and  _33
REMARK    6  A    between atoms: _38  and  _43
REMARK    7  A    between atoms: _43  and  _46
REMARK    8  A    between atoms: _53  and  _55
REMARK                            x       y       z     vdW  Elec       q    Type
REMARK                         _______ _______ _______ _____ _____    ______ ____
ROOT
ATOM     10  C   UNL     1      50.648  88.072  40.359  0.00  0.00    +0.038 A 
ATOM     11  C   UNL     1      50.287  89.112  39.465  0.00  0.00    +0.047 A 
ATOM     12  C   UNL     1      50.401  90.510  39.852  0.00  0.00    +0.035 A 
ATOM     32  C   UNL     1      50.888  90.812  41.156  0.00  0.00    +0.024 A 
ATOM     33  C   UNL     1      51.259  89.768  42.078  0.00  0.00    +0.007 A 
ATOM     34  C   UNL     1      51.147  88.387  41.703  0.00  0.00    -0.029 A 
ATOM     35  C   UNL     1      51.552  87.308  42.734  0.00  0.00    +0.045 C 
ENDROOT
BRANCH  10   9
ATOM      4  C   UNL     1      52.482  83.971  38.670  0.00  0.00    +0.077 A 
ATOM      5  C   UNL     1      53.805  84.522  38.601  0.00  0.00    +0.048 A 
ATOM      6  C   UNL     1      53.970  85.867  39.002  0.00  0.00    +0.116 A 
ATOM      7  N   UNL     1      52.885  86.596  39.439  0.00  0.00    -0.223 NA
ATOM      8  C   UNL     1      51.623  86.035  39.492  0.00  0.00    +0.220 A 
ATOM      9  N   UNL     1      50.519  86.747  39.935  0.00  0.00    -0.283 N 
ATOM     36  H   UNL     1      49.603  86.299  39.953  0.00  0.00    +0.155 HD
ATOM     37  N   UNL     1      51.439  84.753  39.113  0.00  0.00    -0.214 NA
BRANCH   4   3
ATOM      1  C   UNL     1      50.966  80.365  38.649  0.00  0.00    +0.020 A 
ATOM      2  C   UNL     1      51.256  81.717  39.067  0.00  0.00    +0.013 A 
ATOM      3  C   UNL     1      52.149  82.563  38.284  0.00  0.00    +0.019 A 
ATOM     38  C   UNL     1      52.736  82.006  37.075  0.00  0.00    +0.120 A 
ATOM     39  N   UNL     1      52.439  80.699  36.699  0.00  0.00    -0.263 NA
ATOM     40  C   UNL     1      51.583  79.876  37.444  0.00  0.00    +0.111 A 
ENDBRANCH   4   3
ENDBRANCH  10   9
BRANCH  12  13
ATOM     13  N   UNL     1      50.042  91.608  38.989  0.00  0.00    -0.281 N 
ATOM     14  C   UNL     1      48.772  92.013  38.609  0.00  0.00    +0.248 C 
ATOM     30  O   UNL     1      47.757  91.355  38.782  0.00  0.00    -0.270 OA
ATOM     31  H   UNL     1      50.817  92.155  38.614  0.00  0.00    +0.155 HD
BRANCH  14  15
ATOM     15  C   UNL     1      48.610  93.331  37.923  0.00  0.00    +0.037 A 
ATOM     16  C   UNL     1      48.184  93.412  36.524  0.00  0.00    +0.013 A 
ATOM     17  C   UNL     1      48.051  94.696  35.882  0.00  0.00    +0.005 A 
ATOM     18  C   UNL     1      48.344  95.910  36.640  0.00  0.00    -0.033 A 
ATOM     28  C   UNL     1      48.759  95.800  38.028  0.00  0.00    +0.005 A 
ATOM     29  C   UNL     1      48.892  94.544  38.661  0.00  0.00    +0.013 A 
BRANCH  18  19
ATOM     19  C   UNL     1      48.249  97.320  36.029  0.00  0.00    +0.119 C 
BRANCH  19  20
ATOM     20  N   UNL     1      49.504  98.129  35.979  0.00  0.00    -0.302 NA
ATOM     21  C   UNL     1      49.366  99.347  35.061  0.00  0.00    +0.066 C 
ATOM     22  C   UNL     1      50.680 100.194  35.038  0.00  0.00    -0.064 C 
ATOM     23  N   UNL     1      51.846  99.309  34.592  0.00  0.00    +0.379 N 
ATOM     24  C   UNL     1      53.072 100.116  34.513  0.00  0.00    -0.096 C 
ATOM     25  H   UNL     1      51.617  98.940  33.566  0.00  0.00    -0.082 HD
ATOM     26  C   UNL     1      51.988  98.094  35.498  0.00  0.00    -0.064 C 
ATOM     27  C   UNL     1      50.667  97.276  35.537  0.00  0.00    +0.066 C 
ENDBRANCH  19  20
ENDBRANCH  18  19
ENDBRANCH  14  15
ENDBRANCH  12  13
TORSDOF 6
ENDMDL
MODEL 2
REMARK VINA RESULT:     -11.0      1.918      3.014
REMARK  Name = C:\Users\Docking\Desktop\test protocol\1iep_ligandH.pdb
REMARK  8 active torsions:
REMARK  status: ('A' for Active; 'I' for Inactive)
REMARK    1  A    between atoms: _5  and  _11
REMARK    2  A    between atoms: _19  and  _21
REMARK    3  A    between atoms: _22  and  _66
REMARK    4  A    between atoms: _27  and  _30
REMARK    5  A    between atoms: _32  and  _33
REMARK    6  A    between atoms: _38  and  _43
REMARK    7  A    between atoms: _43  and  _46
REMARK    8  A    between atoms: _53  and  _55
REMARK                            x       y       z     vdW  Elec       q    Type
REMARK                         _______ _______ _______ _____ _____    ______ ____
ROOT
ATOM     10  C   UNL     1      49.393  89.728  38.830  0.00  0.00    +0.038 A 
ATOM     11  C   UNL     1      49.642  90.774  37.906  0.00  0.00    +0.047 A 
ATOM     12  C   UNL     1      49.368  92.161  38.248  0.00  0.00    +0.035 A 
ATOM     32  C   UNL     1      48.843  92.447  39.542  0.00  0.00    +0.024 A 
ATOM     33  C   UNL     1      48.583  91.396  40.494  0.00  0.00    +0.007 A 
ATOM     34  C   UNL     1      48.849  90.025  40.161  0.00  0.00    -0.029 A 
ATOM     35  C   UNL     1      48.545  88.938  41.218  0.00  0.00    +0.045 C 
ENDROOT
BRANCH  10   9
ATOM      4  C   UNL     1      52.261  85.881  38.695  0.00  0.00    +0.077 A 
ATOM      5  C   UNL     1      53.298  86.555  39.422  0.00  0.00    +0.048 A 
ATOM      6  C   UNL     1      53.056  87.894  39.807  0.00  0.00    +0.116 A 
ATOM      7  N   UNL     1      51.863  88.502  39.483  0.00  0.00    -0.223 NA
ATOM      8  C   UNL     1      50.885  87.824  38.779  0.00  0.00    +0.220 A 
ATOM      9  N   UNL     1      49.674  88.414  38.449  0.00  0.00    -0.283 N 
ATOM     36  H   UNL     1      48.981  87.882  37.923  0.00  0.00    +0.155 HD
ATOM     37  N   UNL     1      51.092  86.546  38.399  0.00  0.00    -0.214 NA
BRANCH   4   3
ATOM      1  C   UNL     1      53.043  82.714  36.538  0.00  0.00    +0.020 A 
ATOM      2  C   UNL     1      52.967  84.097  36.947  0.00  0.00    +0.013 A 
ATOM      3  C   UNL     1      52.365  84.465  38.223  0.00  0.00    +0.019 A 
ATOM     38  C   UNL     1      51.848  83.400  39.068  0.00  0.00    +0.120 A 
ATOM     39  N   UNL     1      51.934  82.076  38.647  0.00  0.00    -0.263 NA
ATOM     40  C   UNL     1      52.509  81.711  37.421  0.00  0.00    +0.111 A 
ENDBRANCH   4   3
ENDBRANCH  10   9
BRANCH  12  13
ATOM     13  N   UNL     1      49.593  93.265  37.348  0.00  0.00    -0.281 N 
ATOM     14  C   UNL     1      48.654  93.968  36.611  0.00  0.00    +0.248 C 
ATOM     30  O   UNL     1      47.496  93.613  36.449  0.00  0.00    -0.270 OA
ATOM     31  H   UNL     1      50.562  93.565  37.241  0.00  0.00    +0.155 HD
BRANCH  14  15
ATOM     15  C   UNL     1      49.065  95.241  35.945  0.00  0.00    +0.037 A 
ATOM     16  C   UNL     1      49.170  95.336  34.486  0.00  0.00    +0.013 A 
ATOM     17  C   UNL     1      49.585  96.571  33.870  0.00  0.00    +0.005 A 
ATOM     18  C   UNL     1      49.897  97.723  34.713  0.00  0.00    -0.033 A 
ATOM     28  C   UNL     1      49.779  97.603  36.157  0.00  0.00    +0.005 A 
ATOM     29  C   UNL     1      49.374  96.393  36.765  0.00  0.00    +0.013 A 
BRANCH  18  19
ATOM     19  C   UNL     1      50.368  99.074  34.143  0.00  0.00    +0.119 C 
BRANCH  19  20
ATOM     20  N   UNL     1      51.695  99.103  33.459  0.00  0.00    -0.302 NA
ATOM     21  C   UNL     1      52.693 100.014  34.179  0.00  0.00    +0.066 C 
ATOM     22  C   UNL     1      54.083 100.014  33.463  0.00  0.00    -0.064 C 
ATOM     23  N   UNL     1      53.903 100.450  32.008  0.00  0.00    +0.379 N 
ATOM     24  C   UNL     1      55.216 100.507  31.348  0.00  0.00    -0.096 C 
ATOM     25  H   UNL     1      53.482 101.482  32.014  0.00  0.00    -0.082 HD
ATOM     26  C   UNL     1      52.910  99.551  31.285  0.00  0.00    -0.064 C 
ATOM     27  C   UNL     1      51.542  99.535  32.022  0.00  0.00    +0.066 C 
ENDBRANCH  19  20
ENDBRANCH  18  19
ENDBRANCH  14  15
ENDBRANCH  12  13
TORSDOF 6
ENDMDL
MODEL 3
REMARK VINA RESULT:     -10.4      2.639      5.298
REMARK  Name = C:\Users\Docking\Desktop\test protocol\1iep_ligandH.pdb
REMARK  8 active torsions:
REMARK  status: ('A' for Active; 'I' for Inactive)
REMARK    1  A    between atoms: _5  and  _11
REMARK    2  A    between atoms: _19  and  _21
REMARK    3  A    between atoms: _22  and  _66
REMARK    4  A    between atoms: _27  and  _30
REMARK    5  A    between atoms: _32  and  _33
REMARK    6  A    between atoms: _38  and  _43
REMARK    7  A    between atoms: _43  and  _46
REMARK    8  A    between atoms: _53  and  _55
REMARK                            x       y       z     vdW  Elec       q    Type
REMARK                         _______ _______ _______ _____ _____    ______ ____
ROOT
ATOM     10  C   UNL     1      48.511  90.957  37.128  0.00  0.00    +0.038 A 
ATOM     11  C   UNL     1      49.148  92.160  36.730  0.00  0.00    +0.047 A 
ATOM     12  C   UNL     1      48.376  93.355  36.427  0.00  0.00    +0.035 A 
ATOM     32  C   UNL     1      46.957  93.290  36.541  0.00  0.00    +0.024 A 
ATOM     33  C   UNL     1      46.293  92.074  36.943  0.00  0.00    +0.007 A 
ATOM     34  C   UNL     1      47.049  90.892  37.241  0.00  0.00    -0.029 A 
ATOM     35  C   UNL     1      46.284  89.615  37.661  0.00  0.00    +0.045 C 
ENDROOT
BRANCH  10   9
ATOM      4  C   UNL     1      50.628  87.929  40.192  0.00  0.00    +0.077 A 
ATOM      5  C   UNL     1      50.141  88.650  41.333  0.00  0.00    +0.048 A 
ATOM      6  C   UNL     1      49.355  89.798  41.088  0.00  0.00    +0.116 A 
ATOM      7  N   UNL     1      49.083  90.188  39.794  0.00  0.00    -0.223 NA
ATOM      8  C   UNL     1      49.569  89.471  38.717  0.00  0.00    +0.220 A 
ATOM      9  N   UNL     1      49.301  89.839  37.407  0.00  0.00    -0.283 N 
ATOM     36  H   UNL     1      49.685  89.289  36.640  0.00  0.00    +0.155 HD
ATOM     37  N   UNL     1      50.324  88.371  38.924  0.00  0.00    -0.214 NA
BRANCH   4   3
ATOM      1  C   UNL     1      52.354  84.516  39.374  0.00  0.00    +0.020 A 
ATOM      2  C   UNL     1      51.526  85.691  39.232  0.00  0.00    +0.013 A 
ATOM      3  C   UNL     1      51.469  86.694  40.288  0.00  0.00    +0.019 A 
ATOM     38  C   UNL     1      52.269  86.477  41.484  0.00  0.00    +0.120 A 
ATOM     39  N   UNL     1      53.056  85.335  41.594  0.00  0.00    -0.263 NA
ATOM     40  C   UNL     1      53.118  84.362  40.585  0.00  0.00    +0.111 A 
ENDBRANCH   4   3
ENDBRANCH  10   9
BRANCH  12  13
ATOM     13  N   UNL     1      48.966  94.603  36.011  0.00  0.00    -0.281 N 
ATOM     14  C   UNL     1      48.928  95.186  34.755  0.00  0.00    +0.248 C 
ATOM     30  O   UNL     1      48.559  94.616  33.739  0.00  0.00    -0.270 OA
ATOM     31  H   UNL     1      49.474  95.119  36.729  0.00  0.00    +0.155 HD
BRANCH  14  15
ATOM     15  C   UNL     1      49.379  96.603  34.603  0.00  0.00    +0.037 A 
ATOM     16  C   UNL     1      50.479  96.958  33.702  0.00  0.00    +0.013 A 
ATOM     17  C   UNL     1      50.905  98.331  33.587  0.00  0.00    +0.005 A 
ATOM     18  C   UNL     1      50.229  99.359  34.375  0.00  0.00    -0.033 A 
ATOM     28  C   UNL     1      49.137  98.979  35.256  0.00  0.00    +0.005 A 
ATOM     29  C   UNL     1      48.718  97.635  35.372  0.00  0.00    +0.013 A 
BRANCH  18  19
ATOM     19  C   UNL     1      50.631 100.845  34.331  0.00  0.00    +0.119 C 
BRANCH  19  20
ATOM     20  N   UNL     1      51.633 101.252  33.301  0.00  0.00    -0.302 NA
ATOM     21  C   UNL     1      53.011 101.517  33.915  0.00  0.00    +0.066 C 
ATOM     22  C   UNL     1      54.053 101.920  32.821  0.00  0.00    -0.064 C 
ATOM     23  N   UNL     1      53.549 103.153  32.070  0.00  0.00    +0.379 N 
ATOM     24  C   UNL     1      54.553 103.569  31.080  0.00  0.00    -0.096 C 
ATOM     25  H   UNL     1      53.441 103.979  32.810  0.00  0.00    -0.082 HD
ATOM     26  C   UNL     1      52.178 102.899  31.459  0.00  0.00    -0.064 C 
ATOM     27  C   UNL     1      51.157 102.471  32.550  0.00  0.00    +0.066 C 
ENDBRANCH  19  20
ENDBRANCH  18  19
ENDBRANCH  14  15
ENDBRANCH  12  13
TORSDOF 6
ENDMDL
MODEL 4
REMARK VINA RESULT:     -10.4      3.281      5.922
REMARK  Name = C:\Users\Docking\Desktop\test protocol\1iep_ligandH.pdb
REMARK  8 active torsions:
REMARK  status: ('A' for Active; 'I' for Inactive)
REMARK    1  A    between atoms: _5  and  _11
REMARK    2  A    between atoms: _19  and  _21
REMARK    3  A    between atoms: _22  and  _66
REMARK    4  A    between atoms: _27  and  _30
REMARK    5  A    between atoms: _32  and  _33
REMARK    6  A    between atoms: _38  and  _43
REMARK    7  A    between atoms: _43  and  _46
REMARK    8  A    between atoms: _53  and  _55
REMARK                            x       y       z     vdW  Elec       q    Type
REMARK                         _______ _______ _______ _____ _____    ______ ____
ROOT
ATOM     10  C   UNL     1      48.535  90.935  36.159  0.00  0.00    +0.038 A 
ATOM     11  C   UNL     1      49.035  92.208  35.784  0.00  0.00    +0.047 A 
ATOM     12  C   UNL     1      48.206  93.157  35.056  0.00  0.00    +0.035 A 
ATOM     32  C   UNL     1      46.872  92.777  34.729  0.00  0.00    +0.024 A 
ATOM     33  C   UNL     1      46.348  91.487  35.102  0.00  0.00    +0.007 A 
ATOM     34  C   UNL     1      47.161  90.546  35.818  0.00  0.00    -0.029 A 
ATOM     35  C   UNL     1      46.549  89.174  36.186  0.00  0.00    +0.045 C 
ENDROOT
BRANCH  10   9
ATOM      4  C   UNL     1      50.600  89.377  40.202  0.00  0.00    +0.077 A 
ATOM      5  C   UNL     1      49.975  90.403  40.986  0.00  0.00    +0.048 A 
ATOM      6  C   UNL     1      49.136  91.317  40.310  0.00  0.00    +0.116 A 
ATOM      7  N   UNL     1      48.942  91.202  38.951  0.00  0.00    -0.223 NA
ATOM      8  C   UNL     1      49.561  90.202  38.224  0.00  0.00    +0.220 A 
ATOM      9  N   UNL     1      49.374  90.063  36.857  0.00  0.00    -0.283 N 
ATOM     36  H   UNL     1      49.854  89.316  36.355  0.00  0.00    +0.155 HD
ATOM     37  N   UNL     1      50.368  89.318  38.846  0.00  0.00    -0.214 NA
BRANCH   4   3
ATOM      1  C   UNL     1      53.328  87.576  42.349  0.00  0.00    +0.020 A 
ATOM      2  C   UNL     1      52.471  88.618  41.833  0.00  0.00    +0.013 A 
ATOM      3  C   UNL     1      51.511  88.336  40.773  0.00  0.00    +0.019 A 
ATOM     38  C   UNL     1      51.443  86.978  40.254  0.00  0.00    +0.120 A 
ATOM     39  N   UNL     1      52.282  85.995  40.770  0.00  0.00    -0.263 NA
ATOM     40  C   UNL     1      53.211  86.256  41.789  0.00  0.00    +0.111 A 
ENDBRANCH   4   3
ENDBRANCH  10   9
BRANCH  12  13
ATOM     13  N   UNL     1      48.662  94.461  34.641  0.00  0.00    -0.281 N 
ATOM     14  C   UNL     1      48.306  95.693  35.164  0.00  0.00    +0.248 C 
ATOM     30  O   UNL     1      47.373  95.875  35.932  0.00  0.00    -0.270 OA
ATOM     31  H   UNL     1      49.328  94.477  33.868  0.00  0.00    +0.155 HD
BRANCH  14  15
ATOM     15  C   UNL     1      49.091  96.901  34.764  0.00  0.00    +0.037 A 
ATOM     16  C   UNL     1      48.797  98.220  35.330  0.00  0.00    +0.013 A 
ATOM     17  C   UNL     1      49.559  99.371  34.914  0.00  0.00    +0.005 A 
ATOM     18  C   UNL     1      50.623  99.207  33.927  0.00  0.00    -0.033 A 
ATOM     28  C   UNL     1      50.897  97.887  33.386  0.00  0.00    +0.005 A 
ATOM     29  C   UNL     1      50.152  96.756  33.790  0.00  0.00    +0.013 A 
BRANCH  18  19
ATOM     19  C   UNL     1      51.472 100.384  33.410  0.00  0.00    +0.119 C 
BRANCH  19  20
ATOM     20  N   UNL     1      52.749 100.674  34.129  0.00  0.00    -0.302 NA
ATOM     21  C   UNL     1      53.935  99.923  33.519  0.00  0.00    +0.066 C 
ATOM     22  C   UNL     1      55.266 100.255  34.269  0.00  0.00    -0.064 C 
ATOM     23  N   UNL     1      55.112  99.912  35.752  0.00  0.00    +0.379 N 
ATOM     24  C   UNL     1      56.380 100.169  36.450  0.00  0.00    -0.096 C 
ATOM     25  H   UNL     1      54.900  98.820  35.826  0.00  0.00    -0.082 HD
ATOM     26  C   UNL     1      53.932 100.653  36.366  0.00  0.00    -0.064 C 
ATOM     27  C   UNL     1      52.620 100.338  35.594  0.00  0.00    +0.066 C 
ENDBRANCH  19  20
ENDBRANCH  18  19
ENDBRANCH  14  15
ENDBRANCH  12  13
TORSDOF 6
ENDMDL
MODEL 5
REMARK VINA RESULT:     -10.4      2.616     12.685
REMARK  Name = C:\Users\Docking\Desktop\test protocol\1iep_ligandH.pdb
REMARK  8 active torsions:
REMARK  status: ('A' for Active; 'I' for Inactive)
REMARK    1  A    between atoms: _5  and  _11
REMARK    2  A    between atoms: _19  and  _21
REMARK    3  A    between atoms: _22  and  _66
REMARK    4  A    between atoms: _27  and  _30
REMARK    5  A    between atoms: _32  and  _33
REMARK    6  A    between atoms: _38  and  _43
REMARK    7  A    between atoms: _43  and  _46
REMARK    8  A    between atoms: _53  and  _55
REMARK                            x       y       z     vdW  Elec       q    Type
REMARK                         _______ _______ _______ _____ _____    ______ ____
ROOT
ATOM     10  C   UNL     1      48.019  93.800  35.496  0.00  0.00    +0.038 A 
ATOM     11  C   UNL     1      48.854  92.742  35.939  0.00  0.00    +0.047 A 
ATOM     12  C   UNL     1      48.331  91.669  36.770  0.00  0.00    +0.035 A 
ATOM     32  C   UNL     1      46.952  91.703  37.129  0.00  0.00    +0.024 A 
ATOM     33  C   UNL     1      46.090  92.771  36.688  0.00  0.00    +0.007 A 
ATOM     34  C   UNL     1      46.601  93.834  35.870  0.00  0.00    -0.029 A 
ATOM     35  C   UNL     1      45.632  94.957  35.432  0.00  0.00    +0.045 C 
ENDROOT
BRANCH  10   9
ATOM      4  C   UNL     1      50.182  98.048  34.938  0.00  0.00    +0.077 A 
ATOM      5  C   UNL     1      50.184  98.300  36.350  0.00  0.00    +0.048 A 
ATOM      6  C   UNL     1      49.612  97.314  37.185  0.00  0.00    +0.116 A 
ATOM      7  N   UNL     1      49.081  96.166  36.638  0.00  0.00    -0.223 NA
ATOM      8  C   UNL     1      49.095  95.955  35.271  0.00  0.00    +0.220 A 
ATOM      9  N   UNL     1      48.574  94.804  34.699  0.00  0.00    -0.283 N 
ATOM     36  H   UNL     1      48.596  94.690  33.686  0.00  0.00    +0.155 HD
ATOM     37  N   UNL     1      49.634  96.882  34.452  0.00  0.00    -0.214 NA
BRANCH   4   3
ATOM      1  C   UNL     1      51.863  99.503  31.719  0.00  0.00    +0.020 A 
ATOM      2  C   UNL     1      51.325  98.549  32.661  0.00  0.00    +0.013 A 
ATOM      3  C   UNL     1      50.753  98.993  33.926  0.00  0.00    +0.019 A 
ATOM     38  C   UNL     1      50.739 100.420  34.208  0.00  0.00    +0.120 A 
ATOM     39  N   UNL     1      51.265 101.316  33.282  0.00  0.00    -0.263 NA
ATOM     40  C   UNL     1      51.820 100.900  32.062  0.00  0.00    +0.111 A 
ENDBRANCH   4   3
ENDBRANCH  10   9
BRANCH  12  13
ATOM     13  N   UNL     1      49.133  90.573  37.256  0.00  0.00    -0.281 N 
ATOM     14  C   UNL     1      49.903  90.526  38.407  0.00  0.00    +0.248 C 
ATOM     30  O   UNL     1      50.190  91.501  39.086  0.00  0.00    -0.270 OA
ATOM     31  H   UNL     1      49.132  89.730  36.683  0.00  0.00    +0.155 HD
BRANCH  14  15
ATOM     15  C   UNL     1      50.444  89.209  38.861  0.00  0.00    +0.037 A 
ATOM     16  C   UNL     1      50.693  88.938  40.279  0.00  0.00    +0.013 A 
ATOM     17  C   UNL     1      51.232  87.665  40.688  0.00  0.00    +0.005 A 
ATOM     18  C   UNL     1      51.523  86.652  39.676  0.00  0.00    -0.033 A 
ATOM     28  C   UNL     1      51.261  86.946  38.276  0.00  0.00    +0.005 A 
ATOM     29  C   UNL     1      50.734  88.193  37.872  0.00  0.00    +0.013 A 
BRANCH  18  19
ATOM     19  C   UNL     1      52.118  85.274  40.019  0.00  0.00    +0.119 C 
BRANCH  19  20
ATOM     20  N   UNL     1      53.598  85.195  40.205  0.00  0.00    -0.302 NA
ATOM     21  C   UNL     1      53.995  85.254  41.683  0.00  0.00    +0.066 C 
ATOM     22  C   UNL     1      55.544  85.148  41.861  0.00  0.00    -0.064 C 
ATOM     23  N   UNL     1      56.223  86.269  41.073  0.00  0.00    +0.379 N 
ATOM     24  C   UNL     1      57.677  86.208  41.285  0.00  0.00    -0.096 C 
ATOM     25  H   UNL     1      55.862  87.239  41.487  0.00  0.00    -0.082 HD
ATOM     26  C   UNL     1      55.832  86.220  39.603  0.00  0.00    -0.064 C 
ATOM     27  C   UNL     1      54.288  86.297  39.439  0.00  0.00    +0.066 C 
ENDBRANCH  19  20
ENDBRANCH  18  19
ENDBRANCH  14  15
ENDBRANCH  12  13
TORSDOF 6
ENDMDL
