MODEL 1
REMARK VINA RESULT:     -11.1      0.000      0.000
REMARK  Name = C:\Users\Docking\Desktop\test protocol\1iep_ligandH.pdb
REMARK  8 active torsions:
REMARK  status: ('A' for Active; 'I' for Inactive)
REMARK    1  A    between atoms: _5  and  _11
REMARK    2  A    between atoms: _19  and  _21
REMARK    3  A    between atoms: _22  and  _66
REMARK    4  A    between atoms: _27  and  _30
REMARK    5  A    between atoms: _32  and  _33
REMARK    6  A    between atoms: _38  and  _43
REMARK    7  A    between atoms: _43  and  _46
REMARK    8  A    between atoms: _53  and  _55
REMARK                            x       y       z     vdW  Elec       q    Type
REMARK                         _______ _______ _______ _____ _____    ______ ____
ROOT
ATOM     10  C   UNL     1      49.698  89.679  38.723  0.00  0.00    +0.038 A 
ATOM     11  C   UNL     1      50.042  90.710  37.812  0.00  0.00    +0.047 A 
ATOM     12  C   UNL     1      49.828  92.110  38.145  0.00  0.00    +0.035 A 
ATOM     32  C   UNL     1      49.264  92.424  39.415  0.00  0.00    +0.024 A 
ATOM     33  C   UNL     1      48.907  91.389  40.353  0.00  0.00    +0.007 A 
ATOM     34  C   UNL     1      49.114  90.006  40.030  0.00  0.00    -0.029 A 
ATOM     35  C   UNL     1      48.708  88.937  41.071  0.00  0.00    +0.045 C 
ENDROOT
BRANCH  10   9
ATOM      4  C   UNL     1      52.401  85.714  38.631  0.00  0.00    +0.077 A 
ATOM      5  C   UNL     1      53.461  86.348  39.360  0.00  0.00    +0.048 A 
ATOM      6  C   UNL     1      53.274  87.698  39.734  0.00  0.00    +0.116 A 
ATOM      7  N   UNL     1      52.110  88.354  39.399  0.00  0.00    -0.223 NA
ATOM      8  C   UNL     1      51.108  87.714  38.693  0.00  0.00    +0.220 A 
ATOM      9  N   UNL     1      49.926  88.352  38.352  0.00  0.00    -0.283 N 
ATOM     36  H   UNL     1      49.214  87.847  37.825  0.00  0.00    +0.155 HD
ATOM     37  N   UNL     1      51.263  86.425  38.323  0.00  0.00    -0.214 NA
BRANCH   4   3
ATOM      1  C   UNL     1      52.997  82.509  36.469  0.00  0.00    +0.020 A 
ATOM      2  C   UNL     1      52.973  83.898  36.867  0.00  0.00    +0.013 A 
ATOM      3  C   UNL     1      52.448  84.291  38.168  0.00  0.00    +0.019 A 
ATOM     38  C   UNL     1      51.950  83.246  39.050  0.00  0.00    +0.120 A 
ATOM     39  N   UNL     1      51.984  81.917  38.639  0.00  0.00    -0.263 NA
ATOM     40  C   UNL     1      52.486  81.527  37.389  0.00  0.00    +0.111 A 
ENDBRANCH   4   3
ENDBRANCH  10   9
BRANCH  12  13
ATOM     13  N   UNL     1      50.149  93.200  37.257  0.00  0.00    -0.281 N 
ATOM     14  C   UNL     1      49.410  93.671  36.184  0.00  0.00    +0.248 C 
ATOM     30  O   UNL     1      48.457  93.086  35.692  0.00  0.00    -0.270 OA
ATOM     31  H   UNL     1      51.029  93.683  37.442  0.00  0.00    +0.155 HD
BRANCH  14  15
ATOM     15  C   UNL     1      49.794  94.973  35.559  0.00  0.00    +0.037 A 
ATOM     16  C   UNL     1      51.054  95.638  35.901  0.00  0.00    +0.013 A 
ATOM     17  C   UNL     1      51.392  96.902  35.296  0.00  0.00    +0.005 A 
ATOM     18  C   UNL     1      50.469  97.509  34.340  0.00  0.00    -0.033 A 
ATOM     28  C   UNL     1      49.228  96.824  34.015  0.00  0.00    +0.005 A 
ATOM     29  C   UNL     1      48.893  95.586  34.606  0.00  0.00    +0.013 A 
BRANCH  18  19
ATOM     19  C   UNL     1      50.738  98.865  33.662  0.00  0.00    +0.119 C 
BRANCH  19  20
ATOM     20  N   UNL     1      52.104  99.090  33.102  0.00  0.00    -0.302 NA
ATOM     21  C   UNL     1      52.942 100.018  33.985  0.00  0.00    +0.066 C 
ATOM     22  C   UNL     1      54.376 100.224  33.395  0.00  0.00    -0.064 C 
ATOM     23  N   UNL     1      54.264 100.782  31.976  0.00  0.00    +0.379 N 
ATOM     24  C   UNL     1      55.611 101.031  31.440  0.00  0.00    -0.096 C 
ATOM     25  H   UNL     1      53.738 101.763  32.038  0.00  0.00    -0.082 HD
ATOM     26  C   UNL     1      53.430  99.867  31.091  0.00  0.00    -0.064 C 
ATOM     27  C   UNL     1      52.018  99.645  31.701  0.00  0.00    +0.066 C 
ENDBRANCH  19  20
ENDBRANCH  18  19
ENDBRANCH  14  15
ENDBRANCH  12  13
TORSDOF 6
ENDMDL
MODEL 2
REMARK VINA RESULT:     -11.1      1.879      3.044
REMARK  Name = C:\Users\Docking\Desktop\test protocol\1iep_ligandH.pdb
REMARK  8 active torsions:
REMARK  status: ('A' for Active; 'I' for Inactive)
REMARK    1  A    between atoms: _5  and  _11
REMARK    2  A    between atoms: _19  and  _21
REMARK    3  A    between atoms: _22  and  _66
REMARK    4  A    between atoms: _27  and  _30
REMARK    5  A    between atoms: _32  and  _33
REMARK    6  A    between atoms: _38  and  _43
REMARK    7  A    between atoms: _43  and  _46
REMARK    8  A    between atoms: _53  and  _55
REMARK                            x       y       z     vdW  Elec       q    Type
REMARK                         _______ _______ _______ _____ _____    ______ ____
ROOT
ATOM     10  C   UNL     1      50.501  88.187  40.101  0.00  0.00    +0.038 A 
ATOM     11  C   UNL     1      50.131  89.194  39.173  0.00  0.00    +0.047 A 
ATOM     12  C   UNL     1      50.187  90.603  39.530  0.00  0.00    +0.035 A 
ATOM     32  C   UNL     1      50.626  90.951  40.841  0.00  0.00    +0.024 A 
ATOM     33  C   UNL     1      51.005  89.940  41.797  0.00  0.00    +0.007 A 
ATOM     34  C   UNL     1      50.950  88.549  41.451  0.00  0.00    -0.029 A 
ATOM     35  C   UNL     1      51.361  87.508  42.518  0.00  0.00    +0.045 C 
ENDROOT
BRANCH  10   9
ATOM      4  C   UNL     1      52.513  84.126  38.520  0.00  0.00    +0.077 A 
ATOM      5  C   UNL     1      53.814  84.728  38.452  0.00  0.00    +0.048 A 
ATOM      6  C   UNL     1      53.921  86.086  38.826  0.00  0.00    +0.116 A 
ATOM      7  N   UNL     1      52.804  86.781  39.236  0.00  0.00    -0.223 NA
ATOM      8  C   UNL     1      51.564  86.172  39.288  0.00  0.00    +0.220 A 
ATOM      9  N   UNL     1      50.429  86.850  39.704  0.00  0.00    -0.283 N 
ATOM     36  H   UNL     1      49.531  86.366  39.722  0.00  0.00    +0.155 HD
ATOM     37  N   UNL     1      51.435  84.876  38.935  0.00  0.00    -0.214 NA
BRANCH   4   3
ATOM      1  C   UNL     1      51.166  80.455  38.578  0.00  0.00    +0.020 A 
ATOM      2  C   UNL     1      51.399  81.825  38.970  0.00  0.00    +0.013 A 
ATOM      3  C   UNL     1      52.240  82.699  38.160  0.00  0.00    +0.019 A 
ATOM     38  C   UNL     1      52.833  82.150  36.950  0.00  0.00    +0.120 A 
ATOM     39  N   UNL     1      52.592  80.826  36.599  0.00  0.00    -0.263 NA
ATOM     40  C   UNL     1      51.787  79.975  37.371  0.00  0.00    +0.111 A 
ENDBRANCH   4   3
ENDBRANCH  10   9
BRANCH  12  13
ATOM     13  N   UNL     1      49.816  91.669  38.633  0.00  0.00    -0.281 N 
ATOM     14  C   UNL     1      48.569  91.930  38.089  0.00  0.00    +0.248 C 
ATOM     30  O   UNL     1      47.625  91.155  38.123  0.00  0.00    -0.270 OA
ATOM     31  H   UNL     1      50.564  92.310  38.367  0.00  0.00    +0.155 HD
BRANCH  14  15
ATOM     15  C   UNL     1      48.343  93.234  37.394  0.00  0.00    +0.037 A 
ATOM     16  C   UNL     1      47.319  93.373  36.355  0.00  0.00    +0.013 A 
ATOM     17  C   UNL     1      47.133  94.638  35.688  0.00  0.00    +0.005 A 
ATOM     18  C   UNL     1      47.972  95.774  36.061  0.00  0.00    -0.033 A 
ATOM     28  C   UNL     1      48.976  95.609  37.099  0.00  0.00    +0.005 A 
ATOM     29  C   UNL     1      49.162  94.371  37.754  0.00  0.00    +0.013 A 
BRANCH  18  19
ATOM     19  C   UNL     1      47.857  97.155  35.388  0.00  0.00    +0.119 C 
BRANCH  19  20
ATOM     20  N   UNL     1      49.129  97.875  35.085  0.00  0.00    -0.302 NA
ATOM     21  C   UNL     1      48.922  99.389  34.984  0.00  0.00    +0.066 C 
ATOM     22  C   UNL     1      50.267 100.130  34.688  0.00  0.00    -0.064 C 
ATOM     23  N   UNL     1      50.876  99.579  33.398  0.00  0.00    +0.379 N 
ATOM     24  C   UNL     1      52.111 100.313  33.086  0.00  0.00    -0.096 C 
ATOM     25  H   UNL     1      50.151  99.771  32.573  0.00  0.00    -0.082 HD
ATOM     26  C   UNL     1      51.083  98.074  33.489  0.00  0.00    -0.064 C 
ATOM     27  C   UNL     1      49.746  97.350  33.812  0.00  0.00    +0.066 C 
ENDBRANCH  19  20
ENDBRANCH  18  19
ENDBRANCH  14  15
ENDBRANCH  12  13
TORSDOF 6
ENDMDL
MODEL 3
REMARK VINA RESULT:     -10.6      2.045     12.936
REMARK  Name = C:\Users\Docking\Desktop\test protocol\1iep_ligandH.pdb
REMARK  8 active torsions:
REMARK  status: ('A' for Active; 'I' for Inactive)
REMARK    1  A    between atoms: _5  and  _11
REMARK    2  A    between atoms: _19  and  _21
REMARK    3  A    between atoms: _22  and  _66
REMARK    4  A    between atoms: _27  and  _30
REMARK    5  A    between atoms: _32  and  _33
REMARK    6  A    between atoms: _38  and  _43
REMARK    7  A    between atoms: _43  and  _46
REMARK    8  A    between atoms: _53  and  _55
REMARK                            x       y       z     vdW  Elec       q    Type
REMARK                         _______ _______ _______ _____ _____    ______ ____
ROOT
ATOM     10  C   UNL     1      48.184  94.125  35.242  0.00  0.00    +0.038 A 
ATOM     11  C   UNL     1      49.076  93.115  35.685  0.00  0.00    +0.047 A 
ATOM     12  C   UNL     1      48.605  91.992  36.481  0.00  0.00    +0.035 A 
ATOM     32  C   UNL     1      47.219  91.928  36.806  0.00  0.00    +0.024 A 
ATOM     33  C   UNL     1      46.299  92.947  36.365  0.00  0.00    +0.007 A 
ATOM     34  C   UNL     1      46.757  94.058  35.582  0.00  0.00    -0.029 A 
ATOM     35  C   UNL     1      45.727  95.124  35.142  0.00  0.00    +0.045 C 
ENDROOT
BRANCH  10   9
ATOM      4  C   UNL     1      50.299  98.414  34.829  0.00  0.00    +0.077 A 
ATOM      5  C   UNL     1      50.379  98.578  36.252  0.00  0.00    +0.048 A 
ATOM      6  C   UNL     1      49.858  97.538  37.055  0.00  0.00    +0.116 A 
ATOM      7  N   UNL     1      49.301  96.423  36.468  0.00  0.00    -0.223 NA
ATOM      8  C   UNL     1      49.238  96.297  35.092  0.00  0.00    +0.220 A 
ATOM      9  N   UNL     1      48.690  95.181  34.480  0.00  0.00    -0.283 N 
ATOM     36  H   UNL     1      48.655  95.130  33.462  0.00  0.00    +0.155 HD
ATOM     37  N   UNL     1      49.727  97.277  34.303  0.00  0.00    -0.214 NA
BRANCH   4   3
ATOM      1  C   UNL     1      51.968 100.069  31.702  0.00  0.00    +0.020 A 
ATOM      2  C   UNL     1      51.495  99.055  32.616  0.00  0.00    +0.013 A 
ATOM      3  C   UNL     1      50.809  99.424  33.848  0.00  0.00    +0.019 A 
ATOM     38  C   UNL     1      50.614 100.838  34.127  0.00  0.00    +0.120 A 
ATOM     39  N   UNL     1      51.081 101.793  33.228  0.00  0.00    -0.263 NA
ATOM     40  C   UNL     1      51.745 101.450  32.041  0.00  0.00    +0.111 A 
ENDBRANCH   4   3
ENDBRANCH  10   9
BRANCH  12  13
ATOM     13  N   UNL     1      49.465  90.941  36.965  0.00  0.00    -0.281 N 
ATOM     14  C   UNL     1      50.140  90.882  38.173  0.00  0.00    +0.248 C 
ATOM     30  O   UNL     1      50.278  91.828  38.935  0.00  0.00    -0.270 OA
ATOM     31  H   UNL     1      49.592  90.144  36.342  0.00  0.00    +0.155 HD
BRANCH  14  15
ATOM     15  C   UNL     1      50.766  89.590  38.589  0.00  0.00    +0.037 A 
ATOM     16  C   UNL     1      51.070  89.310  39.994  0.00  0.00    +0.013 A 
ATOM     17  C   UNL     1      51.689  88.062  40.366  0.00  0.00    +0.005 A 
ATOM     18  C   UNL     1      52.007  87.084  39.328  0.00  0.00    -0.033 A 
ATOM     28  C   UNL     1      51.690  87.385  37.942  0.00  0.00    +0.005 A 
ATOM     29  C   UNL     1      51.084  88.608  37.574  0.00  0.00    +0.013 A 
BRANCH  18  19
ATOM     19  C   UNL     1      52.688  85.736  39.631  0.00  0.00    +0.119 C 
BRANCH  19  20
ATOM     20  N   UNL     1      52.229  84.548  38.850  0.00  0.00    -0.302 NA
ATOM     21  C   UNL     1      52.073  83.306  39.731  0.00  0.00    +0.066 C 
ATOM     22  C   UNL     1      51.572  82.079  38.902  0.00  0.00    -0.064 C 
ATOM     23  N   UNL     1      52.547  81.810  37.754  0.00  0.00    +0.379 N 
ATOM     24  C   UNL     1      52.109  80.621  37.008  0.00  0.00    -0.096 C 
ATOM     25  H   UNL     1      53.541  81.581  38.202  0.00  0.00    -0.082 HD
ATOM     26  C   UNL     1      52.710  83.041  36.874  0.00  0.00    -0.064 C 
ATOM     27  C   UNL     1      53.180  84.262  37.713  0.00  0.00    +0.066 C 
ENDBRANCH  19  20
ENDBRANCH  18  19
ENDBRANCH  14  15
ENDBRANCH  12  13
TORSDOF 6
ENDMDL
MODEL 4
REMARK VINA RESULT:     -10.4      2.297      3.130
REMARK  Name = C:\Users\Docking\Desktop\test protocol\1iep_ligandH.pdb
REMARK  8 active torsions:
REMARK  status: ('A' for Active; 'I' for Inactive)
REMARK    1  A    between atoms: _5  and  _11
REMARK    2  A    between atoms: _19  and  _21
REMARK    3  A    between atoms: _22  and  _66
REMARK    4  A    between atoms: _27  and  _30
REMARK    5  A    between atoms: _32  and  _33
REMARK    6  A    between atoms: _38  and  _43
REMARK    7  A    between atoms: _43  and  _46
REMARK    8  A    between atoms: _53  and  _55
REMARK                            x       y       z     vdW  Elec       q    Type
REMARK                         _______ _______ _______ _____ _____    ______ ____
ROOT
ATOM     10  C   UNL     1      49.089  91.270  36.957  0.00  0.00    +0.038 A 
ATOM     11  C   UNL     1      49.685  92.485  36.531  0.00  0.00    +0.047 A 
ATOM     12  C   UNL     1      48.873  93.651  36.217  0.00  0.00    +0.035 A 
ATOM     32  C   UNL     1      47.458  93.545  36.349  0.00  0.00    +0.024 A 
ATOM     33  C   UNL     1      46.836  92.317  36.780  0.00  0.00    +0.007 A 
ATOM     34  C   UNL     1      47.631  91.163  37.089  0.00  0.00    -0.029 A 
ATOM     35  C   UNL     1      46.910  89.871  37.540  0.00  0.00    +0.045 C 
ENDROOT
BRANCH  10   9
ATOM      4  C   UNL     1      51.728  88.646  39.989  0.00  0.00    +0.077 A 
ATOM      5  C   UNL     1      51.458  89.533  41.084  0.00  0.00    +0.048 A 
ATOM      6  C   UNL     1      50.641  90.656  40.824  0.00  0.00    +0.116 A 
ATOM      7  N   UNL     1      50.138  90.867  39.559  0.00  0.00    -0.223 NA
ATOM      8  C   UNL     1      50.419  89.994  38.524  0.00  0.00    +0.220 A 
ATOM      9  N   UNL     1      49.916  90.182  37.246  0.00  0.00    -0.283 N 
ATOM     36  H   UNL     1      50.153  89.519  36.508  0.00  0.00    +0.155 HD
ATOM     37  N   UNL     1      51.197  88.914  38.747  0.00  0.00    -0.214 NA
BRANCH   4   3
ATOM      1  C   UNL     1      54.532  85.975  39.441  0.00  0.00    +0.020 A 
ATOM      2  C   UNL     1      53.752  87.182  39.287  0.00  0.00    +0.013 A 
ATOM      3  C   UNL     1      52.570  87.414  40.107  0.00  0.00    +0.019 A 
ATOM     38  C   UNL     1      52.202  86.399  41.082  0.00  0.00    +0.120 A 
ATOM     39  N   UNL     1      52.971  85.246  41.207  0.00  0.00    -0.263 NA
ATOM     40  C   UNL     1      54.109  85.011  40.422  0.00  0.00    +0.111 A 
ENDBRANCH   4   3
ENDBRANCH  10   9
BRANCH  12  13
ATOM     13  N   UNL     1      49.421  94.908  35.772  0.00  0.00    -0.281 N 
ATOM     14  C   UNL     1      49.133  95.598  34.606  0.00  0.00    +0.248 C 
ATOM     30  O   UNL     1      48.516  95.129  33.661  0.00  0.00    -0.270 OA
ATOM     31  H   UNL     1      50.104  95.343  36.393  0.00  0.00    +0.155 HD
BRANCH  14  15
ATOM     15  C   UNL     1      49.613  97.006  34.462  0.00  0.00    +0.037 A 
ATOM     16  C   UNL     1      48.896  98.120  35.087  0.00  0.00    +0.013 A 
ATOM     17  C   UNL     1      49.371  99.471  34.919  0.00  0.00    +0.005 A 
ATOM     18  C   UNL     1      50.571  99.714  34.122  0.00  0.00    -0.033 A 
ATOM     28  C   UNL     1      51.266  98.590  33.518  0.00  0.00    +0.005 A 
ATOM     29  C   UNL     1      50.803  97.264  33.680  0.00  0.00    +0.013 A 
BRANCH  18  19
ATOM     19  C   UNL     1      51.137 101.124  33.872  0.00  0.00    +0.119 C 
BRANCH  19  20
ATOM     20  N   UNL     1      52.467 101.218  33.198  0.00  0.00    -0.302 NA
ATOM     21  C   UNL     1      53.403 102.199  33.909  0.00  0.00    +0.066 C 
ATOM     22  C   UNL     1      54.797 102.268  33.204  0.00  0.00    -0.064 C 
ATOM     23  N   UNL     1      54.606 102.666  31.739  0.00  0.00    +0.379 N 
ATOM     24  C   UNL     1      55.918 102.788  31.089  0.00  0.00    -0.096 C 
ATOM     25  H   UNL     1      54.125 103.671  31.723  0.00  0.00    -0.082 HD
ATOM     26  C   UNL     1      53.673 101.697  31.026  0.00  0.00    -0.064 C 
ATOM     27  C   UNL     1      52.301 101.614  31.751  0.00  0.00    +0.066 C 
ENDBRANCH  19  20
ENDBRANCH  18  19
ENDBRANCH  14  15
ENDBRANCH  12  13
TORSDOF 6
ENDMDL
MODEL 5
REMARK VINA RESULT:     -10.3      2.820      4.274
REMARK  Name = C:\Users\Docking\Desktop\test protocol\1iep_ligandH.pdb
REMARK  8 active torsions:
REMARK  status: ('A' for Active; 'I' for Inactive)
REMARK    1  A    between atoms: _5  and  _11
REMARK    2  A    between atoms: _19  and  _21
REMARK    3  A    between atoms: _22  and  _66
REMARK    4  A    between atoms: _27  and  _30
REMARK    5  A    between atoms: _32  and  _33
REMARK    6  A    between atoms: _38  and  _43
REMARK    7  A    between atoms: _43  and  _46
REMARK    8  A    between atoms: _53  and  _55
REMARK                            x       y       z     vdW  Elec       q    Type
REMARK                         _______ _______ _______ _____ _____    ______ ____
ROOT
ATOM     10  C   UNL     1      48.788  91.177  35.954  0.00  0.00    +0.038 A 
ATOM     11  C   UNL     1      49.245  92.472  35.602  0.00  0.00    +0.047 A 
ATOM     12  C   UNL     1      48.403  93.388  34.848  0.00  0.00    +0.035 A 
ATOM     32  C   UNL     1      47.100  92.952  34.469  0.00  0.00    +0.024 A 
ATOM     33  C   UNL     1      46.620  91.638  34.817  0.00  0.00    +0.007 A 
ATOM     34  C   UNL     1      47.446  90.729  35.560  0.00  0.00    -0.029 A 
ATOM     35  C   UNL     1      46.882  89.330  35.900  0.00  0.00    +0.045 C 
ENDROOT
BRANCH  10   9
ATOM      4  C   UNL     1      50.786  89.706  40.063  0.00  0.00    +0.077 A 
ATOM      5  C   UNL     1      50.099  90.709  40.825  0.00  0.00    +0.048 A 
ATOM      6  C   UNL     1      49.247  91.588  40.120  0.00  0.00    +0.116 A 
ATOM      7  N   UNL     1      49.099  91.464  38.756  0.00  0.00    -0.223 NA
ATOM      8  C   UNL     1      49.777  90.487  38.051  0.00  0.00    +0.220 A 
ATOM      9  N   UNL     1      49.637  90.339  36.680  0.00  0.00    -0.283 N 
ATOM     36  H   UNL     1      50.161  89.610  36.195  0.00  0.00    +0.155 HD
ATOM     37  N   UNL     1      50.598  89.636  38.700  0.00  0.00    -0.214 NA
BRANCH   4   3
ATOM      1  C   UNL     1      53.842  88.060  41.866  0.00  0.00    +0.020 A 
ATOM      2  C   UNL     1      52.977  89.069  41.300  0.00  0.00    +0.013 A 
ATOM      3  C   UNL     1      51.719  88.701  40.664  0.00  0.00    +0.019 A 
ATOM     38  C   UNL     1      51.361  87.291  40.617  0.00  0.00    +0.120 A 
ATOM     39  N   UNL     1      52.215  86.341  41.170  0.00  0.00    -0.263 NA
ATOM     40  C   UNL     1      53.429  86.683  41.783  0.00  0.00    +0.111 A 
ENDBRANCH   4   3
ENDBRANCH  10   9
BRANCH  12  13
ATOM     13  N   UNL     1      48.816  94.713  34.455  0.00  0.00    -0.281 N 
ATOM     14  C   UNL     1      48.499  95.918  35.060  0.00  0.00    +0.248 C 
ATOM     30  O   UNL     1      47.632  96.057  35.909  0.00  0.00    -0.270 OA
ATOM     31  H   UNL     1      49.416  94.769  33.632  0.00  0.00    +0.155 HD
BRANCH  14  15
ATOM     15  C   UNL     1      49.242  97.149  34.651  0.00  0.00    +0.037 A 
ATOM     16  C   UNL     1      50.355  97.084  33.701  0.00  0.00    +0.013 A 
ATOM     17  C   UNL     1      51.066  98.284  33.337  0.00  0.00    +0.005 A 
ATOM     18  C   UNL     1      50.663  99.560  33.922  0.00  0.00    -0.033 A 
ATOM     28  C   UNL     1      49.552  99.597  34.858  0.00  0.00    +0.005 A 
ATOM     29  C   UNL     1      48.854  98.422  35.218  0.00  0.00    +0.013 A 
BRANCH  18  19
ATOM     19  C   UNL     1      51.379 100.887  33.607  0.00  0.00    +0.119 C 
BRANCH  19  20
ATOM     20  N   UNL     1      52.724 101.101  34.218  0.00  0.00    -0.302 NA
ATOM     21  C   UNL     1      53.820 100.327  33.479  0.00  0.00    +0.066 C 
ATOM     22  C   UNL     1      55.225 100.579  34.118  0.00  0.00    -0.064 C 
ATOM     23  N   UNL     1      55.188 100.187  35.596  0.00  0.00    +0.379 N 
ATOM     24  C   UNL     1      56.522 100.369  36.185  0.00  0.00    -0.096 C 
ATOM     25  H   UNL     1      54.938  99.103  35.652  0.00  0.00    -0.082 HD
ATOM     26  C   UNL     1      54.099 100.951  36.338  0.00  0.00    -0.064 C 
ATOM     27  C   UNL     1      52.712 100.716  35.677  0.00  0.00    +0.066 C 
ENDBRANCH  19  20
ENDBRANCH  18  19
ENDBRANCH  14  15
ENDBRANCH  12  13
TORSDOF 6
ENDMDL
