MODEL 1
REMARK VINA RESULT:     -11.4      0.000      0.000
REMARK  Name = C:\Users\Docking\Desktop\test protocol\1iep_ligandH.pdb
REMARK  8 active torsions:
REMARK  status: ('A' for Active; 'I' for Inactive)
REMARK    1  A    between atoms: _5  and  _11
REMARK    2  A    between atoms: _19  and  _21
REMARK    3  A    between atoms: _22  and  _66
REMARK    4  A    between atoms: _27  and  _30
REMARK    5  A    between atoms: _32  and  _33
REMARK    6  A    between atoms: _38  and  _43
REMARK    7  A    between atoms: _43  and  _46
REMARK    8  A    between atoms: _53  and  _55
REMARK                            x       y       z     vdW  Elec       q    Type
REMARK                         _______ _______ _______ _____ _____    ______ ____
ROOT
ATOM     10  C   UNL     1      50.583  88.036  39.476  0.00  0.00    +0.038 A 
ATOM     11  C   UNL     1      50.202  89.120  38.644  0.00  0.00    +0.047 A 
ATOM     12  C   UNL     1      50.125  90.476  39.163  0.00  0.00    +0.035 A 
ATOM     32  C   UNL     1      50.447  90.694  40.535  0.00  0.00    +0.024 A 
ATOM     33  C   UNL     1      50.835  89.604  41.395  0.00  0.00    +0.007 A 
ATOM     34  C   UNL     1      50.910  88.263  40.889  0.00  0.00    -0.029 A 
ATOM     35  C   UNL     1      51.326  87.132  41.858  0.00  0.00    +0.045 C 
ENDROOT
BRANCH  10   9
ATOM      4  C   UNL     1      52.994  84.361  37.547  0.00  0.00    +0.077 A 
ATOM      5  C   UNL     1      54.242  85.066  37.618  0.00  0.00    +0.048 A 
ATOM      6  C   UNL     1      54.219  86.374  38.151  0.00  0.00    +0.116 A 
ATOM      7  N   UNL     1      53.031  86.927  38.579  0.00  0.00    -0.223 NA
ATOM      8  C   UNL     1      51.845  86.221  38.494  0.00  0.00    +0.220 A 
ATOM      9  N   UNL     1      50.640  86.754  38.925  0.00  0.00    -0.283 N 
ATOM     36  H   UNL     1      49.786  86.204  38.839  0.00  0.00    +0.155 HD
ATOM     37  N   UNL     1      51.840  84.970  37.988  0.00  0.00    -0.214 NA
BRANCH   4   3
ATOM      1  C   UNL     1      51.845  80.659  37.026  0.00  0.00    +0.020 A 
ATOM      2  C   UNL     1      51.940  81.990  37.581  0.00  0.00    +0.013 A 
ATOM      3  C   UNL     1      52.856  82.970  37.012  0.00  0.00    +0.019 A 
ATOM     38  C   UNL     1      53.668  82.570  35.872  0.00  0.00    +0.120 A 
ATOM     39  N   UNL     1      53.555  81.281  35.360  0.00  0.00    -0.263 NA
ATOM     40  C   UNL     1      52.679  80.328  35.900  0.00  0.00    +0.111 A 
ENDBRANCH   4   3
ENDBRANCH  10   9
BRANCH  12  13
ATOM     13  N   UNL     1      49.737  91.615  38.368  0.00  0.00    -0.281 N 
ATOM     14  C   UNL     1      48.455  92.046  38.068  0.00  0.00    +0.248 C 
ATOM     30  O   UNL     1      47.442  91.391  38.263  0.00  0.00    -0.270 OA
ATOM     31  H   UNL     1      50.499  92.170  37.980  0.00  0.00    +0.155 HD
BRANCH  14  15
ATOM     15  C   UNL     1      48.274  93.395  37.449  0.00  0.00    +0.037 A 
ATOM     16  C   UNL     1      47.110  93.696  36.612  0.00  0.00    +0.013 A 
ATOM     17  C   UNL     1      46.968  95.000  36.013  0.00  0.00    +0.005 A 
ATOM     18  C   UNL     1      47.993  96.013  36.252  0.00  0.00    -0.033 A 
ATOM     28  C   UNL     1      49.134  95.689  37.091  0.00  0.00    +0.005 A 
ATOM     29  C   UNL     1      49.277  94.412  37.679  0.00  0.00    +0.013 A 
BRANCH  18  19
ATOM     19  C   UNL     1      47.934  97.423  35.636  0.00  0.00    +0.119 C 
BRANCH  19  20
ATOM     20  N   UNL     1      49.210  97.996  35.114  0.00  0.00    -0.302 NA
ATOM     21  C   UNL     1      49.122  99.512  34.917  0.00  0.00    +0.066 C 
ATOM     22  C   UNL     1      50.474 100.097  34.392  0.00  0.00    -0.064 C 
ATOM     23  N   UNL     1      50.852  99.402  33.083  0.00  0.00    +0.379 N 
ATOM     24  C   UNL     1      52.093  99.991  32.556  0.00  0.00    -0.096 C 
ATOM     25  H   UNL     1      50.041  99.606  32.345  0.00  0.00    -0.082 HD
ATOM     26  C   UNL     1      50.939  97.894  33.268  0.00  0.00    -0.064 C 
ATOM     27  C   UNL     1      49.601  97.327  33.819  0.00  0.00    +0.066 C 
ENDBRANCH  19  20
ENDBRANCH  18  19
ENDBRANCH  14  15
ENDBRANCH  12  13
TORSDOF 6
ENDMDL
MODEL 2
REMARK VINA RESULT:     -10.7      1.675      2.645
REMARK  Name = C:\Users\Docking\Desktop\test protocol\1iep_ligandH.pdb
REMARK  8 active torsions:
REMARK  status: ('A' for Active; 'I' for Inactive)
REMARK    1  A    between atoms: _5  and  _11
REMARK    2  A    between atoms: _19  and  _21
REMARK    3  A    between atoms: _22  and  _66
REMARK    4  A    between atoms: _27  and  _30
REMARK    5  A    between atoms: _32  and  _33
REMARK    6  A    between atoms: _38  and  _43
REMARK    7  A    between atoms: _43  and  _46
REMARK    8  A    between atoms: _53  and  _55
REMARK                            x       y       z     vdW  Elec       q    Type
REMARK                         _______ _______ _______ _____ _____    ______ ____
ROOT
ATOM     10  C   UNL     1      49.466  89.730  38.633  0.00  0.00    +0.038 A 
ATOM     11  C   UNL     1      49.685  90.797  37.725  0.00  0.00    +0.047 A 
ATOM     12  C   UNL     1      49.385  92.172  38.093  0.00  0.00    +0.035 A 
ATOM     32  C   UNL     1      48.865  92.424  39.396  0.00  0.00    +0.024 A 
ATOM     33  C   UNL     1      48.635  91.351  40.331  0.00  0.00    +0.007 A 
ATOM     34  C   UNL     1      48.927  89.993  39.973  0.00  0.00    -0.029 A 
ATOM     35  C   UNL     1      48.655  88.882  41.013  0.00  0.00    +0.045 C 
ENDROOT
BRANCH  10   9
ATOM      4  C   UNL     1      52.413  85.948  38.409  0.00  0.00    +0.077 A 
ATOM      5  C   UNL     1      53.441  86.631  39.140  0.00  0.00    +0.048 A 
ATOM      6  C   UNL     1      53.174  87.957  39.550  0.00  0.00    +0.116 A 
ATOM      7  N   UNL     1      51.966  88.546  39.245  0.00  0.00    -0.223 NA
ATOM      8  C   UNL     1      50.997  87.860  38.537  0.00  0.00    +0.220 A 
ATOM      9  N   UNL     1      49.772  88.429  38.227  0.00  0.00    -0.283 N 
ATOM     36  H   UNL     1      49.086  87.892  37.696  0.00  0.00    +0.155 HD
ATOM     37  N   UNL     1      51.228  86.593  38.133  0.00  0.00    -0.214 NA
BRANCH   4   3
ATOM      1  C   UNL     1      51.906  82.102  37.912  0.00  0.00    +0.020 A 
ATOM      2  C   UNL     1      51.741  83.441  38.428  0.00  0.00    +0.013 A 
ATOM      3  C   UNL     1      52.544  84.542  37.911  0.00  0.00    +0.019 A 
ATOM     38  C   UNL     1      53.511  84.253  36.864  0.00  0.00    +0.120 A 
ATOM     39  N   UNL     1      53.649  82.953  36.387  0.00  0.00    -0.263 NA
ATOM     40  C   UNL     1      52.884  81.885  36.878  0.00  0.00    +0.111 A 
ENDBRANCH   4   3
ENDBRANCH  10   9
BRANCH  12  13
ATOM     13  N   UNL     1      49.579  93.296  37.211  0.00  0.00    -0.281 N 
ATOM     14  C   UNL     1      48.620  93.985  36.486  0.00  0.00    +0.248 C 
ATOM     30  O   UNL     1      47.471  93.603  36.321  0.00  0.00    -0.270 OA
ATOM     31  H   UNL     1      50.539  93.623  37.108  0.00  0.00    +0.155 HD
BRANCH  14  15
ATOM     15  C   UNL     1      48.996  95.279  35.840  0.00  0.00    +0.037 A 
ATOM     16  C   UNL     1      49.021  95.422  34.382  0.00  0.00    +0.013 A 
ATOM     17  C   UNL     1      49.404  96.676  33.784  0.00  0.00    +0.005 A 
ATOM     18  C   UNL     1      49.763  97.800  34.646  0.00  0.00    -0.033 A 
ATOM     28  C   UNL     1      49.724  97.633  36.089  0.00  0.00    +0.005 A 
ATOM     29  C   UNL     1      49.351  96.404  36.679  0.00  0.00    +0.013 A 
BRANCH  18  19
ATOM     19  C   UNL     1      50.204  99.169  34.095  0.00  0.00    +0.119 C 
BRANCH  19  20
ATOM     20  N   UNL     1      51.509  99.227  33.372  0.00  0.00    -0.302 NA
ATOM     21  C   UNL     1      52.568 100.006  34.158  0.00  0.00    +0.066 C 
ATOM     22  C   UNL     1      53.933 100.037  33.398  0.00  0.00    -0.064 C 
ATOM     23  N   UNL     1      53.728 100.650  32.011  0.00  0.00    +0.379 N 
ATOM     24  C   UNL     1      55.021 100.734  31.316  0.00  0.00    -0.096 C 
ATOM     25  H   UNL     1      53.352 101.690  32.154  0.00  0.00    -0.082 HD
ATOM     26  C   UNL     1      52.675  99.883  31.224  0.00  0.00    -0.064 C 
ATOM     27  C   UNL     1      51.331  99.833  32.002  0.00  0.00    +0.066 C 
ENDBRANCH  19  20
ENDBRANCH  18  19
ENDBRANCH  14  15
ENDBRANCH  12  13
TORSDOF 6
ENDMDL
MODEL 3
REMARK VINA RESULT:     -10.5      2.898      5.332
REMARK  Name = C:\Users\Docking\Desktop\test protocol\1iep_ligandH.pdb
REMARK  8 active torsions:
REMARK  status: ('A' for Active; 'I' for Inactive)
REMARK    1  A    between atoms: _5  and  _11
REMARK    2  A    between atoms: _19  and  _21
REMARK    3  A    between atoms: _22  and  _66
REMARK    4  A    between atoms: _27  and  _30
REMARK    5  A    between atoms: _32  and  _33
REMARK    6  A    between atoms: _38  and  _43
REMARK    7  A    between atoms: _43  and  _46
REMARK    8  A    between atoms: _53  and  _55
REMARK                            x       y       z     vdW  Elec       q    Type
REMARK                         _______ _______ _______ _____ _____    ______ ____
ROOT
ATOM     10  C   UNL     1      48.677  91.163  36.981  0.00  0.00    +0.038 A 
ATOM     11  C   UNL     1      49.282  92.376  36.564  0.00  0.00    +0.047 A 
ATOM     12  C   UNL     1      48.480  93.548  36.250  0.00  0.00    +0.035 A 
ATOM     32  C   UNL     1      47.063  93.451  36.376  0.00  0.00    +0.024 A 
ATOM     33  C   UNL     1      46.431  92.225  36.797  0.00  0.00    +0.007 A 
ATOM     34  C   UNL     1      47.218  91.065  37.106  0.00  0.00    -0.029 A 
ATOM     35  C   UNL     1      46.486  89.776  37.547  0.00  0.00    +0.045 C 
ENDROOT
BRANCH  10   9
ATOM      4  C   UNL     1      51.409  88.594  39.976  0.00  0.00    +0.077 A 
ATOM      5  C   UNL     1      51.211  89.524  41.050  0.00  0.00    +0.048 A 
ATOM      6  C   UNL     1      50.405  90.655  40.788  0.00  0.00    +0.116 A 
ATOM      7  N   UNL     1      49.844  90.831  39.542  0.00  0.00    -0.223 NA
ATOM      8  C   UNL     1      50.056  89.915  38.528  0.00  0.00    +0.220 A 
ATOM      9  N   UNL     1      49.495  90.069  37.269  0.00  0.00    -0.283 N 
ATOM     36  H   UNL     1      49.682  89.375  36.546  0.00  0.00    +0.155 HD
ATOM     37  N   UNL     1      50.823  88.828  38.752  0.00  0.00    -0.214 NA
BRANCH   4   3
ATOM      1  C   UNL     1      54.250  85.940  39.546  0.00  0.00    +0.020 A 
ATOM      2  C   UNL     1      53.494  87.161  39.393  0.00  0.00    +0.013 A 
ATOM      3  C   UNL     1      52.232  87.349  40.098  0.00  0.00    +0.019 A 
ATOM     38  C   UNL     1      51.761  86.274  40.958  0.00  0.00    +0.120 A 
ATOM     39  N   UNL     1      52.510  85.108  41.085  0.00  0.00    -0.263 NA
ATOM     40  C   UNL     1      53.725  84.915  40.410  0.00  0.00    +0.111 A 
ENDBRANCH   4   3
ENDBRANCH  10   9
BRANCH  12  13
ATOM     13  N   UNL     1      49.038  94.804  35.814  0.00  0.00    -0.281 N 
ATOM     14  C   UNL     1      48.868  95.432  34.591  0.00  0.00    +0.248 C 
ATOM     30  O   UNL     1      48.381  94.902  33.604  0.00  0.00    -0.270 OA
ATOM     31  H   UNL     1      49.629  95.289  36.489  0.00  0.00    +0.155 HD
BRANCH  14  15
ATOM     15  C   UNL     1      49.319  96.849  34.439  0.00  0.00    +0.037 A 
ATOM     16  C   UNL     1      48.591  97.951  35.074  0.00  0.00    +0.013 A 
ATOM     17  C   UNL     1      49.037  99.310  34.897  0.00  0.00    +0.005 A 
ATOM     18  C   UNL     1      50.219  99.575  34.081  0.00  0.00    -0.033 A 
ATOM     28  C   UNL     1      50.925  98.463  33.466  0.00  0.00    +0.005 A 
ATOM     29  C   UNL     1      50.491  97.130  33.636  0.00  0.00    +0.013 A 
BRANCH  18  19
ATOM     19  C   UNL     1      50.754 100.995  33.820  0.00  0.00    +0.119 C 
BRANCH  19  20
ATOM     20  N   UNL     1      52.018 101.117  33.033  0.00  0.00    -0.302 NA
ATOM     21  C   UNL     1      53.197 101.558  33.904  0.00  0.00    +0.066 C 
ATOM     22  C   UNL     1      54.515 101.657  33.069  0.00  0.00    -0.064 C 
ATOM     23  N   UNL     1      54.307 102.630  31.907  0.00  0.00    +0.379 N 
ATOM     24  C   UNL     1      55.562 102.770  31.154  0.00  0.00    -0.096 C 
ATOM     25  H   UNL     1      54.059 103.626  32.340  0.00  0.00    -0.082 HD
ATOM     26  C   UNL     1      53.134 102.200  31.037  0.00  0.00    -0.064 C 
ATOM     27  C   UNL     1      51.836 102.075  31.882  0.00  0.00    +0.066 C 
ENDBRANCH  19  20
ENDBRANCH  18  19
ENDBRANCH  14  15
ENDBRANCH  12  13
TORSDOF 6
ENDMDL
MODEL 4
REMARK VINA RESULT:     -10.3      3.644      6.158
REMARK  Name = C:\Users\Docking\Desktop\test protocol\1iep_ligandH.pdb
REMARK  8 active torsions:
REMARK  status: ('A' for Active; 'I' for Inactive)
REMARK    1  A    between atoms: _5  and  _11
REMARK    2  A    between atoms: _19  and  _21
REMARK    3  A    between atoms: _22  and  _66
REMARK    4  A    between atoms: _27  and  _30
REMARK    5  A    between atoms: _32  and  _33
REMARK    6  A    between atoms: _38  and  _43
REMARK    7  A    between atoms: _43  and  _46
REMARK    8  A    between atoms: _53  and  _55
REMARK                            x       y       z     vdW  Elec       q    Type
REMARK                         _______ _______ _______ _____ _____    ______ ____
ROOT
ATOM     10  C   UNL     1      48.486  91.245  35.864  0.00  0.00    +0.038 A 
ATOM     11  C   UNL     1      48.960  92.535  35.515  0.00  0.00    +0.047 A 
ATOM     12  C   UNL     1      48.127  93.467  34.770  0.00  0.00    +0.035 A 
ATOM     32  C   UNL     1      46.815  93.052  34.400  0.00  0.00    +0.024 A 
ATOM     33  C   UNL     1      46.317  91.743  34.746  0.00  0.00    +0.007 A 
ATOM     34  C   UNL     1      47.135  90.819  35.478  0.00  0.00    -0.029 A 
ATOM     35  C   UNL     1      46.553  89.427  35.816  0.00  0.00    +0.045 C 
ENDROOT
BRANCH  10   9
ATOM      4  C   UNL     1      50.477  89.713  39.954  0.00  0.00    +0.077 A 
ATOM      5  C   UNL     1      49.802  90.716  40.727  0.00  0.00    +0.048 A 
ATOM      6  C   UNL     1      48.957  91.611  40.033  0.00  0.00    +0.116 A 
ATOM      7  N   UNL     1      48.806  91.502  38.668  0.00  0.00    -0.223 NA
ATOM      8  C   UNL     1      49.472  90.524  37.952  0.00  0.00    +0.220 A 
ATOM      9  N   UNL     1      49.328  90.391  36.580  0.00  0.00    -0.283 N 
ATOM     36  H   UNL     1      49.843  89.661  36.087  0.00  0.00    +0.155 HD
ATOM     37  N   UNL     1      50.286  89.658  38.592  0.00  0.00    -0.214 NA
BRANCH   4   3
ATOM      1  C   UNL     1      53.523  88.017  41.727  0.00  0.00    +0.020 A 
ATOM      2  C   UNL     1      52.668  89.041  41.172  0.00  0.00    +0.013 A 
ATOM      3  C   UNL     1      51.400  88.692  40.544  0.00  0.00    +0.019 A 
ATOM     38  C   UNL     1      51.023  87.288  40.494  0.00  0.00    +0.120 A 
ATOM     39  N   UNL     1      51.867  86.324  41.036  0.00  0.00    -0.263 NA
ATOM     40  C   UNL     1      53.091  86.647  41.641  0.00  0.00    +0.111 A 
ENDBRANCH   4   3
ENDBRANCH  10   9
BRANCH  12  13
ATOM     13  N   UNL     1      48.557  94.787  34.381  0.00  0.00    -0.281 N 
ATOM     14  C   UNL     1      48.220  95.998  34.962  0.00  0.00    +0.248 C 
ATOM     30  O   UNL     1      47.323  96.147  35.778  0.00  0.00    -0.270 OA
ATOM     31  H   UNL     1      49.186  94.833  33.579  0.00  0.00    +0.155 HD
BRANCH  14  15
ATOM     15  C   UNL     1      48.981  97.224  34.568  0.00  0.00    +0.037 A 
ATOM     16  C   UNL     1      48.647  98.536  35.126  0.00  0.00    +0.013 A 
ATOM     17  C   UNL     1      49.385  99.705  34.717  0.00  0.00    +0.005 A 
ATOM     18  C   UNL     1      50.466  99.565  33.745  0.00  0.00    -0.033 A 
ATOM     28  C   UNL     1      50.780  98.250  33.211  0.00  0.00    +0.005 A 
ATOM     29  C   UNL     1      50.058  97.102  33.609  0.00  0.00    +0.013 A 
BRANCH  18  19
ATOM     19  C   UNL     1      51.293 100.760  33.235  0.00  0.00    +0.119 C 
BRANCH  19  20
ATOM     20  N   UNL     1      52.574 101.057  33.943  0.00  0.00    -0.302 NA
ATOM     21  C   UNL     1      53.729 100.195  33.427  0.00  0.00    +0.066 C 
ATOM     22  C   UNL     1      55.066 100.534  34.162  0.00  0.00    -0.064 C 
ATOM     23  N   UNL     1      54.879 100.343  35.668  0.00  0.00    +0.379 N 
ATOM     24  C   UNL     1      56.151 100.606  36.358  0.00  0.00    -0.096 C 
ATOM     25  H   UNL     1      54.613  99.275  35.843  0.00  0.00    -0.082 HD
ATOM     26  C   UNL     1      53.730 101.195  36.190  0.00  0.00    -0.064 C 
ATOM     27  C   UNL     1      52.413 100.871  35.432  0.00  0.00    +0.066 C 
ENDBRANCH  19  20
ENDBRANCH  18  19
ENDBRANCH  14  15
ENDBRANCH  12  13
TORSDOF 6
ENDMDL
MODEL 5
REMARK VINA RESULT:     -10.3      2.897      5.354
REMARK  Name = C:\Users\Docking\Desktop\test protocol\1iep_ligandH.pdb
REMARK  8 active torsions:
REMARK  status: ('A' for Active; 'I' for Inactive)
REMARK    1  A    between atoms: _5  and  _11
REMARK    2  A    between atoms: _19  and  _21
REMARK    3  A    between atoms: _22  and  _66
REMARK    4  A    between atoms: _27  and  _30
REMARK    5  A    between atoms: _32  and  _33
REMARK    6  A    between atoms: _38  and  _43
REMARK    7  A    between atoms: _43  and  _46
REMARK    8  A    between atoms: _53  and  _55
REMARK                            x       y       z     vdW  Elec       q    Type
REMARK                         _______ _______ _______ _____ _____    ______ ____
ROOT
ATOM     10  C   UNL     1      48.680  91.237  36.985  0.00  0.00    +0.038 A 
ATOM     11  C   UNL     1      49.297  92.435  36.544  0.00  0.00    +0.047 A 
ATOM     12  C   UNL     1      48.510  93.618  36.234  0.00  0.00    +0.035 A 
ATOM     32  C   UNL     1      47.094  93.546  36.387  0.00  0.00    +0.024 A 
ATOM     33  C   UNL     1      46.450  92.336  36.833  0.00  0.00    +0.007 A 
ATOM     34  C   UNL     1      47.221  91.165  37.138  0.00  0.00    -0.029 A 
ATOM     35  C   UNL     1      46.477  89.894  37.607  0.00  0.00    +0.045 C 
ENDROOT
BRANCH  10   9
ATOM      4  C   UNL     1      51.383  88.624  39.969  0.00  0.00    +0.077 A 
ATOM      5  C   UNL     1      51.198  89.554  41.045  0.00  0.00    +0.048 A 
ATOM      6  C   UNL     1      50.407  90.695  40.788  0.00  0.00    +0.116 A 
ATOM      7  N   UNL     1      49.846  90.882  39.543  0.00  0.00    -0.223 NA
ATOM      8  C   UNL     1      50.045  89.967  38.526  0.00  0.00    +0.220 A 
ATOM      9  N   UNL     1      49.484  90.131  37.269  0.00  0.00    -0.283 N 
ATOM     36  H   UNL     1      49.661  89.437  36.543  0.00  0.00    +0.155 HD
ATOM     37  N   UNL     1      50.798  88.869  38.746  0.00  0.00    -0.214 NA
BRANCH   4   3
ATOM      1  C   UNL     1      54.183  85.930  39.517  0.00  0.00    +0.020 A 
ATOM      2  C   UNL     1      53.442  87.161  39.368  0.00  0.00    +0.013 A 
ATOM      3  C   UNL     1      52.190  87.368  40.086  0.00  0.00    +0.019 A 
ATOM     38  C   UNL     1      51.713  86.302  40.953  0.00  0.00    +0.120 A 
ATOM     39  N   UNL     1      52.448  85.127  41.076  0.00  0.00    -0.263 NA
ATOM     40  C   UNL     1      53.653  84.915  40.389  0.00  0.00    +0.111 A 
ENDBRANCH   4   3
ENDBRANCH  10   9
BRANCH  12  13
ATOM     13  N   UNL     1      49.081  94.859  35.774  0.00  0.00    -0.281 N 
ATOM     14  C   UNL     1      48.873  95.494  34.561  0.00  0.00    +0.248 C 
ATOM     30  O   UNL     1      48.328  94.980  33.596  0.00  0.00    -0.270 OA
ATOM     31  H   UNL     1      49.715  95.327  36.422  0.00  0.00    +0.155 HD
BRANCH  14  15
ATOM     15  C   UNL     1      49.354  96.899  34.389  0.00  0.00    +0.037 A 
ATOM     16  C   UNL     1      48.710  98.013  35.090  0.00  0.00    +0.013 A 
ATOM     17  C   UNL     1      49.183  99.361  34.894  0.00  0.00    +0.005 A 
ATOM     18  C   UNL     1      50.308  99.601  33.993  0.00  0.00    -0.033 A 
ATOM     28  C   UNL     1      50.931  98.477  33.314  0.00  0.00    +0.005 A 
ATOM     29  C   UNL     1      50.470  97.155  33.503  0.00  0.00    +0.013 A 
BRANCH  18  19
ATOM     19  C   UNL     1      50.865 101.009  33.707  0.00  0.00    +0.119 C 
BRANCH  19  20
ATOM     20  N   UNL     1      52.154 101.380  34.363  0.00  0.00    -0.302 NA
ATOM     21  C   UNL     1      53.355 101.145  33.442  0.00  0.00    +0.066 C 
ATOM     22  C   UNL     1      54.693 101.559  34.135  0.00  0.00    -0.064 C 
ATOM     23  N   UNL     1      54.851 100.778  35.441  0.00  0.00    +0.379 N 
ATOM     24  C   UNL     1      56.137 101.123  36.066  0.00  0.00    -0.096 C 
ATOM     25  H   UNL     1      54.880  99.694  35.184  0.00  0.00    -0.082 HD
ATOM     26  C   UNL     1      53.660 101.004  36.361  0.00  0.00    -0.064 C 
ATOM     27  C   UNL     1      52.333 100.616  35.652  0.00  0.00    +0.066 C 
ENDBRANCH  19  20
ENDBRANCH  18  19
ENDBRANCH  14  15
ENDBRANCH  12  13
TORSDOF 6
ENDMDL
