MODEL 1
REMARK VINA RESULT:      -8.0      0.000      0.000
REMARK  Name = C:\Users\Docking\Desktop\test protocol\1iep_ligandH.pdb
REMARK  8 active torsions:
REMARK  status: ('A' for Active; 'I' for Inactive)
REMARK    1  A    between atoms: _5  and  _11
REMARK    2  A    between atoms: _19  and  _21
REMARK    3  A    between atoms: _22  and  _66
REMARK    4  A    between atoms: _27  and  _30
REMARK    5  A    between atoms: _32  and  _33
REMARK    6  A    between atoms: _38  and  _43
REMARK    7  A    between atoms: _43  and  _46
REMARK    8  A    between atoms: _53  and  _55
REMARK                            x       y       z     vdW  Elec       q    Type
REMARK                         _______ _______ _______ _____ _____    ______ ____
ROOT
ATOM     10  C   UNL     1      20.117  25.747   4.223  0.00  0.00    +0.038 A 
ATOM     11  C   UNL     1      18.785  25.537   4.662  0.00  0.00    +0.047 A 
ATOM     12  C   UNL     1      18.216  24.200   4.728  0.00  0.00    +0.035 A 
ATOM     32  C   UNL     1      19.034  23.098   4.342  0.00  0.00    +0.024 A 
ATOM     33  C   UNL     1      20.390  23.293   3.892  0.00  0.00    +0.007 A 
ATOM     34  C   UNL     1      20.955  24.611   3.823  0.00  0.00    -0.029 A 
ATOM     35  C   UNL     1      22.412  24.761   3.327  0.00  0.00    +0.045 C 
ENDROOT
BRANCH  10   9
ATOM      4  C   UNL     1      21.133  29.813   1.884  0.00  0.00    +0.077 A 
ATOM      5  C   UNL     1      20.662  29.282   0.636  0.00  0.00    +0.048 A 
ATOM      6  C   UNL     1      20.173  27.956   0.639  0.00  0.00    +0.116 A 
ATOM      7  N   UNL     1      20.160  27.225   1.807  0.00  0.00    -0.223 NA
ATOM      8  C   UNL     1      20.623  27.767   2.992  0.00  0.00    +0.220 A 
ATOM      9  N   UNL     1      20.612  27.052   4.180  0.00  0.00    -0.283 N 
ATOM     36  H   UNL     1      20.969  27.485   5.032  0.00  0.00    +0.155 HD
ATOM     37  N   UNL     1      21.096  29.030   3.016  0.00  0.00    -0.214 NA
BRANCH   4   3
ATOM      1  C   UNL     1      21.935  33.367   3.307  0.00  0.00    +0.020 A 
ATOM      2  C   UNL     1      21.385  32.035   3.201  0.00  0.00    +0.013 A 
ATOM      3  C   UNL     1      21.676  31.199   2.043  0.00  0.00    +0.019 A 
ATOM     38  C   UNL     1      22.534  31.744   1.002  0.00  0.00    +0.120 A 
ATOM     39  N   UNL     1      23.049  33.030   1.131  0.00  0.00    -0.263 NA
ATOM     40  C   UNL     1      22.774  33.845   2.240  0.00  0.00    +0.111 A 
ENDBRANCH   4   3
ENDBRANCH  10   9
BRANCH  12  13
ATOM     13  N   UNL     1      16.867  23.926   5.158  0.00  0.00    -0.281 N 
ATOM     14  C   UNL     1      16.454  23.329   6.338  0.00  0.00    +0.248 C 
ATOM     30  O   UNL     1      17.195  22.744   7.113  0.00  0.00    -0.270 OA
ATOM     31  H   UNL     1      16.127  24.206   4.514  0.00  0.00    +0.155 HD
BRANCH  14  15
ATOM     15  C   UNL     1      15.005  23.377   6.702  0.00  0.00    +0.037 A 
ATOM     16  C   UNL     1      13.996  23.839   5.746  0.00  0.00    +0.013 A 
ATOM     17  C   UNL     1      12.607  23.891   6.129  0.00  0.00    +0.005 A 
ATOM     18  C   UNL     1      12.220  23.480   7.476  0.00  0.00    -0.033 A 
ATOM     28  C   UNL     1      13.241  23.021   8.403  0.00  0.00    +0.005 A 
ATOM     29  C   UNL     1      14.603  22.969   8.032  0.00  0.00    +0.013 A 
BRANCH  18  19
ATOM     19  C   UNL     1      10.764  23.523   7.978  0.00  0.00    +0.119 C 
BRANCH  19  20
ATOM     20  N   UNL     1      10.056  24.836   7.909  0.00  0.00    -0.302 NA
ATOM     21  C   UNL     1      10.827  25.944   8.633  0.00  0.00    +0.066 C 
ATOM     22  C   UNL     1      10.083  27.315   8.531  0.00  0.00    -0.064 C 
ATOM     23  N   UNL     1       8.674  27.172   9.107  0.00  0.00    +0.379 N 
ATOM     24  C   UNL     1       7.992  28.473   9.066  0.00  0.00    -0.096 C 
ATOM     25  H   UNL     1       8.774  26.876  10.177  0.00  0.00    -0.082 HD
ATOM     26  C   UNL     1       7.901  26.071   8.395  0.00  0.00    -0.064 C 
ATOM     27  C   UNL     1       8.663  24.719   8.476  0.00  0.00    +0.066 C 
ENDBRANCH  19  20
ENDBRANCH  18  19
ENDBRANCH  14  15
ENDBRANCH  12  13
TORSDOF 6
ENDMDL
MODEL 2
REMARK VINA RESULT:      -7.9      3.915     12.835
REMARK  Name = C:\Users\Docking\Desktop\test protocol\1iep_ligandH.pdb
REMARK  8 active torsions:
REMARK  status: ('A' for Active; 'I' for Inactive)
REMARK    1  A    between atoms: _5  and  _11
REMARK    2  A    between atoms: _19  and  _21
REMARK    3  A    between atoms: _22  and  _66
REMARK    4  A    between atoms: _27  and  _30
REMARK    5  A    between atoms: _32  and  _33
REMARK    6  A    between atoms: _38  and  _43
REMARK    7  A    between atoms: _43  and  _46
REMARK    8  A    between atoms: _53  and  _55
REMARK                            x       y       z     vdW  Elec       q    Type
REMARK                         _______ _______ _______ _____ _____    ______ ____
ROOT
ATOM     10  C   UNL     1       9.717  24.045   8.417  0.00  0.00    +0.038 A 
ATOM     11  C   UNL     1      10.922  24.240   7.695  0.00  0.00    +0.047 A 
ATOM     12  C   UNL     1      12.173  23.648   8.143  0.00  0.00    +0.035 A 
ATOM     32  C   UNL     1      12.160  22.860   9.330  0.00  0.00    +0.024 A 
ATOM     33  C   UNL     1      10.945  22.652  10.078  0.00  0.00    +0.007 A 
ATOM     34  C   UNL     1       9.708  23.236   9.642  0.00  0.00    -0.029 A 
ATOM     35  C   UNL     1       8.437  22.985  10.486  0.00  0.00    +0.045 C 
ENDROOT
BRANCH  10   9
ATOM      4  C   UNL     1       6.766  27.799   7.933  0.00  0.00    +0.077 A 
ATOM      5  C   UNL     1       7.618  28.646   8.718  0.00  0.00    +0.048 A 
ATOM      6  C   UNL     1       8.804  28.074   9.233  0.00  0.00    +0.116 A 
ATOM      7  N   UNL     1       9.104  26.754   8.977  0.00  0.00    -0.223 NA
ATOM      8  C   UNL     1       8.259  25.965   8.218  0.00  0.00    +0.220 A 
ATOM      9  N   UNL     1       8.545  24.637   7.941  0.00  0.00    -0.283 N 
ATOM     36  H   UNL     1       7.893  24.086   7.384  0.00  0.00    +0.155 HD
ATOM     37  N   UNL     1       7.121  26.486   7.716  0.00  0.00    -0.214 NA
BRANCH   4   3
ATOM      1  C   UNL     1       2.994  28.074   6.935  0.00  0.00    +0.020 A 
ATOM      2  C   UNL     1       4.207  27.591   7.554  0.00  0.00    +0.013 A 
ATOM      3  C   UNL     1       5.481  28.258   7.317  0.00  0.00    +0.019 A 
ATOM     38  C   UNL     1       5.494  29.421   6.443  0.00  0.00    +0.120 A 
ATOM     39  N   UNL     1       4.310  29.863   5.860  0.00  0.00    -0.263 NA
ATOM     40  C   UNL     1       3.079  29.228   6.079  0.00  0.00    +0.111 A 
ENDBRANCH   4   3
ENDBRANCH  10   9
BRANCH  12  13
ATOM     13  N   UNL     1      13.429  23.818   7.455  0.00  0.00    -0.281 N 
ATOM     14  C   UNL     1      13.902  23.113   6.360  0.00  0.00    +0.248 C 
ATOM     30  O   UNL     1      13.406  22.080   5.936  0.00  0.00    -0.270 OA
ATOM     31  H   UNL     1      14.043  24.546   7.819  0.00  0.00    +0.155 HD
BRANCH  14  15
ATOM     15  C   UNL     1      15.110  23.622   5.641  0.00  0.00    +0.037 A 
ATOM     16  C   UNL     1      16.395  23.775   6.328  0.00  0.00    +0.013 A 
ATOM     17  C   UNL     1      17.540  24.284   5.616  0.00  0.00    +0.005 A 
ATOM     18  C   UNL     1      17.405  24.643   4.206  0.00  0.00    -0.033 A 
ATOM     28  C   UNL     1      16.120  24.476   3.548  0.00  0.00    +0.005 A 
ATOM     29  C   UNL     1      14.995  23.978   4.243  0.00  0.00    +0.013 A 
BRANCH  18  19
ATOM     19  C   UNL     1      18.568  25.213   3.373  0.00  0.00    +0.119 C 
BRANCH  19  20
ATOM     20  N   UNL     1      19.876  24.496   3.444  0.00  0.00    -0.302 NA
ATOM     21  C   UNL     1      20.842  25.161   4.429  0.00  0.00    +0.066 C 
ATOM     22  C   UNL     1      22.197  24.385   4.507  0.00  0.00    -0.064 C 
ATOM     23  N   UNL     1      22.817  24.304   3.111  0.00  0.00    +0.379 N 
ATOM     24  C   UNL     1      24.119  23.625   3.191  0.00  0.00    -0.096 C 
ATOM     25  H   UNL     1      23.000  25.346   2.761  0.00  0.00    -0.082 HD
ATOM     26  C   UNL     1      21.862  23.647   2.125  0.00  0.00    -0.064 C 
ATOM     27  C   UNL     1      20.508  24.408   2.077  0.00  0.00    +0.066 C 
ENDBRANCH  19  20
ENDBRANCH  18  19
ENDBRANCH  14  15
ENDBRANCH  12  13
TORSDOF 6
ENDMDL
MODEL 3
REMARK VINA RESULT:      -7.8      2.480     12.529
REMARK  Name = C:\Users\Docking\Desktop\test protocol\1iep_ligandH.pdb
REMARK  8 active torsions:
REMARK  status: ('A' for Active; 'I' for Inactive)
REMARK    1  A    between atoms: _5  and  _11
REMARK    2  A    between atoms: _19  and  _21
REMARK    3  A    between atoms: _22  and  _66
REMARK    4  A    between atoms: _27  and  _30
REMARK    5  A    between atoms: _32  and  _33
REMARK    6  A    between atoms: _38  and  _43
REMARK    7  A    between atoms: _43  and  _46
REMARK    8  A    between atoms: _53  and  _55
REMARK                            x       y       z     vdW  Elec       q    Type
REMARK                         _______ _______ _______ _____ _____    ______ ____
ROOT
ATOM     10  C   UNL     1       9.801  23.909   8.420  0.00  0.00    +0.038 A 
ATOM     11  C   UNL     1      11.015  24.035   7.699  0.00  0.00    +0.047 A 
ATOM     12  C   UNL     1      12.243  23.419   8.178  0.00  0.00    +0.035 A 
ATOM     32  C   UNL     1      12.196  22.679   9.396  0.00  0.00    +0.024 A 
ATOM     33  C   UNL     1      10.970  22.541  10.142  0.00  0.00    +0.007 A 
ATOM     34  C   UNL     1       9.757  23.149   9.675  0.00  0.00    -0.029 A 
ATOM     35  C   UNL     1       8.473  22.974  10.520  0.00  0.00    +0.045 C 
ENDROOT
BRANCH  10   9
ATOM      4  C   UNL     1       6.881  27.688   7.934  0.00  0.00    +0.077 A 
ATOM      5  C   UNL     1       7.700  28.504   8.784  0.00  0.00    +0.048 A 
ATOM      6  C   UNL     1       8.860  27.911   9.331  0.00  0.00    +0.116 A 
ATOM      7  N   UNL     1       9.169  26.599   9.044  0.00  0.00    -0.223 NA
ATOM      8  C   UNL     1       8.357  25.839   8.222  0.00  0.00    +0.220 A 
ATOM      9  N   UNL     1       8.652  24.521   7.913  0.00  0.00    -0.283 N 
ATOM     36  H   UNL     1       8.023  23.991   7.309  0.00  0.00    +0.155 HD
ATOM     37  N   UNL     1       7.243  26.382   7.688  0.00  0.00    -0.214 NA
BRANCH   4   3
ATOM      1  C   UNL     1       4.313  29.848   5.925  0.00  0.00    +0.020 A 
ATOM      2  C   UNL     1       5.550  29.426   6.540  0.00  0.00    +0.013 A 
ATOM      3  C   UNL     1       5.626  28.172   7.278  0.00  0.00    +0.019 A 
ATOM     38  C   UNL     1       4.422  27.360   7.374  0.00  0.00    +0.120 A 
ATOM     39  N   UNL     1       3.244  27.792   6.773  0.00  0.00    -0.263 NA
ATOM     40  C   UNL     1       3.159  28.998   6.062  0.00  0.00    +0.111 A 
ENDBRANCH   4   3
ENDBRANCH  10   9
BRANCH  12  13
ATOM     13  N   UNL     1      13.507  23.520   7.493  0.00  0.00    -0.281 N 
ATOM     14  C   UNL     1      13.797  23.168   6.185  0.00  0.00    +0.248 C 
ATOM     30  O   UNL     1      13.060  22.511   5.466  0.00  0.00    -0.270 OA
ATOM     31  H   UNL     1      14.283  23.896   8.039  0.00  0.00    +0.155 HD
BRANCH  14  15
ATOM     15  C   UNL     1      15.102  23.597   5.595  0.00  0.00    +0.037 A 
ATOM     16  C   UNL     1      15.196  24.042   4.202  0.00  0.00    +0.013 A 
ATOM     17  C   UNL     1      16.470  24.434   3.653  0.00  0.00    +0.005 A 
ATOM     18  C   UNL     1      17.661  24.383   4.498  0.00  0.00    -0.033 A 
ATOM     28  C   UNL     1      17.538  23.942   5.877  0.00  0.00    +0.005 A 
ATOM     29  C   UNL     1      16.291  23.557   6.419  0.00  0.00    +0.013 A 
BRANCH  18  19
ATOM     19  C   UNL     1      19.064  24.762   3.989  0.00  0.00    +0.119 C 
BRANCH  19  20
ATOM     20  N   UNL     1      19.148  25.818   2.937  0.00  0.00    -0.302 NA
ATOM     21  C   UNL     1      20.373  25.637   2.037  0.00  0.00    +0.066 C 
ATOM     22  C   UNL     1      20.433  26.737   0.928  0.00  0.00    -0.064 C 
ATOM     23  N   UNL     1      20.442  28.119   1.583  0.00  0.00    +0.379 N 
ATOM     24  C   UNL     1      20.557  29.153   0.545  0.00  0.00    -0.096 C 
ATOM     25  H   UNL     1      21.351  28.182   2.226  0.00  0.00    -0.082 HD
ATOM     26  C   UNL     1      19.228  28.306   2.482  0.00  0.00    -0.064 C 
ATOM     27  C   UNL     1      19.162  27.191   3.562  0.00  0.00    +0.066 C 
ENDBRANCH  19  20
ENDBRANCH  18  19
ENDBRANCH  14  15
ENDBRANCH  12  13
TORSDOF 6
ENDMDL
MODEL 4
REMARK VINA RESULT:      -7.7      9.145     13.798
REMARK  Name = C:\Users\Docking\Desktop\test protocol\1iep_ligandH.pdb
REMARK  8 active torsions:
REMARK  status: ('A' for Active; 'I' for Inactive)
REMARK    1  A    between atoms: _5  and  _11
REMARK    2  A    between atoms: _19  and  _21
REMARK    3  A    between atoms: _22  and  _66
REMARK    4  A    between atoms: _27  and  _30
REMARK    5  A    between atoms: _32  and  _33
REMARK    6  A    between atoms: _38  and  _43
REMARK    7  A    between atoms: _43  and  _46
REMARK    8  A    between atoms: _53  and  _55
REMARK                            x       y       z     vdW  Elec       q    Type
REMARK                         _______ _______ _______ _____ _____    ______ ____
ROOT
ATOM     10  C   UNL     1       9.533  25.678   8.267  0.00  0.00    +0.038 A 
ATOM     11  C   UNL     1       8.143  25.955   8.227  0.00  0.00    +0.047 A 
ATOM     12  C   UNL     1       7.649  27.322   8.179  0.00  0.00    +0.035 A 
ATOM     32  C   UNL     1       8.599  28.384   8.170  0.00  0.00    +0.024 A 
ATOM     33  C   UNL     1      10.016  28.121   8.212  0.00  0.00    +0.007 A 
ATOM     34  C   UNL     1      10.510  26.774   8.262  0.00  0.00    -0.029 A 
ATOM     35  C   UNL     1      12.039  26.551   8.312  0.00  0.00    +0.045 C 
ENDROOT
BRANCH  10   9
ATOM      4  C   UNL     1      11.026  21.790  10.652  0.00  0.00    +0.077 A 
ATOM      5  C   UNL     1      10.995  22.477  11.911  0.00  0.00    +0.048 A 
ATOM      6  C   UNL     1      10.596  23.832  11.901  0.00  0.00    +0.116 A 
ATOM      7  N   UNL     1      10.255  24.444  10.714  0.00  0.00    -0.223 NA
ATOM      8  C   UNL     1      10.298  23.753   9.517  0.00  0.00    +0.220 A 
ATOM      9  N   UNL     1       9.952  24.346   8.313  0.00  0.00    -0.283 N 
ATOM     36  H   UNL     1      10.004  23.805   7.450  0.00  0.00    +0.155 HD
ATOM     37  N   UNL     1      10.677  22.458   9.500  0.00  0.00    -0.214 NA
BRANCH   4   3
ATOM      1  C   UNL     1      12.636  18.482   9.322  0.00  0.00    +0.020 A 
ATOM      2  C   UNL     1      12.282  19.879   9.423  0.00  0.00    +0.013 A 
ATOM      3  C   UNL     1      11.423  20.354  10.501  0.00  0.00    +0.019 A 
ATOM     38  C   UNL     1      10.937  19.382  11.468  0.00  0.00    +0.120 A 
ATOM     39  N   UNL     1      11.293  18.043  11.344  0.00  0.00    -0.263 NA
ATOM     40  C   UNL     1      12.117  17.574  10.310  0.00  0.00    +0.111 A 
ENDBRANCH   4   3
ENDBRANCH  10   9
BRANCH  12  13
ATOM     13  N   UNL     1       6.248  27.664   8.144  0.00  0.00    -0.281 N 
ATOM     14  C   UNL     1       5.322  27.364   7.159  0.00  0.00    +0.248 C 
ATOM     30  O   UNL     1       5.607  26.938   6.050  0.00  0.00    -0.270 OA
ATOM     31  H   UNL     1       5.897  28.192   8.944  0.00  0.00    +0.155 HD
BRANCH  14  15
ATOM     15  C   UNL     1       3.871  27.584   7.441  0.00  0.00    +0.037 A 
ATOM     16  C   UNL     1       2.876  26.547   7.153  0.00  0.00    +0.013 A 
ATOM     17  C   UNL     1       1.480  26.791   7.419  0.00  0.00    +0.005 A 
ATOM     18  C   UNL     1       1.072  28.078   7.978  0.00  0.00    -0.033 A 
ATOM     28  C   UNL     1       2.080  29.086   8.259  0.00  0.00    +0.005 A 
ATOM     29  C   UNL     1       3.449  28.851   7.999  0.00  0.00    +0.013 A 
BRANCH  18  19
ATOM     19  C   UNL     1      -0.397  28.432   8.274  0.00  0.00    +0.119 C 
BRANCH  19  20
ATOM     20  N   UNL     1      -0.730  28.866   9.664  0.00  0.00    -0.302 NA
ATOM     21  C   UNL     1      -1.672  27.883  10.363  0.00  0.00    +0.066 C 
ATOM     22  C   UNL     1      -1.991  28.340  11.824  0.00  0.00    -0.064 C 
ATOM     23  N   UNL     1      -2.598  29.744  11.794  0.00  0.00    +0.379 N 
ATOM     24  C   UNL     1      -2.953  30.154  13.161  0.00  0.00    -0.096 C 
ATOM     25  H   UNL     1      -3.541  29.693  11.201  0.00  0.00    -0.082 HD
ATOM     26  C   UNL     1      -1.668  30.728  11.098  0.00  0.00    -0.064 C 
ATOM     27  C   UNL     1      -1.334  30.249   9.658  0.00  0.00    +0.066 C 
ENDBRANCH  19  20
ENDBRANCH  18  19
ENDBRANCH  14  15
ENDBRANCH  12  13
TORSDOF 6
ENDMDL
MODEL 5
REMARK VINA RESULT:      -7.7      9.217     13.767
REMARK  Name = C:\Users\Docking\Desktop\test protocol\1iep_ligandH.pdb
REMARK  8 active torsions:
REMARK  status: ('A' for Active; 'I' for Inactive)
REMARK    1  A    between atoms: _5  and  _11
REMARK    2  A    between atoms: _19  and  _21
REMARK    3  A    between atoms: _22  and  _66
REMARK    4  A    between atoms: _27  and  _30
REMARK    5  A    between atoms: _32  and  _33
REMARK    6  A    between atoms: _38  and  _43
REMARK    7  A    between atoms: _43  and  _46
REMARK    8  A    between atoms: _53  and  _55
REMARK                            x       y       z     vdW  Elec       q    Type
REMARK                         _______ _______ _______ _____ _____    ______ ____
ROOT
ATOM     10  C   UNL     1       9.500  25.773   8.336  0.00  0.00    +0.038 A 
ATOM     11  C   UNL     1       8.107  26.025   8.250  0.00  0.00    +0.047 A 
ATOM     12  C   UNL     1       7.588  27.384   8.235  0.00  0.00    +0.035 A 
ATOM     32  C   UNL     1       8.517  28.463   8.306  0.00  0.00    +0.024 A 
ATOM     33  C   UNL     1       9.936  28.225   8.394  0.00  0.00    +0.007 A 
ATOM     34  C   UNL     1      10.454  26.887   8.412  0.00  0.00    -0.029 A 
ATOM     35  C   UNL     1      11.984  26.690   8.515  0.00  0.00    +0.045 C 
ENDROOT
BRANCH  10   9
ATOM      4  C   UNL     1      11.012  21.834  10.624  0.00  0.00    +0.077 A 
ATOM      5  C   UNL     1      10.937  22.478  11.905  0.00  0.00    +0.048 A 
ATOM      6  C   UNL     1      10.512  23.825  11.930  0.00  0.00    +0.116 A 
ATOM      7  N   UNL     1      10.188  24.470  10.756  0.00  0.00    -0.223 NA
ATOM      8  C   UNL     1      10.272  23.821   9.538  0.00  0.00    +0.220 A 
ATOM      9  N   UNL     1       9.944  24.449   8.347  0.00  0.00    -0.283 N 
ATOM     36  H   UNL     1      10.027  23.938   7.468  0.00  0.00    +0.155 HD
ATOM     37  N   UNL     1      10.677  22.535   9.487  0.00  0.00    -0.214 NA
BRANCH   4   3
ATOM      1  C   UNL     1      11.434  17.971  11.070  0.00  0.00    +0.020 A 
ATOM      2  C   UNL     1      10.991  19.327  11.297  0.00  0.00    +0.013 A 
ATOM      3  C   UNL     1      11.440  20.412  10.434  0.00  0.00    +0.019 A 
ATOM     38  C   UNL     1      12.344  20.089   9.341  0.00  0.00    +0.120 A 
ATOM     39  N   UNL     1      12.755  18.774   9.147  0.00  0.00    -0.263 NA
ATOM     40  C   UNL     1      12.331  17.722   9.972  0.00  0.00    +0.111 A 
ENDBRANCH   4   3
ENDBRANCH  10   9
BRANCH  12  13
ATOM     13  N   UNL     1       6.184  27.702   8.158  0.00  0.00    -0.281 N 
ATOM     14  C   UNL     1       5.302  27.417   7.128  0.00  0.00    +0.248 C 
ATOM     30  O   UNL     1       5.637  27.032   6.018  0.00  0.00    -0.270 OA
ATOM     31  H   UNL     1       5.792  28.196   8.960  0.00  0.00    +0.155 HD
BRANCH  14  15
ATOM     15  C   UNL     1       3.837  27.600   7.361  0.00  0.00    +0.037 A 
ATOM     16  C   UNL     1       3.309  28.835   7.945  0.00  0.00    +0.013 A 
ATOM     17  C   UNL     1       1.893  28.979   8.175  0.00  0.00    +0.005 A 
ATOM     18  C   UNL     1       0.995  27.884   7.819  0.00  0.00    -0.033 A 
ATOM     28  C   UNL     1       1.545  26.671   7.236  0.00  0.00    +0.005 A 
ATOM     29  C   UNL     1       2.932  26.526   7.010  0.00  0.00    +0.013 A 
BRANCH  18  19
ATOM     19  C   UNL     1      -0.527  27.942   8.048  0.00  0.00    +0.119 C 
BRANCH  19  20
ATOM     20  N   UNL     1      -1.027  27.599   9.414  0.00  0.00    -0.302 NA
ATOM     21  C   UNL     1      -2.276  26.715   9.363  0.00  0.00    +0.066 C 
ATOM     22  C   UNL     1      -2.772  26.348  10.800  0.00  0.00    -0.064 C 
ATOM     23  N   UNL     1      -3.047  27.631  11.585  0.00  0.00    +0.379 N 
ATOM     24  C   UNL     1      -3.568  27.289  12.916  0.00  0.00    -0.096 C 
ATOM     25  H   UNL     1      -3.843  28.194  11.044  0.00  0.00    -0.082 HD
ATOM     26  C   UNL     1      -1.810  28.517  11.638  0.00  0.00    -0.064 C 
ATOM     27  C   UNL     1      -1.309  28.852  10.205  0.00  0.00    +0.066 C 
ENDBRANCH  19  20
ENDBRANCH  18  19
ENDBRANCH  14  15
ENDBRANCH  12  13
TORSDOF 6
ENDMDL
