MODEL 1
REMARK VINA RESULT:      -7.6      0.000      0.000
REMARK  Name = C:\Users\Docking\Desktop\test protocol\1iep_ligandH.pdb
REMARK  8 active torsions:
REMARK  status: ('A' for Active; 'I' for Inactive)
REMARK    1  A    between atoms: _5  and  _11
REMARK    2  A    between atoms: _19  and  _21
REMARK    3  A    between atoms: _22  and  _66
REMARK    4  A    between atoms: _27  and  _30
REMARK    5  A    between atoms: _32  and  _33
REMARK    6  A    between atoms: _38  and  _43
REMARK    7  A    between atoms: _43  and  _46
REMARK    8  A    between atoms: _53  and  _55
REMARK                            x       y       z     vdW  Elec       q    Type
REMARK                         _______ _______ _______ _____ _____    ______ ____
ROOT
ATOM     10  C   UNL     1      44.362  53.008   9.395  0.00  0.00    +0.038 A 
ATOM     11  C   UNL     1      45.700  52.743   9.004  0.00  0.00    +0.047 A 
ATOM     12  C   UNL     1      46.257  53.321   7.791  0.00  0.00    +0.035 A 
ATOM     32  C   UNL     1      45.425  54.166   7.001  0.00  0.00    +0.024 A 
ATOM     33  C   UNL     1      44.063  54.445   7.383  0.00  0.00    +0.007 A 
ATOM     34  C   UNL     1      43.507  53.877   8.577  0.00  0.00    -0.029 A 
ATOM     35  C   UNL     1      42.039  54.205   8.934  0.00  0.00    +0.045 C 
ENDROOT
BRANCH  10   9
ATOM      4  C   UNL     1      42.018  49.545  11.750  0.00  0.00    +0.077 A 
ATOM      5  C   UNL     1      41.709  48.847  10.535  0.00  0.00    +0.048 A 
ATOM      6  C   UNL     1      42.165  49.416   9.325  0.00  0.00    +0.116 A 
ATOM      7  N   UNL     1      42.877  50.596   9.341  0.00  0.00    -0.223 NA
ATOM      8  C   UNL     1      43.157  51.244  10.530  0.00  0.00    +0.220 A 
ATOM      9  N   UNL     1      43.878  52.428  10.569  0.00  0.00    -0.283 N 
ATOM     36  H   UNL     1      44.057  52.879  11.466  0.00  0.00    +0.155 HD
ATOM     37  N   UNL     1      42.731  50.722  11.698  0.00  0.00    -0.214 NA
BRANCH   4   3
ATOM      1  C   UNL     1      41.386  47.285  14.880  0.00  0.00    +0.020 A 
ATOM      2  C   UNL     1      41.800  47.694  13.557  0.00  0.00    +0.013 A 
ATOM      3  C   UNL     1      41.608  49.068  13.109  0.00  0.00    +0.019 A 
ATOM     38  C   UNL     1      40.991  50.010  14.030  0.00  0.00    +0.120 A 
ATOM     39  N   UNL     1      40.601  49.587  15.297  0.00  0.00    -0.263 NA
ATOM     40  C   UNL     1      40.779  48.267  15.739  0.00  0.00    +0.111 A 
ENDBRANCH   4   3
ENDBRANCH  10   9
BRANCH  12  13
ATOM     13  N   UNL     1      47.606  53.081   7.339  0.00  0.00    -0.281 N 
ATOM     14  C   UNL     1      48.734  53.846   7.584  0.00  0.00    +0.248 C 
ATOM     30  O   UNL     1      48.716  54.974   8.054  0.00  0.00    -0.270 OA
ATOM     31  H   UNL     1      47.745  52.246   6.770  0.00  0.00    +0.155 HD
BRANCH  14  15
ATOM     15  C   UNL     1      50.076  53.281   7.245  0.00  0.00    +0.037 A 
ATOM     16  C   UNL     1      51.279  54.118   7.265  0.00  0.00    +0.013 A 
ATOM     17  C   UNL     1      52.559  53.552   6.917  0.00  0.00    +0.005 A 
ATOM     18  C   UNL     1      52.642  52.141   6.547  0.00  0.00    -0.033 A 
ATOM     28  C   UNL     1      51.433  51.334   6.541  0.00  0.00    +0.005 A 
ATOM     29  C   UNL     1      50.177  51.884   6.880  0.00  0.00    +0.013 A 
BRANCH  18  19
ATOM     19  C   UNL     1      53.961  51.459   6.141  0.00  0.00    +0.119 C 
BRANCH  19  20
ATOM     20  N   UNL     1      54.016  49.969   6.226  0.00  0.00    -0.302 NA
ATOM     21  C   UNL     1      54.618  49.491   7.550  0.00  0.00    +0.066 C 
ATOM     22  C   UNL     1      54.646  47.930   7.631  0.00  0.00    -0.064 C 
ATOM     23  N   UNL     1      55.436  47.374   6.444  0.00  0.00    +0.379 N 
ATOM     24  C   UNL     1      55.513  45.910   6.549  0.00  0.00    -0.096 C 
ATOM     25  H   UNL     1      56.474  47.774   6.513  0.00  0.00    -0.082 HD
ATOM     26  C   UNL     1      54.845  47.847   5.124  0.00  0.00    -0.064 C 
ATOM     27  C   UNL     1      54.794  49.400   5.066  0.00  0.00    +0.066 C 
ENDBRANCH  19  20
ENDBRANCH  18  19
ENDBRANCH  14  15
ENDBRANCH  12  13
TORSDOF 6
ENDMDL
MODEL 2
REMARK VINA RESULT:      -7.4      1.373      1.824
REMARK  Name = C:\Users\Docking\Desktop\test protocol\1iep_ligandH.pdb
REMARK  8 active torsions:
REMARK  status: ('A' for Active; 'I' for Inactive)
REMARK    1  A    between atoms: _5  and  _11
REMARK    2  A    between atoms: _19  and  _21
REMARK    3  A    between atoms: _22  and  _66
REMARK    4  A    between atoms: _27  and  _30
REMARK    5  A    between atoms: _32  and  _33
REMARK    6  A    between atoms: _38  and  _43
REMARK    7  A    between atoms: _43  and  _46
REMARK    8  A    between atoms: _53  and  _55
REMARK                            x       y       z     vdW  Elec       q    Type
REMARK                         _______ _______ _______ _____ _____    ______ ____
ROOT
ATOM     10  C   UNL     1      44.655  53.177   9.034  0.00  0.00    +0.038 A 
ATOM     11  C   UNL     1      46.005  52.895   8.702  0.00  0.00    +0.047 A 
ATOM     12  C   UNL     1      46.607  53.424   7.488  0.00  0.00    +0.035 A 
ATOM     32  C   UNL     1      45.806  54.240   6.637  0.00  0.00    +0.024 A 
ATOM     33  C   UNL     1      44.432  54.536   6.959  0.00  0.00    +0.007 A 
ATOM     34  C   UNL     1      43.832  54.014   8.154  0.00  0.00    -0.029 A 
ATOM     35  C   UNL     1      42.353  54.358   8.446  0.00  0.00    +0.045 C 
ENDROOT
BRANCH  10   9
ATOM      4  C   UNL     1      42.170  49.840  11.428  0.00  0.00    +0.077 A 
ATOM      5  C   UNL     1      41.874  49.114  10.226  0.00  0.00    +0.048 A 
ATOM      6  C   UNL     1      42.374  49.637   9.012  0.00  0.00    +0.116 A 
ATOM      7  N   UNL     1      43.114  50.799   9.012  0.00  0.00    -0.223 NA
ATOM      8  C   UNL     1      43.380  51.476  10.188  0.00  0.00    +0.220 A 
ATOM      9  N   UNL     1      44.128  52.642  10.212  0.00  0.00    -0.283 N 
ATOM     36  H   UNL     1      44.296  53.116  11.100  0.00  0.00    +0.155 HD
ATOM     37  N   UNL     1      42.912  50.998  11.360  0.00  0.00    -0.214 NA
BRANCH   4   3
ATOM      1  C   UNL     1      41.354  47.677  14.583  0.00  0.00    +0.020 A 
ATOM      2  C   UNL     1      41.807  48.037  13.259  0.00  0.00    +0.013 A 
ATOM      3  C   UNL     1      41.715  49.413  12.789  0.00  0.00    +0.019 A 
ATOM     38  C   UNL     1      41.155  50.409  13.689  0.00  0.00    +0.120 A 
ATOM     39  N   UNL     1      40.725  50.033  14.958  0.00  0.00    -0.263 NA
ATOM     40  C   UNL     1      40.808  48.711  15.421  0.00  0.00    +0.111 A 
ENDBRANCH   4   3
ENDBRANCH  10   9
BRANCH  12  13
ATOM     13  N   UNL     1      47.970  53.166   7.094  0.00  0.00    -0.281 N 
ATOM     14  C   UNL     1      49.121  53.780   7.558  0.00  0.00    +0.248 C 
ATOM     30  O   UNL     1      49.138  54.800   8.231  0.00  0.00    -0.270 OA
ATOM     31  H   UNL     1      48.101  52.442   6.388  0.00  0.00    +0.155 HD
BRANCH  14  15
ATOM     15  C   UNL     1      50.447  53.183   7.212  0.00  0.00    +0.037 A 
ATOM     16  C   UNL     1      50.586  51.753   6.927  0.00  0.00    +0.013 A 
ATOM     17  C   UNL     1      51.879  51.200   6.613  0.00  0.00    +0.005 A 
ATOM     18  C   UNL     1      53.045  52.079   6.581  0.00  0.00    -0.033 A 
ATOM     28  C   UNL     1      52.879  53.495   6.862  0.00  0.00    +0.005 A 
ATOM     29  C   UNL     1      51.613  54.041   7.172  0.00  0.00    +0.013 A 
BRANCH  18  19
ATOM     19  C   UNL     1      54.467  51.572   6.276  0.00  0.00    +0.119 C 
BRANCH  19  20
ATOM     20  N   UNL     1      55.220  50.931   7.395  0.00  0.00    -0.302 NA
ATOM     21  C   UNL     1      56.430  51.764   7.825  0.00  0.00    +0.066 C 
ATOM     22  C   UNL     1      57.192  51.090   9.012  0.00  0.00    -0.064 C 
ATOM     23  N   UNL     1      57.623  49.681   8.604  0.00  0.00    +0.379 N 
ATOM     24  C   UNL     1      58.390  49.066   9.697  0.00  0.00    -0.096 C 
ATOM     25  H   UNL     1      58.303  49.777   7.725  0.00  0.00    -0.082 HD
ATOM     26  C   UNL     1      56.426  48.846   8.172  0.00  0.00    -0.064 C 
ATOM     27  C   UNL     1      55.658  49.539   7.012  0.00  0.00    +0.066 C 
ENDBRANCH  19  20
ENDBRANCH  18  19
ENDBRANCH  14  15
ENDBRANCH  12  13
TORSDOF 6
ENDMDL
MODEL 3
REMARK VINA RESULT:      -7.2     13.116     19.669
REMARK  Name = C:\Users\Docking\Desktop\test protocol\1iep_ligandH.pdb
REMARK  8 active torsions:
REMARK  status: ('A' for Active; 'I' for Inactive)
REMARK    1  A    between atoms: _5  and  _11
REMARK    2  A    between atoms: _19  and  _21
REMARK    3  A    between atoms: _22  and  _66
REMARK    4  A    between atoms: _27  and  _30
REMARK    5  A    between atoms: _32  and  _33
REMARK    6  A    between atoms: _38  and  _43
REMARK    7  A    between atoms: _43  and  _46
REMARK    8  A    between atoms: _53  and  _55
REMARK                            x       y       z     vdW  Elec       q    Type
REMARK                         _______ _______ _______ _____ _____    ______ ____
ROOT
ATOM     10  C   UNL     1      44.107  34.526  11.958  0.00  0.00    +0.038 A 
ATOM     11  C   UNL     1      43.171  35.274  12.717  0.00  0.00    +0.047 A 
ATOM     12  C   UNL     1      42.237  34.617  13.618  0.00  0.00    +0.035 A 
ATOM     32  C   UNL     1      42.286  33.196  13.723  0.00  0.00    +0.024 A 
ATOM     33  C   UNL     1      43.229  32.420  12.957  0.00  0.00    +0.007 A 
ATOM     34  C   UNL     1      44.151  33.063  12.065  0.00  0.00    -0.029 A 
ATOM     35  C   UNL     1      45.137  32.181  11.264  0.00  0.00    +0.045 C 
ENDROOT
BRANCH  10   9
ATOM      4  C   UNL     1      45.320  36.285   7.660  0.00  0.00    +0.077 A 
ATOM      5  C   UNL     1      44.125  35.779   7.049  0.00  0.00    +0.048 A 
ATOM      6  C   UNL     1      43.227  35.065   7.874  0.00  0.00    +0.116 A 
ATOM      7  N   UNL     1      43.514  34.878   9.209  0.00  0.00    -0.223 NA
ATOM      8  C   UNL     1      44.676  35.378   9.766  0.00  0.00    +0.220 A 
ATOM      9  N   UNL     1      44.981  35.209  11.108  0.00  0.00    -0.283 N 
ATOM     36  H   UNL     1      45.852  35.586  11.479  0.00  0.00    +0.155 HD
ATOM     37  N   UNL     1      45.550  36.062   8.999  0.00  0.00    -0.214 NA
BRANCH   4   3
ATOM      1  C   UNL     1      48.647  38.119   6.727  0.00  0.00    +0.020 A 
ATOM      2  C   UNL     1      47.674  37.365   7.484  0.00  0.00    +0.013 A 
ATOM      3  C   UNL     1      46.365  37.063   6.920  0.00  0.00    +0.019 A 
ATOM     38  C   UNL     1      46.069  37.540   5.578  0.00  0.00    +0.120 A 
ATOM     39  N   UNL     1      47.025  38.265   4.874  0.00  0.00    -0.263 NA
ATOM     40  C   UNL     1      48.288  38.564   5.406  0.00  0.00    +0.111 A 
ENDBRANCH   4   3
ENDBRANCH  10   9
BRANCH  12  13
ATOM     13  N   UNL     1      41.260  35.323  14.409  0.00  0.00    -0.281 N 
ATOM     14  C   UNL     1      41.486  36.217  15.442  0.00  0.00    +0.248 C 
ATOM     30  O   UNL     1      42.566  36.385  15.988  0.00  0.00    -0.270 OA
ATOM     31  H   UNL     1      40.283  35.141  14.179  0.00  0.00    +0.155 HD
BRANCH  14  15
ATOM     15  C   UNL     1      40.343  37.034  15.953  0.00  0.00    +0.037 A 
ATOM     16  C   UNL     1      39.554  37.882  15.056  0.00  0.00    +0.013 A 
ATOM     17  C   UNL     1      38.468  38.673  15.578  0.00  0.00    +0.005 A 
ATOM     18  C   UNL     1      38.163  38.617  17.005  0.00  0.00    -0.033 A 
ATOM     28  C   UNL     1      38.958  37.763  17.872  0.00  0.00    +0.005 A 
ATOM     29  C   UNL     1      40.024  36.987  17.364  0.00  0.00    +0.013 A 
BRANCH  18  19
ATOM     19  C   UNL     1      37.035  39.443  17.652  0.00  0.00    +0.119 C 
BRANCH  19  20
ATOM     20  N   UNL     1      36.545  40.638  16.902  0.00  0.00    -0.302 NA
ATOM     21  C   UNL     1      37.099  41.944  17.477  0.00  0.00    +0.066 C 
ATOM     22  C   UNL     1      36.594  43.182  16.666  0.00  0.00    -0.064 C 
ATOM     23  N   UNL     1      35.065  43.197  16.663  0.00  0.00    +0.379 N 
ATOM     24  C   UNL     1      34.588  44.391  15.950  0.00  0.00    -0.096 C 
ATOM     25  H   UNL     1      34.725  43.276  17.722  0.00  0.00    -0.082 HD
ATOM     26  C   UNL     1      34.506  41.900  16.095  0.00  0.00    -0.064 C 
ATOM     27  C   UNL     1      35.037  40.675  16.889  0.00  0.00    +0.066 C 
ENDBRANCH  19  20
ENDBRANCH  18  19
ENDBRANCH  14  15
ENDBRANCH  12  13
TORSDOF 6
ENDMDL
MODEL 4
REMARK VINA RESULT:      -7.1     19.437     21.182
REMARK  Name = C:\Users\Docking\Desktop\test protocol\1iep_ligandH.pdb
REMARK  8 active torsions:
REMARK  status: ('A' for Active; 'I' for Inactive)
REMARK    1  A    between atoms: _5  and  _11
REMARK    2  A    between atoms: _19  and  _21
REMARK    3  A    between atoms: _22  and  _66
REMARK    4  A    between atoms: _27  and  _30
REMARK    5  A    between atoms: _32  and  _33
REMARK    6  A    between atoms: _38  and  _43
REMARK    7  A    between atoms: _43  and  _46
REMARK    8  A    between atoms: _53  and  _55
REMARK                            x       y       z     vdW  Elec       q    Type
REMARK                         _______ _______ _______ _____ _____    ______ ____
ROOT
ATOM     10  C   UNL     1      58.198  54.445  28.453  0.00  0.00    +0.038 A 
ATOM     11  C   UNL     1      58.969  53.721  27.509  0.00  0.00    +0.047 A 
ATOM     12  C   UNL     1      60.421  53.681  27.595  0.00  0.00    +0.035 A 
ATOM     32  C   UNL     1      61.054  54.389  28.658  0.00  0.00    +0.024 A 
ATOM     33  C   UNL     1      60.285  55.131  29.626  0.00  0.00    +0.007 A 
ATOM     34  C   UNL     1      58.854  55.176  29.545  0.00  0.00    -0.029 A 
ATOM     35  C   UNL     1      58.081  55.993  30.606  0.00  0.00    +0.045 C 
ENDROOT
BRANCH  10   9
ATOM      4  C   UNL     1      54.119  56.238  26.669  0.00  0.00    +0.077 A 
ATOM      5  C   UNL     1      54.815  57.271  25.957  0.00  0.00    +0.048 A 
ATOM      6  C   UNL     1      56.222  57.310  26.082  0.00  0.00    +0.116 A 
ATOM      7  N   UNL     1      56.874  56.381  26.864  0.00  0.00    -0.223 NA
ATOM      8  C   UNL     1      56.172  55.399  27.538  0.00  0.00    +0.220 A 
ATOM      9  N   UNL     1      56.807  54.449  28.323  0.00  0.00    -0.283 N 
ATOM     36  H   UNL     1      56.253  53.745  28.811  0.00  0.00    +0.155 HD
ATOM     37  N   UNL     1      54.828  55.341  27.436  0.00  0.00    -0.214 NA
BRANCH   4   3
ATOM      1  C   UNL     1      50.507  54.858  27.261  0.00  0.00    +0.020 A 
ATOM      2  C   UNL     1      51.945  54.981  27.327  0.00  0.00    +0.013 A 
ATOM      3  C   UNL     1      52.633  56.064  26.634  0.00  0.00    +0.019 A 
ATOM     38  C   UNL     1      51.829  57.012  25.878  0.00  0.00    +0.120 A 
ATOM     39  N   UNL     1      50.446  56.867  25.831  0.00  0.00    -0.263 NA
ATOM     40  C   UNL     1      49.774  55.829  26.493  0.00  0.00    +0.111 A 
ENDBRANCH   4   3
ENDBRANCH  10   9
BRANCH  12  13
ATOM     13  N   UNL     1      61.257  52.969  26.661  0.00  0.00    -0.281 N 
ATOM     14  C   UNL     1      61.949  53.482  25.576  0.00  0.00    +0.248 C 
ATOM     30  O   UNL     1      61.781  54.601  25.115  0.00  0.00    -0.270 OA
ATOM     31  H   UNL     1      61.350  51.966  26.819  0.00  0.00    +0.155 HD
BRANCH  14  15
ATOM     15  C   UNL     1      62.963  52.621  24.894  0.00  0.00    +0.037 A 
ATOM     16  C   UNL     1      63.126  51.210  25.252  0.00  0.00    +0.013 A 
ATOM     17  C   UNL     1      64.124  50.406  24.591  0.00  0.00    +0.005 A 
ATOM     18  C   UNL     1      64.966  51.013  23.563  0.00  0.00    -0.033 A 
ATOM     28  C   UNL     1      64.780  52.414  23.224  0.00  0.00    +0.005 A 
ATOM     29  C   UNL     1      63.804  53.205  23.871  0.00  0.00    +0.013 A 
BRANCH  18  19
ATOM     19  C   UNL     1      66.070  50.237  22.821  0.00  0.00    +0.119 C 
BRANCH  19  20
ATOM     20  N   UNL     1      65.637  49.276  21.763  0.00  0.00    -0.302 NA
ATOM     21  C   UNL     1      64.417  49.784  20.990  0.00  0.00    +0.066 C 
ATOM     22  C   UNL     1      63.991  48.777  19.872  0.00  0.00    -0.064 C 
ATOM     23  N   UNL     1      63.704  47.413  20.502  0.00  0.00    +0.379 N 
ATOM     24  C   UNL     1      63.248  46.479  19.461  0.00  0.00    -0.096 C 
ATOM     25  H   UNL     1      62.869  47.545  21.228  0.00  0.00    -0.082 HD
ATOM     26  C   UNL     1      64.911  46.901  21.275  0.00  0.00    -0.064 C 
ATOM     27  C   UNL     1      65.344  47.923  22.363  0.00  0.00    +0.066 C 
ENDBRANCH  19  20
ENDBRANCH  18  19
ENDBRANCH  14  15
ENDBRANCH  12  13
TORSDOF 6
ENDMDL
MODEL 5
REMARK VINA RESULT:      -7.1      2.390     12.053
REMARK  Name = C:\Users\Docking\Desktop\test protocol\1iep_ligandH.pdb
REMARK  8 active torsions:
REMARK  status: ('A' for Active; 'I' for Inactive)
REMARK    1  A    between atoms: _5  and  _11
REMARK    2  A    between atoms: _19  and  _21
REMARK    3  A    between atoms: _22  and  _66
REMARK    4  A    between atoms: _27  and  _30
REMARK    5  A    between atoms: _32  and  _33
REMARK    6  A    between atoms: _38  and  _43
REMARK    7  A    between atoms: _43  and  _46
REMARK    8  A    between atoms: _53  and  _55
REMARK                            x       y       z     vdW  Elec       q    Type
REMARK                         _______ _______ _______ _____ _____    ______ ____
ROOT
ATOM     10  C   UNL     1      50.948  51.035   5.862  0.00  0.00    +0.038 A 
ATOM     11  C   UNL     1      49.760  51.026   6.636  0.00  0.00    +0.047 A 
ATOM     12  C   UNL     1      48.450  51.083   6.006  0.00  0.00    +0.035 A 
ATOM     32  C   UNL     1      48.387  51.147   4.584  0.00  0.00    +0.024 A 
ATOM     33  C   UNL     1      49.584  51.158   3.781  0.00  0.00    +0.007 A 
ATOM     34  C   UNL     1      50.879  51.104   4.397  0.00  0.00    -0.029 A 
ATOM     35  C   UNL     1      52.129  51.125   3.487  0.00  0.00    +0.045 C 
ENDROOT
BRANCH  10   9
ATOM      4  C   UNL     1      54.726  48.617   7.569  0.00  0.00    +0.077 A 
ATOM      5  C   UNL     1      54.189  47.358   7.139  0.00  0.00    +0.048 A 
ATOM      6  C   UNL     1      52.935  47.375   6.489  0.00  0.00    +0.116 A 
ATOM      7  N   UNL     1      52.276  48.568   6.288  0.00  0.00    -0.223 NA
ATOM      8  C   UNL     1      52.820  49.765   6.717  0.00  0.00    +0.220 A 
ATOM      9  N   UNL     1      52.179  50.978   6.519  0.00  0.00    -0.283 N 
ATOM     36  H   UNL     1      52.610  51.838   6.857  0.00  0.00    +0.155 HD
ATOM     37  N   UNL     1      54.016  49.775   7.342  0.00  0.00    -0.214 NA
BRANCH   4   3
ATOM      1  C   UNL     1      58.523  48.354   8.470  0.00  0.00    +0.020 A 
ATOM      2  C   UNL     1      57.278  48.184   7.757  0.00  0.00    +0.013 A 
ATOM      3  C   UNL     1      56.042  48.763   8.268  0.00  0.00    +0.019 A 
ATOM     38  C   UNL     1      56.100  49.515   9.512  0.00  0.00    +0.120 A 
ATOM     39  N   UNL     1      57.313  49.662  10.177  0.00  0.00    -0.263 NA
ATOM     40  C   UNL     1      58.509  49.108   9.696  0.00  0.00    +0.111 A 
ENDBRANCH   4   3
ENDBRANCH  10   9
BRANCH  12  13
ATOM     13  N   UNL     1      47.209  51.085   6.742  0.00  0.00    -0.281 N 
ATOM     14  C   UNL     1      46.728  50.112   7.602  0.00  0.00    +0.248 C 
ATOM     30  O   UNL     1      47.196  48.988   7.705  0.00  0.00    -0.270 OA
ATOM     31  H   UNL     1      46.614  51.904   6.612  0.00  0.00    +0.155 HD
BRANCH  14  15
ATOM     15  C   UNL     1      45.547  50.429   8.461  0.00  0.00    +0.037 A 
ATOM     16  C   UNL     1      45.455  51.697   9.189  0.00  0.00    +0.013 A 
ATOM     17  C   UNL     1      44.313  51.970  10.025  0.00  0.00    +0.005 A 
ATOM     18  C   UNL     1      43.251  50.972  10.136  0.00  0.00    -0.033 A 
ATOM     28  C   UNL     1      43.365  49.725   9.398  0.00  0.00    +0.005 A 
ATOM     29  C   UNL     1      44.484  49.453   8.579  0.00  0.00    +0.013 A 
BRANCH  18  19
ATOM     19  C   UNL     1      42.006  51.170  11.021  0.00  0.00    +0.119 C 
BRANCH  19  20
ATOM     20  N   UNL     1      41.996  50.486  12.348  0.00  0.00    -0.302 NA
ATOM     21  C   UNL     1      41.919  48.963  12.209  0.00  0.00    +0.066 C 
ATOM     22  C   UNL     1      41.932  48.262  13.607  0.00  0.00    -0.064 C 
ATOM     23  N   UNL     1      40.768  48.788  14.448  0.00  0.00    +0.379 N 
ATOM     24  C   UNL     1      40.742  48.089  15.741  0.00  0.00    -0.096 C 
ATOM     25  H   UNL     1      39.823  48.540  13.910  0.00  0.00    -0.082 HD
ATOM     26  C   UNL     1      40.834  50.302  14.589  0.00  0.00    -0.064 C 
ATOM     27  C   UNL     1      40.851  50.987  13.194  0.00  0.00    +0.066 C 
ENDBRANCH  19  20
ENDBRANCH  18  19
ENDBRANCH  14  15
ENDBRANCH  12  13
TORSDOF 6
ENDMDL
