MODEL 1
REMARK VINA RESULT:      -8.7      0.000      0.000
REMARK  Name = C:\Users\Docking\Desktop\test protocol\1iep_ligandH.pdb
REMARK  8 active torsions:
REMARK  status: ('A' for Active; 'I' for Inactive)
REMARK    1  A    between atoms: _5  and  _11
REMARK    2  A    between atoms: _19  and  _21
REMARK    3  A    between atoms: _22  and  _66
REMARK    4  A    between atoms: _27  and  _30
REMARK    5  A    between atoms: _32  and  _33
REMARK    6  A    between atoms: _38  and  _43
REMARK    7  A    between atoms: _43  and  _46
REMARK    8  A    between atoms: _53  and  _55
REMARK                            x       y       z     vdW  Elec       q    Type
REMARK                         _______ _______ _______ _____ _____    ______ ____
ROOT
ATOM     10  C   UNL     1      32.016  34.712 -12.527  0.00  0.00    +0.038 A 
ATOM     11  C   UNL     1      33.019  34.201 -13.390  0.00  0.00    +0.047 A 
ATOM     12  C   UNL     1      33.970  33.201 -12.928  0.00  0.00    +0.035 A 
ATOM     32  C   UNL     1      33.868  32.742 -11.583  0.00  0.00    +0.024 A 
ATOM     33  C   UNL     1      32.854  33.252 -10.693  0.00  0.00    +0.007 A 
ATOM     34  C   UNL     1      31.916  34.240 -11.141  0.00  0.00    -0.029 A 
ATOM     35  C   UNL     1      30.854  34.755 -10.141  0.00  0.00    +0.045 C 
ENDROOT
BRANCH  10   9
ATOM      4  C   UNL     1      30.742  39.261 -13.378  0.00  0.00    +0.077 A 
ATOM      5  C   UNL     1      31.932  39.772 -12.760  0.00  0.00    +0.048 A 
ATOM      6  C   UNL     1      32.842  38.831 -12.229  0.00  0.00    +0.116 A 
ATOM      7  N   UNL     1      32.573  37.482 -12.316  0.00  0.00    -0.223 NA
ATOM      8  C   UNL     1      31.416  37.023 -12.917  0.00  0.00    +0.220 A 
ATOM      9  N   UNL     1      31.129  35.671 -13.023  0.00  0.00    -0.283 N 
ATOM     36  H   UNL     1      30.261  35.373 -13.467  0.00  0.00    +0.155 HD
ATOM     37  N   UNL     1      30.530  37.902 -13.431  0.00  0.00    -0.214 NA
BRANCH   4   3
ATOM      1  C   UNL     1      27.385  40.510 -14.949  0.00  0.00    +0.020 A 
ATOM      2  C   UNL     1      28.369  39.630 -14.363  0.00  0.00    +0.013 A 
ATOM      3  C   UNL     1      29.686  40.129 -13.989  0.00  0.00    +0.019 A 
ATOM     38  C   UNL     1      29.977  41.536 -14.221  0.00  0.00    +0.120 A 
ATOM     39  N   UNL     1      29.010  42.360 -14.788  0.00  0.00    -0.263 NA
ATOM     40  C   UNL     1      27.740  41.890 -15.154  0.00  0.00    +0.111 A 
ENDBRANCH   4   3
ENDBRANCH  10   9
BRANCH  12  13
ATOM     13  N   UNL     1      35.015  32.652 -13.756  0.00  0.00    -0.281 N 
ATOM     14  C   UNL     1      34.896  32.087 -15.015  0.00  0.00    +0.248 C 
ATOM     30  O   UNL     1      33.835  31.773 -15.534  0.00  0.00    -0.270 OA
ATOM     31  H   UNL     1      35.957  32.683 -13.366  0.00  0.00    +0.155 HD
BRANCH  14  15
ATOM     15  C   UNL     1      36.135  31.818 -15.806  0.00  0.00    +0.037 A 
ATOM     16  C   UNL     1      36.657  32.801 -16.759  0.00  0.00    +0.013 A 
ATOM     17  C   UNL     1      37.845  32.510 -17.521  0.00  0.00    +0.005 A 
ATOM     18  C   UNL     1      38.521  31.228 -17.333  0.00  0.00    -0.033 A 
ATOM     28  C   UNL     1      37.984  30.273 -16.377  0.00  0.00    +0.005 A 
ATOM     29  C   UNL     1      36.820  30.555 -15.628  0.00  0.00    +0.013 A 
BRANCH  18  19
ATOM     19  C   UNL     1      39.782  30.824 -18.119  0.00  0.00    +0.119 C 
BRANCH  19  20
ATOM     20  N   UNL     1      40.162  31.675 -19.286  0.00  0.00    -0.302 NA
ATOM     21  C   UNL     1      39.632  31.109 -20.606  0.00  0.00    +0.066 C 
ATOM     22  C   UNL     1      40.019  32.023 -21.814  0.00  0.00    -0.064 C 
ATOM     23  N   UNL     1      41.540  32.180 -21.864  0.00  0.00    +0.379 N 
ATOM     24  C   UNL     1      41.911  32.991 -23.032  0.00  0.00    -0.096 C 
ATOM     25  H   UNL     1      41.980  31.165 -22.003  0.00  0.00    -0.082 HD
ATOM     26  C   UNL     1      42.076  32.739 -20.554  0.00  0.00    -0.064 C 
ATOM     27  C   UNL     1      41.660  31.839 -19.357  0.00  0.00    +0.066 C 
ENDBRANCH  19  20
ENDBRANCH  18  19
ENDBRANCH  14  15
ENDBRANCH  12  13
TORSDOF 6
ENDMDL
MODEL 2
REMARK VINA RESULT:      -8.4      1.688      2.434
REMARK  Name = C:\Users\Docking\Desktop\test protocol\1iep_ligandH.pdb
REMARK  8 active torsions:
REMARK  status: ('A' for Active; 'I' for Inactive)
REMARK    1  A    between atoms: _5  and  _11
REMARK    2  A    between atoms: _19  and  _21
REMARK    3  A    between atoms: _22  and  _66
REMARK    4  A    between atoms: _27  and  _30
REMARK    5  A    between atoms: _32  and  _33
REMARK    6  A    between atoms: _38  and  _43
REMARK    7  A    between atoms: _43  and  _46
REMARK    8  A    between atoms: _53  and  _55
REMARK                            x       y       z     vdW  Elec       q    Type
REMARK                         _______ _______ _______ _____ _____    ______ ____
ROOT
ATOM     10  C   UNL     1      32.039  34.413 -12.548  0.00  0.00    +0.038 A 
ATOM     11  C   UNL     1      33.056  33.931 -13.410  0.00  0.00    +0.047 A 
ATOM     12  C   UNL     1      33.997  32.913 -12.969  0.00  0.00    +0.035 A 
ATOM     32  C   UNL     1      33.870  32.406 -11.643  0.00  0.00    +0.024 A 
ATOM     33  C   UNL     1      32.842  32.885 -10.753  0.00  0.00    +0.007 A 
ATOM     34  C   UNL     1      31.913  33.891 -11.182  0.00  0.00    -0.029 A 
ATOM     35  C   UNL     1      30.836  34.372 -10.183  0.00  0.00    +0.045 C 
ENDROOT
BRANCH  10   9
ATOM      4  C   UNL     1      30.815  38.992 -13.307  0.00  0.00    +0.077 A 
ATOM      5  C   UNL     1      32.010  39.477 -12.679  0.00  0.00    +0.048 A 
ATOM      6  C   UNL     1      32.910  38.516 -12.167  0.00  0.00    +0.116 A 
ATOM      7  N   UNL     1      32.626  37.172 -12.281  0.00  0.00    -0.223 NA
ATOM      8  C   UNL     1      31.464  36.738 -12.891  0.00  0.00    +0.220 A 
ATOM      9  N   UNL     1      31.162  35.391 -13.024  0.00  0.00    -0.283 N 
ATOM     36  H   UNL     1      30.291  35.112 -13.474  0.00  0.00    +0.155 HD
ATOM     37  N   UNL     1      30.588  37.636 -13.387  0.00  0.00    -0.214 NA
BRANCH   4   3
ATOM      1  C   UNL     1      28.937  42.122 -14.712  0.00  0.00    +0.020 A 
ATOM      2  C   UNL     1      29.981  41.306 -14.137  0.00  0.00    +0.013 A 
ATOM      3  C   UNL     1      29.768  39.884 -13.900  0.00  0.00    +0.019 A 
ATOM     38  C   UNL     1      28.478  39.314 -14.259  0.00  0.00    +0.120 A 
ATOM     39  N   UNL     1      27.492  40.126 -14.810  0.00  0.00    -0.263 NA
ATOM     40  C   UNL     1      27.684  41.496 -15.041  0.00  0.00    +0.111 A 
ENDBRANCH   4   3
ENDBRANCH  10   9
BRANCH  12  13
ATOM     13  N   UNL     1      35.055  32.391 -13.797  0.00  0.00    -0.281 N 
ATOM     14  C   UNL     1      34.965  31.914 -15.094  0.00  0.00    +0.248 C 
ATOM     30  O   UNL     1      33.915  31.664 -15.667  0.00  0.00    -0.270 OA
ATOM     31  H   UNL     1      35.984  32.372 -13.376  0.00  0.00    +0.155 HD
BRANCH  14  15
ATOM     15  C   UNL     1      36.223  31.665 -15.861  0.00  0.00    +0.037 A 
ATOM     16  C   UNL     1      36.986  30.425 -15.689  0.00  0.00    +0.013 A 
ATOM     17  C   UNL     1      38.206  30.218 -16.428  0.00  0.00    +0.005 A 
ATOM     18  C   UNL     1      38.670  31.252 -17.349  0.00  0.00    -0.033 A 
ATOM     28  C   UNL     1      37.891  32.470 -17.506  0.00  0.00    +0.005 A 
ATOM     29  C   UNL     1      36.696  32.677 -16.782  0.00  0.00    +0.013 A 
BRANCH  18  19
ATOM     19  C   UNL     1      39.971  31.125 -18.164  0.00  0.00    +0.119 C 
BRANCH  19  20
ATOM     20  N   UNL     1      40.539  29.754 -18.335  0.00  0.00    -0.302 NA
ATOM     21  C   UNL     1      42.067  29.750 -18.241  0.00  0.00    +0.066 C 
ATOM     22  C   UNL     1      42.643  28.305 -18.400  0.00  0.00    -0.064 C 
ATOM     23  N   UNL     1      42.181  27.719 -19.735  0.00  0.00    +0.379 N 
ATOM     24  C   UNL     1      42.768  26.383 -19.913  0.00  0.00    -0.096 C 
ATOM     25  H   UNL     1      42.576  28.373 -20.546  0.00  0.00    -0.082 HD
ATOM     26  C   UNL     1      40.662  27.722 -19.838  0.00  0.00    -0.064 C 
ATOM     27  C   UNL     1      40.098  29.158 -19.649  0.00  0.00    +0.066 C 
ENDBRANCH  19  20
ENDBRANCH  18  19
ENDBRANCH  14  15
ENDBRANCH  12  13
TORSDOF 6
ENDMDL
MODEL 3
REMARK VINA RESULT:      -8.3      2.813     13.003
REMARK  Name = C:\Users\Docking\Desktop\test protocol\1iep_ligandH.pdb
REMARK  8 active torsions:
REMARK  status: ('A' for Active; 'I' for Inactive)
REMARK    1  A    between atoms: _5  and  _11
REMARK    2  A    between atoms: _19  and  _21
REMARK    3  A    between atoms: _22  and  _66
REMARK    4  A    between atoms: _27  and  _30
REMARK    5  A    between atoms: _32  and  _33
REMARK    6  A    between atoms: _38  and  _43
REMARK    7  A    between atoms: _43  and  _46
REMARK    8  A    between atoms: _53  and  _55
REMARK                            x       y       z     vdW  Elec       q    Type
REMARK                         _______ _______ _______ _____ _____    ______ ____
ROOT
ATOM     10  C   UNL     1      33.623  35.605 -12.475  0.00  0.00    +0.038 A 
ATOM     11  C   UNL     1      32.722  36.529 -13.063  0.00  0.00    +0.047 A 
ATOM     12  C   UNL     1      31.633  37.110 -12.293  0.00  0.00    +0.035 A 
ATOM     32  C   UNL     1      31.492  36.729 -10.927  0.00  0.00    +0.024 A 
ATOM     33  C   UNL     1      32.399  35.790 -10.314  0.00  0.00    +0.007 A 
ATOM     34  C   UNL     1      33.474  35.212 -11.069  0.00  0.00    -0.029 A 
ATOM     35  C   UNL     1      34.411  34.206 -10.362  0.00  0.00    +0.045 C 
ENDROOT
BRANCH  10   9
ATOM      4  C   UNL     1      35.443  32.221 -15.353  0.00  0.00    +0.077 A 
ATOM      5  C   UNL     1      34.254  31.423 -15.263  0.00  0.00    +0.048 A 
ATOM      6  C   UNL     1      33.201  31.915 -14.461  0.00  0.00    +0.116 A 
ATOM      7  N   UNL     1      33.336  33.117 -13.801  0.00  0.00    -0.223 NA
ATOM      8  C   UNL     1      34.496  33.862 -13.908  0.00  0.00    +0.220 A 
ATOM      9  N   UNL     1      34.651  35.078 -13.260  0.00  0.00    -0.283 N 
ATOM     36  H   UNL     1      35.526  35.593 -13.358  0.00  0.00    +0.155 HD
ATOM     37  N   UNL     1      35.518  33.413 -14.667  0.00  0.00    -0.214 NA
BRANCH   4   3
ATOM      1  C   UNL     1      38.415  32.311 -17.894  0.00  0.00    +0.020 A 
ATOM      2  C   UNL     1      37.258  32.730 -17.137  0.00  0.00    +0.013 A 
ATOM      3  C   UNL     1      36.641  31.837 -16.164  0.00  0.00    +0.019 A 
ATOM     38  C   UNL     1      37.224  30.517 -15.979  0.00  0.00    +0.120 A 
ATOM     39  N   UNL     1      38.337  30.140 -16.724  0.00  0.00    -0.263 NA
ATOM     40  C   UNL     1      38.939  30.990 -17.664  0.00  0.00    +0.111 A 
ENDBRANCH   4   3
ENDBRANCH  10   9
BRANCH  12  13
ATOM     13  N   UNL     1      30.682  38.047 -12.838  0.00  0.00    -0.281 N 
ATOM     14  C   UNL     1      30.836  39.413 -13.013  0.00  0.00    +0.248 C 
ATOM     30  O   UNL     1      31.743  40.073 -12.528  0.00  0.00    -0.270 OA
ATOM     31  H   UNL     1      29.786  37.656 -13.130  0.00  0.00    +0.155 HD
BRANCH  14  15
ATOM     15  C   UNL     1      29.831  40.153 -13.835  0.00  0.00    +0.037 A 
ATOM     16  C   UNL     1      28.569  39.528 -14.238  0.00  0.00    +0.013 A 
ATOM     17  C   UNL     1      27.625  40.259 -15.045  0.00  0.00    +0.005 A 
ATOM     18  C   UNL     1      27.938  41.626 -15.452  0.00  0.00    -0.033 A 
ATOM     28  C   UNL     1      29.195  42.225 -15.034  0.00  0.00    +0.005 A 
ATOM     29  C   UNL     1      30.124  41.511 -14.244  0.00  0.00    +0.013 A 
BRANCH  18  19
ATOM     19  C   UNL     1      26.999  42.474 -16.331  0.00  0.00    +0.119 C 
BRANCH  19  20
ATOM     20  N   UNL     1      25.929  43.251 -15.636  0.00  0.00    -0.302 NA
ATOM     21  C   UNL     1      24.858  42.339 -15.031  0.00  0.00    +0.066 C 
ATOM     22  C   UNL     1      23.759  43.167 -14.289  0.00  0.00    -0.064 C 
ATOM     23  N   UNL     1      23.133  44.167 -15.263  0.00  0.00    +0.379 N 
ATOM     24  C   UNL     1      22.059  44.907 -14.584  0.00  0.00    -0.096 C 
ATOM     25  H   UNL     1      22.670  43.585 -16.093  0.00  0.00    -0.082 HD
ATOM     26  C   UNL     1      24.192  45.075 -15.871  0.00  0.00    -0.064 C 
ATOM     27  C   UNL     1      25.295  44.241 -16.581  0.00  0.00    +0.066 C 
ENDBRANCH  19  20
ENDBRANCH  18  19
ENDBRANCH  14  15
ENDBRANCH  12  13
TORSDOF 6
ENDMDL
MODEL 4
REMARK VINA RESULT:      -8.2      3.607      6.378
REMARK  Name = C:\Users\Docking\Desktop\test protocol\1iep_ligandH.pdb
REMARK  8 active torsions:
REMARK  status: ('A' for Active; 'I' for Inactive)
REMARK    1  A    between atoms: _5  and  _11
REMARK    2  A    between atoms: _19  and  _21
REMARK    3  A    between atoms: _22  and  _66
REMARK    4  A    between atoms: _27  and  _30
REMARK    5  A    between atoms: _32  and  _33
REMARK    6  A    between atoms: _38  and  _43
REMARK    7  A    between atoms: _43  and  _46
REMARK    8  A    between atoms: _53  and  _55
REMARK                            x       y       z     vdW  Elec       q    Type
REMARK                         _______ _______ _______ _____ _____    ______ ____
ROOT
ATOM     10  C   UNL     1      32.413  34.218 -12.573  0.00  0.00    +0.038 A 
ATOM     11  C   UNL     1      33.337  33.280 -13.099  0.00  0.00    +0.047 A 
ATOM     12  C   UNL     1      34.356  33.682 -14.056  0.00  0.00    +0.035 A 
ATOM     32  C   UNL     1      34.407  35.050 -14.453  0.00  0.00    +0.024 A 
ATOM     33  C   UNL     1      33.475  36.017 -13.929  0.00  0.00    +0.007 A 
ATOM     34  C   UNL     1      32.467  35.626 -12.986  0.00  0.00    -0.029 A 
ATOM     35  C   UNL     1      31.490  36.704 -12.462  0.00  0.00    +0.045 C 
ENDROOT
BRANCH  10   9
ATOM      4  C   UNL     1      31.013  33.106  -8.118  0.00  0.00    +0.077 A 
ATOM      5  C   UNL     1      32.306  33.404  -7.574  0.00  0.00    +0.048 A 
ATOM      6  C   UNL     1      33.306  33.833  -8.475  0.00  0.00    +0.116 A 
ATOM      7  N   UNL     1      33.023  33.953  -9.818  0.00  0.00    -0.223 NA
ATOM      8  C   UNL     1      31.765  33.656 -10.311  0.00  0.00    +0.220 A 
ATOM      9  N   UNL     1      31.456  33.777 -11.657  0.00  0.00    -0.283 N 
ATOM     36  H   UNL     1      30.518  33.541 -11.982  0.00  0.00    +0.155 HD
ATOM     37  N   UNL     1      30.793  33.243  -9.471  0.00  0.00    -0.214 NA
BRANCH   4   3
ATOM      1  C   UNL     1      27.682  31.393  -6.989  0.00  0.00    +0.020 A 
ATOM      2  C   UNL     1      28.781  31.812  -7.829  0.00  0.00    +0.013 A 
ATOM      3  C   UNL     1      29.852  32.644  -7.294  0.00  0.00    +0.019 A 
ATOM     38  C   UNL     1      29.780  33.038  -5.895  0.00  0.00    +0.120 A 
ATOM     39  N   UNL     1      28.709  32.620  -5.111  0.00  0.00    -0.263 NA
ATOM     40  C   UNL     1      27.672  31.821  -5.615  0.00  0.00    +0.111 A 
ENDBRANCH   4   3
ENDBRANCH  10   9
BRANCH  12  13
ATOM     13  N   UNL     1      35.316  32.772 -14.630  0.00  0.00    -0.281 N 
ATOM     14  C   UNL     1      35.589  32.558 -15.971  0.00  0.00    +0.248 C 
ATOM     30  O   UNL     1      34.895  32.964 -16.892  0.00  0.00    -0.270 OA
ATOM     31  H   UNL     1      35.860  32.219 -13.968  0.00  0.00    +0.155 HD
BRANCH  14  15
ATOM     15  C   UNL     1      36.800  31.765 -16.344  0.00  0.00    +0.037 A 
ATOM     16  C   UNL     1      37.784  32.283 -17.298  0.00  0.00    +0.013 A 
ATOM     17  C   UNL     1      38.934  31.491 -17.653  0.00  0.00    +0.005 A 
ATOM     18  C   UNL     1      39.109  30.171 -17.051  0.00  0.00    -0.033 A 
ATOM     28  C   UNL     1      38.120  29.684 -16.103  0.00  0.00    +0.005 A 
ATOM     29  C   UNL     1      36.991  30.457 -15.754  0.00  0.00    +0.013 A 
BRANCH  18  19
ATOM     19  C   UNL     1      40.295  29.249 -17.387  0.00  0.00    +0.119 C 
BRANCH  19  20
ATOM     20  N   UNL     1      39.975  27.886 -17.907  0.00  0.00    -0.302 NA
ATOM     21  C   UNL     1      41.023  26.850 -17.488  0.00  0.00    +0.066 C 
ATOM     22  C   UNL     1      40.661  25.426 -18.022  0.00  0.00    -0.064 C 
ATOM     23  N   UNL     1      40.526  25.474 -19.545  0.00  0.00    +0.379 N 
ATOM     24  C   UNL     1      40.243  24.125 -20.055  0.00  0.00    -0.096 C 
ATOM     25  H   UNL     1      41.510  25.794 -19.961  0.00  0.00    -0.082 HD
ATOM     26  C   UNL     1      39.489  26.503 -19.970  0.00  0.00    -0.064 C 
ATOM     27  C   UNL     1      39.842  27.909 -19.410  0.00  0.00    +0.066 C 
ENDBRANCH  19  20
ENDBRANCH  18  19
ENDBRANCH  14  15
ENDBRANCH  12  13
TORSDOF 6
ENDMDL
MODEL 5
REMARK VINA RESULT:      -7.9      3.280      5.836
REMARK  Name = C:\Users\Docking\Desktop\test protocol\1iep_ligandH.pdb
REMARK  8 active torsions:
REMARK  status: ('A' for Active; 'I' for Inactive)
REMARK    1  A    between atoms: _5  and  _11
REMARK    2  A    between atoms: _19  and  _21
REMARK    3  A    between atoms: _22  and  _66
REMARK    4  A    between atoms: _27  and  _30
REMARK    5  A    between atoms: _32  and  _33
REMARK    6  A    between atoms: _38  and  _43
REMARK    7  A    between atoms: _43  and  _46
REMARK    8  A    between atoms: _53  and  _55
REMARK                            x       y       z     vdW  Elec       q    Type
REMARK                         _______ _______ _______ _____ _____    ______ ____
ROOT
ATOM     10  C   UNL     1      32.395  34.257 -12.548  0.00  0.00    +0.038 A 
ATOM     11  C   UNL     1      33.321  33.320 -13.073  0.00  0.00    +0.047 A 
ATOM     12  C   UNL     1      34.344  33.726 -14.025  0.00  0.00    +0.035 A 
ATOM     32  C   UNL     1      34.396  35.095 -14.418  0.00  0.00    +0.024 A 
ATOM     33  C   UNL     1      33.461  36.060 -13.895  0.00  0.00    +0.007 A 
ATOM     34  C   UNL     1      32.449  35.665 -12.958  0.00  0.00    -0.029 A 
ATOM     35  C   UNL     1      31.469  36.742 -12.435  0.00  0.00    +0.045 C 
ENDROOT
BRANCH  10   9
ATOM      4  C   UNL     1      30.972  33.151  -8.099  0.00  0.00    +0.077 A 
ATOM      5  C   UNL     1      32.259  33.459  -7.547  0.00  0.00    +0.048 A 
ATOM      6  C   UNL     1      33.263  33.892  -8.443  0.00  0.00    +0.116 A 
ATOM      7  N   UNL     1      32.987  34.005  -9.788  0.00  0.00    -0.223 NA
ATOM      8  C   UNL     1      31.735  33.698 -10.288  0.00  0.00    +0.220 A 
ATOM      9  N   UNL     1      31.434  33.813 -11.637  0.00  0.00    -0.283 N 
ATOM     36  H   UNL     1      30.500  33.570 -11.967  0.00  0.00    +0.155 HD
ATOM     37  N   UNL     1      30.760  33.281  -9.454  0.00  0.00    -0.214 NA
BRANCH   4   3
ATOM      1  C   UNL     1      27.657  31.402  -6.981  0.00  0.00    +0.020 A 
ATOM      2  C   UNL     1      28.759  31.824  -7.813  0.00  0.00    +0.013 A 
ATOM      3  C   UNL     1      29.808  32.685  -7.281  0.00  0.00    +0.019 A 
ATOM     38  C   UNL     1      29.712  33.102  -5.890  0.00  0.00    +0.120 A 
ATOM     39  N   UNL     1      28.638  32.681  -5.113  0.00  0.00    -0.263 NA
ATOM     40  C   UNL     1      27.621  31.854  -5.615  0.00  0.00    +0.111 A 
ENDBRANCH   4   3
ENDBRANCH  10   9
BRANCH  12  13
ATOM     13  N   UNL     1      35.306  32.818 -14.598  0.00  0.00    -0.281 N 
ATOM     14  C   UNL     1      35.531  32.551 -15.939  0.00  0.00    +0.248 C 
ATOM     30  O   UNL     1      34.789  32.895 -16.846  0.00  0.00    -0.270 OA
ATOM     31  H   UNL     1      35.893  32.311 -13.935  0.00  0.00    +0.155 HD
BRANCH  14  15
ATOM     15  C   UNL     1      36.750  31.776 -16.326  0.00  0.00    +0.037 A 
ATOM     16  C   UNL     1      37.729  32.322 -17.270  0.00  0.00    +0.013 A 
ATOM     17  C   UNL     1      38.887  31.547 -17.639  0.00  0.00    +0.005 A 
ATOM     18  C   UNL     1      39.072  30.217 -17.062  0.00  0.00    -0.033 A 
ATOM     28  C   UNL     1      38.088  29.703 -16.124  0.00  0.00    +0.005 A 
ATOM     29  C   UNL     1      36.952  30.459 -15.761  0.00  0.00    +0.013 A 
BRANCH  18  19
ATOM     19  C   UNL     1      40.267  29.312 -17.416  0.00  0.00    +0.119 C 
BRANCH  19  20
ATOM     20  N   UNL     1      41.077  29.685 -18.614  0.00  0.00    -0.302 NA
ATOM     21  C   UNL     1      41.181  28.534 -19.618  0.00  0.00    +0.066 C 
ATOM     22  C   UNL     1      42.013  28.949 -20.875  0.00  0.00    -0.064 C 
ATOM     23  N   UNL     1      43.403  29.410 -20.435  0.00  0.00    +0.379 N 
ATOM     24  C   UNL     1      44.207  29.746 -21.619  0.00  0.00    -0.096 C 
ATOM     25  H   UNL     1      43.897  28.552 -19.922  0.00  0.00    -0.082 HD
ATOM     26  C   UNL     1      43.308  30.553 -19.434  0.00  0.00    -0.064 C 
ATOM     27  C   UNL     1      42.455  30.140 -18.202  0.00  0.00    +0.066 C 
ENDBRANCH  19  20
ENDBRANCH  18  19
ENDBRANCH  14  15
ENDBRANCH  12  13
TORSDOF 6
ENDMDL
