MODEL 1
REMARK VINA RESULT:     -10.1      0.000      0.000
REMARK  Name = C:\Users\Docking\Desktop\test protocol\1iep_ligandH.pdb
REMARK  8 active torsions:
REMARK  status: ('A' for Active; 'I' for Inactive)
REMARK    1  A    between atoms: _5  and  _11
REMARK    2  A    between atoms: _19  and  _21
REMARK    3  A    between atoms: _22  and  _66
REMARK    4  A    between atoms: _27  and  _30
REMARK    5  A    between atoms: _32  and  _33
REMARK    6  A    between atoms: _38  and  _43
REMARK    7  A    between atoms: _43  and  _46
REMARK    8  A    between atoms: _53  and  _55
REMARK                            x       y       z     vdW  Elec       q    Type
REMARK                         _______ _______ _______ _____ _____    ______ ____
ROOT
ATOM     10  C   UNL     1      71.448  86.115  36.738  0.00  0.00    +0.038 A 
ATOM     11  C   UNL     1      70.379  86.163  35.807  0.00  0.00    +0.047 A 
ATOM     12  C   UNL     1      70.629  86.276  34.379  0.00  0.00    +0.035 A 
ATOM     32  C   UNL     1      71.981  86.333  33.932  0.00  0.00    +0.024 A 
ATOM     33  C   UNL     1      73.080  86.286  34.864  0.00  0.00    +0.007 A 
ATOM     34  C   UNL     1      72.840  86.178  36.275  0.00  0.00    -0.029 A 
ATOM     35  C   UNL     1      74.056  86.138  37.228  0.00  0.00    +0.045 C 
ENDROOT
BRANCH  10   9
ATOM      4  C   UNL     1      70.594  83.531  40.691  0.00  0.00    +0.077 A 
ATOM      5  C   UNL     1      70.725  82.291  39.981  0.00  0.00    +0.048 A 
ATOM      6  C   UNL     1      71.006  82.362  38.598  0.00  0.00    +0.116 A 
ATOM      7  N   UNL     1      71.143  83.587  37.982  0.00  0.00    -0.223 NA
ATOM      8  C   UNL     1      71.009  84.764  38.696  0.00  0.00    +0.220 A 
ATOM      9  N   UNL     1      71.150  86.007  38.098  0.00  0.00    -0.283 N 
ATOM     36  H   UNL     1      71.036  86.851  38.658  0.00  0.00    +0.155 HD
ATOM     37  N   UNL     1      70.739  84.723  40.017  0.00  0.00    -0.214 NA
BRANCH   4   3
ATOM      1  C   UNL     1      69.945  82.592  44.433  0.00  0.00    +0.020 A 
ATOM      2  C   UNL     1      70.230  82.451  43.024  0.00  0.00    +0.013 A 
ATOM      3  C   UNL     1      70.302  83.620  42.157  0.00  0.00    +0.019 A 
ATOM     38  C   UNL     1      70.079  84.929  42.753  0.00  0.00    +0.120 A 
ATOM     39  N   UNL     1      69.805  85.034  44.113  0.00  0.00    -0.263 NA
ATOM     40  C   UNL     1      69.732  83.916  44.956  0.00  0.00    +0.111 A 
ENDBRANCH   4   3
ENDBRANCH  10   9
BRANCH  12  13
ATOM     13  N   UNL     1      69.583  86.338  33.388  0.00  0.00    -0.281 N 
ATOM     14  C   UNL     1      68.713  85.330  33.003  0.00  0.00    +0.248 C 
ATOM     30  O   UNL     1      68.843  84.153  33.304  0.00  0.00    -0.270 OA
ATOM     31  H   UNL     1      69.471  87.233  32.911  0.00  0.00    +0.155 HD
BRANCH  14  15
ATOM     15  C   UNL     1      67.537  85.679  32.149  0.00  0.00    +0.037 A 
ATOM     16  C   UNL     1      66.361  84.809  32.084  0.00  0.00    +0.013 A 
ATOM     17  C   UNL     1      65.247  85.160  31.239  0.00  0.00    +0.005 A 
ATOM     18  C   UNL     1      65.305  86.390  30.452  0.00  0.00    -0.033 A 
ATOM     28  C   UNL     1      66.482  87.238  30.540  0.00  0.00    +0.005 A 
ATOM     29  C   UNL     1      67.576  86.896  31.366  0.00  0.00    +0.013 A 
BRANCH  18  19
ATOM     19  C   UNL     1      64.172  86.832  29.508  0.00  0.00    +0.119 C 
BRANCH  19  20
ATOM     20  N   UNL     1      64.135  86.216  28.148  0.00  0.00    -0.302 NA
ATOM     21  C   UNL     1      63.354  84.899  28.135  0.00  0.00    +0.066 C 
ATOM     22  C   UNL     1      63.306  84.279  26.700  0.00  0.00    -0.064 C 
ATOM     23  N   UNL     1      64.734  84.068  26.192  0.00  0.00    +0.379 N 
ATOM     24  C   UNL     1      64.693  83.432  24.867  0.00  0.00    -0.096 C 
ATOM     25  H   UNL     1      65.240  83.362  26.891  0.00  0.00    -0.082 HD
ATOM     26  C   UNL     1      65.518  85.372  26.204  0.00  0.00    -0.064 C 
ATOM     27  C   UNL     1      65.534  85.994  27.628  0.00  0.00    +0.066 C 
ENDBRANCH  19  20
ENDBRANCH  18  19
ENDBRANCH  14  15
ENDBRANCH  12  13
TORSDOF 6
ENDMDL
MODEL 2
REMARK VINA RESULT:     -10.1      7.485     14.012
REMARK  Name = C:\Users\Docking\Desktop\test protocol\1iep_ligandH.pdb
REMARK  8 active torsions:
REMARK  status: ('A' for Active; 'I' for Inactive)
REMARK    1  A    between atoms: _5  and  _11
REMARK    2  A    between atoms: _19  and  _21
REMARK    3  A    between atoms: _22  and  _66
REMARK    4  A    between atoms: _27  and  _30
REMARK    5  A    between atoms: _32  and  _33
REMARK    6  A    between atoms: _38  and  _43
REMARK    7  A    between atoms: _43  and  _46
REMARK    8  A    between atoms: _53  and  _55
REMARK                            x       y       z     vdW  Elec       q    Type
REMARK                         _______ _______ _______ _____ _____    ______ ____
ROOT
ATOM     10  C   UNL     1      67.617  87.388  49.836  0.00  0.00    +0.038 A 
ATOM     11  C   UNL     1      68.294  87.075  48.629  0.00  0.00    +0.047 A 
ATOM     12  C   UNL     1      67.959  85.883  47.866  0.00  0.00    +0.035 A 
ATOM     32  C   UNL     1      66.928  85.032  48.360  0.00  0.00    +0.024 A 
ATOM     33  C   UNL     1      66.230  85.334  49.585  0.00  0.00    +0.007 A 
ATOM     34  C   UNL     1      66.558  86.508  50.343  0.00  0.00    -0.029 A 
ATOM     35  C   UNL     1      65.782  86.778  51.653  0.00  0.00    +0.045 C 
ENDROOT
BRANCH  10   9
ATOM      4  C   UNL     1      70.216  89.706  53.139  0.00  0.00    +0.077 A 
ATOM      5  C   UNL     1      70.890  88.504  53.538  0.00  0.00    +0.048 A 
ATOM      6  C   UNL     1      70.535  87.309  52.872  0.00  0.00    +0.116 A 
ATOM      7  N   UNL     1      69.575  87.327  51.884  0.00  0.00    -0.223 NA
ATOM      8  C   UNL     1      68.942  88.503  51.525  0.00  0.00    +0.220 A 
ATOM      9  N   UNL     1      67.979  88.546  50.528  0.00  0.00    -0.283 N 
ATOM     36  H   UNL     1      67.531  89.432  50.298  0.00  0.00    +0.155 HD
ATOM     37  N   UNL     1      69.263  89.657  52.146  0.00  0.00    -0.214 NA
BRANCH   4   3
ATOM      1  C   UNL     1      72.034  92.855  54.581  0.00  0.00    +0.020 A 
ATOM      2  C   UNL     1      71.830  91.551  53.993  0.00  0.00    +0.013 A 
ATOM      3  C   UNL     1      70.484  91.048  53.746  0.00  0.00    +0.019 A 
ATOM     38  C   UNL     1      69.359  91.896  54.107  0.00  0.00    +0.120 A 
ATOM     39  N   UNL     1      69.586  93.147  54.673  0.00  0.00    -0.263 NA
ATOM     40  C   UNL     1      70.877  93.641  54.917  0.00  0.00    +0.111 A 
ENDBRANCH   4   3
ENDBRANCH  10   9
BRANCH  12  13
ATOM     13  N   UNL     1      68.617  85.510  46.638  0.00  0.00    -0.281 N 
ATOM     14  C   UNL     1      69.354  84.366  46.381  0.00  0.00    +0.248 C 
ATOM     30  O   UNL     1      69.740  83.585  47.238  0.00  0.00    -0.270 OA
ATOM     31  H   UNL     1      68.529  86.170  45.865  0.00  0.00    +0.155 HD
BRANCH  14  15
ATOM     15  C   UNL     1      69.729  84.051  44.969  0.00  0.00    +0.037 A 
ATOM     16  C   UNL     1      69.802  85.101  43.949  0.00  0.00    +0.013 A 
ATOM     17  C   UNL     1      70.149  84.767  42.591  0.00  0.00    +0.005 A 
ATOM     18  C   UNL     1      70.427  83.375  42.244  0.00  0.00    -0.033 A 
ATOM     28  C   UNL     1      70.352  82.354  43.276  0.00  0.00    +0.005 A 
ATOM     29  C   UNL     1      70.011  82.677  44.608  0.00  0.00    +0.013 A 
BRANCH  18  19
ATOM     19  C   UNL     1      70.784  82.925  40.815  0.00  0.00    +0.119 C 
BRANCH  19  20
ATOM     20  N   UNL     1      71.488  83.911  39.943  0.00  0.00    -0.302 NA
ATOM     21  C   UNL     1      70.592  84.418  38.809  0.00  0.00    +0.066 C 
ATOM     22  C   UNL     1      71.338  85.466  37.920  0.00  0.00    -0.064 C 
ATOM     23  N   UNL     1      72.616  84.840  37.361  0.00  0.00    +0.379 N 
ATOM     24  C   UNL     1      73.289  85.804  36.478  0.00  0.00    -0.096 C 
ATOM     25  H   UNL     1      72.319  83.963  36.741  0.00  0.00    -0.082 HD
ATOM     26  C   UNL     1      73.512  84.331  38.482  0.00  0.00    -0.064 C 
ATOM     27  C   UNL     1      72.752  83.312  39.377  0.00  0.00    +0.066 C 
ENDBRANCH  19  20
ENDBRANCH  18  19
ENDBRANCH  14  15
ENDBRANCH  12  13
TORSDOF 6
ENDMDL
MODEL 3
REMARK VINA RESULT:      -9.1      3.810      8.173
REMARK  Name = C:\Users\Docking\Desktop\test protocol\1iep_ligandH.pdb
REMARK  8 active torsions:
REMARK  status: ('A' for Active; 'I' for Inactive)
REMARK    1  A    between atoms: _5  and  _11
REMARK    2  A    between atoms: _19  and  _21
REMARK    3  A    between atoms: _22  and  _66
REMARK    4  A    between atoms: _27  and  _30
REMARK    5  A    between atoms: _32  and  _33
REMARK    6  A    between atoms: _38  and  _43
REMARK    7  A    between atoms: _43  and  _46
REMARK    8  A    between atoms: _53  and  _55
REMARK                            x       y       z     vdW  Elec       q    Type
REMARK                         _______ _______ _______ _____ _____    ______ ____
ROOT
ATOM     10  C   UNL     1      65.652  85.839  31.298  0.00  0.00    +0.038 A 
ATOM     11  C   UNL     1      65.970  85.101  30.129  0.00  0.00    +0.047 A 
ATOM     12  C   UNL     1      65.342  85.407  28.853  0.00  0.00    +0.035 A 
ATOM     32  C   UNL     1      64.398  86.474  28.803  0.00  0.00    +0.024 A 
ATOM     33  C   UNL     1      64.063  87.233  29.982  0.00  0.00    +0.007 A 
ATOM     34  C   UNL     1      64.677  86.934  31.244  0.00  0.00    -0.029 A 
ATOM     35  C   UNL     1      64.275  87.777  32.477  0.00  0.00    +0.045 C 
ENDROOT
BRANCH  10   9
ATOM      4  C   UNL     1      69.567  85.394  34.039  0.00  0.00    +0.077 A 
ATOM      5  C   UNL     1      70.429  85.845  32.985  0.00  0.00    +0.048 A 
ATOM      6  C   UNL     1      69.826  86.176  31.751  0.00  0.00    +0.116 A 
ATOM      7  N   UNL     1      68.462  86.059  31.594  0.00  0.00    -0.223 NA
ATOM      8  C   UNL     1      67.660  85.619  32.630  0.00  0.00    +0.220 A 
ATOM      9  N   UNL     1      66.285  85.502  32.497  0.00  0.00    -0.283 N 
ATOM     36  H   UNL     1      65.729  85.166  33.283  0.00  0.00    +0.155 HD
ATOM     37  N   UNL     1      68.212  85.296  33.819  0.00  0.00    -0.214 NA
BRANCH   4   3
ATOM      1  C   UNL     1      70.145  83.460  37.390  0.00  0.00    +0.020 A 
ATOM      2  C   UNL     1      69.645  83.784  36.074  0.00  0.00    +0.013 A 
ATOM      3  C   UNL     1      70.054  85.011  35.402  0.00  0.00    +0.019 A 
ATOM     38  C   UNL     1      70.979  85.896  36.095  0.00  0.00    +0.120 A 
ATOM     39  N   UNL     1      71.443  85.559  37.363  0.00  0.00    -0.263 NA
ATOM     40  C   UNL     1      71.054  84.381  38.020  0.00  0.00    +0.111 A 
ENDBRANCH   4   3
ENDBRANCH  10   9
BRANCH  12  13
ATOM     13  N   UNL     1      65.619  84.688  27.634  0.00  0.00    -0.281 N 
ATOM     14  C   UNL     1      64.751  83.900  26.895  0.00  0.00    +0.248 C 
ATOM     30  O   UNL     1      63.658  83.521  27.287  0.00  0.00    -0.270 OA
ATOM     31  H   UNL     1      66.569  84.769  27.273  0.00  0.00    +0.155 HD
BRANCH  14  15
ATOM     15  C   UNL     1      65.164  83.459  25.528  0.00  0.00    +0.037 A 
ATOM     16  C   UNL     1      64.487  82.350  24.851  0.00  0.00    +0.013 A 
ATOM     17  C   UNL     1      64.916  81.933  23.539  0.00  0.00    +0.005 A 
ATOM     18  C   UNL     1      66.029  82.628  22.896  0.00  0.00    -0.033 A 
ATOM     28  C   UNL     1      66.679  83.728  23.588  0.00  0.00    +0.005 A 
ATOM     29  C   UNL     1      66.262  84.139  24.874  0.00  0.00    +0.013 A 
BRANCH  18  19
ATOM     19  C   UNL     1      66.567  82.237  21.507  0.00  0.00    +0.119 C 
BRANCH  19  20
ATOM     20  N   UNL     1      67.433  81.022  21.426  0.00  0.00    -0.302 NA
ATOM     21  C   UNL     1      68.894  81.335  21.761  0.00  0.00    +0.066 C 
ATOM     22  C   UNL     1      69.780  80.049  21.693  0.00  0.00    -0.064 C 
ATOM     23  N   UNL     1      69.665  79.426  20.301  0.00  0.00    +0.379 N 
ATOM     24  C   UNL     1      70.543  78.249  20.216  0.00  0.00    -0.096 C 
ATOM     25  H   UNL     1      70.033  80.176  19.563  0.00  0.00    -0.082 HD
ATOM     26  C   UNL     1      68.215  79.115  19.959  0.00  0.00    -0.064 C 
ATOM     27  C   UNL     1      67.337  80.393  20.058  0.00  0.00    +0.066 C 
ENDBRANCH  19  20
ENDBRANCH  18  19
ENDBRANCH  14  15
ENDBRANCH  12  13
TORSDOF 6
ENDMDL
MODEL 4
REMARK VINA RESULT:      -9.1      4.238      9.377
REMARK  Name = C:\Users\Docking\Desktop\test protocol\1iep_ligandH.pdb
REMARK  8 active torsions:
REMARK  status: ('A' for Active; 'I' for Inactive)
REMARK    1  A    between atoms: _5  and  _11
REMARK    2  A    between atoms: _19  and  _21
REMARK    3  A    between atoms: _22  and  _66
REMARK    4  A    between atoms: _27  and  _30
REMARK    5  A    between atoms: _32  and  _33
REMARK    6  A    between atoms: _38  and  _43
REMARK    7  A    between atoms: _43  and  _46
REMARK    8  A    between atoms: _53  and  _55
REMARK                            x       y       z     vdW  Elec       q    Type
REMARK                         _______ _______ _______ _____ _____    ______ ____
ROOT
ATOM     10  C   UNL     1      64.585  84.744  30.405  0.00  0.00    +0.038 A 
ATOM     11  C   UNL     1      64.905  84.194  29.137  0.00  0.00    +0.047 A 
ATOM     12  C   UNL     1      64.016  84.360  27.998  0.00  0.00    +0.035 A 
ATOM     32  C   UNL     1      62.809  85.095  28.185  0.00  0.00    +0.024 A 
ATOM     33  C   UNL     1      62.467  85.660  29.466  0.00  0.00    +0.007 A 
ATOM     34  C   UNL     1      63.339  85.497  30.594  0.00  0.00    -0.029 A 
ATOM     35  C   UNL     1      62.919  86.119  31.946  0.00  0.00    +0.045 C 
ENDROOT
BRANCH  10   9
ATOM      4  C   UNL     1      68.536  85.900  32.872  0.00  0.00    +0.077 A 
ATOM      5  C   UNL     1      68.870  86.955  31.959  0.00  0.00    +0.048 A 
ATOM      6  C   UNL     1      68.002  87.162  30.863  0.00  0.00    +0.116 A 
ATOM      7  N   UNL     1      66.887  86.369  30.703  0.00  0.00    -0.223 NA
ATOM      8  C   UNL     1      66.595  85.359  31.601  0.00  0.00    +0.220 A 
ATOM      9  N   UNL     1      65.475  84.554  31.464  0.00  0.00    -0.283 N 
ATOM     36  H   UNL     1      65.299  83.815  32.144  0.00  0.00    +0.155 HD
ATOM     37  N   UNL     1      67.409  85.140  32.655  0.00  0.00    -0.214 NA
BRANCH   4   3
ATOM      1  C   UNL     1      69.883  84.130  36.090  0.00  0.00    +0.020 A 
ATOM      2  C   UNL     1      69.063  84.415  34.935  0.00  0.00    +0.013 A 
ATOM      3  C   UNL     1      69.352  85.560  34.080  0.00  0.00    +0.019 A 
ATOM     38  C   UNL     1      70.487  86.403  34.424  0.00  0.00    +0.120 A 
ATOM     39  N   UNL     1      71.258  86.105  35.544  0.00  0.00    -0.263 NA
ATOM     40  C   UNL     1      70.989  85.007  36.374  0.00  0.00    +0.111 A 
ENDBRANCH   4   3
ENDBRANCH  10   9
BRANCH  12  13
ATOM     13  N   UNL     1      64.285  83.817  26.690  0.00  0.00    -0.281 N 
ATOM     14  C   UNL     1      65.012  84.394  25.661  0.00  0.00    +0.248 C 
ATOM     30  O   UNL     1      65.364  85.564  25.635  0.00  0.00    -0.270 OA
ATOM     31  H   UNL     1      63.892  82.896  26.498  0.00  0.00    +0.155 HD
BRANCH  14  15
ATOM     15  C   UNL     1      65.390  83.554  24.484  0.00  0.00    +0.037 A 
ATOM     16  C   UNL     1      65.062  82.127  24.433  0.00  0.00    +0.013 A 
ATOM     17  C   UNL     1      65.453  81.336  23.293  0.00  0.00    +0.005 A 
ATOM     18  C   UNL     1      66.177  81.971  22.195  0.00  0.00    -0.033 A 
ATOM     28  C   UNL     1      66.486  83.389  22.270  0.00  0.00    +0.005 A 
ATOM     29  C   UNL     1      66.104  84.168  23.385  0.00  0.00    +0.013 A 
BRANCH  18  19
ATOM     19  C   UNL     1      66.653  81.199  20.950  0.00  0.00    +0.119 C 
BRANCH  19  20
ATOM     20  N   UNL     1      67.698  80.152  21.152  0.00  0.00    -0.302 NA
ATOM     21  C   UNL     1      69.107  80.749  21.206  0.00  0.00    +0.066 C 
ATOM     22  C   UNL     1      70.186  79.642  21.441  0.00  0.00    -0.064 C 
ATOM     23  N   UNL     1      70.085  78.592  20.333  0.00  0.00    +0.379 N 
ATOM     24  C   UNL     1      71.135  77.580  20.519  0.00  0.00    -0.096 C 
ATOM     25  H   UNL     1      70.277  79.105  19.363  0.00  0.00    -0.082 HD
ATOM     26  C   UNL     1      68.686  77.995  20.271  0.00  0.00    -0.064 C 
ATOM     27  C   UNL     1      67.619  79.107  20.067  0.00  0.00    +0.066 C 
ENDBRANCH  19  20
ENDBRANCH  18  19
ENDBRANCH  14  15
ENDBRANCH  12  13
TORSDOF 6
ENDMDL
MODEL 5
REMARK VINA RESULT:      -9.0      4.069     14.689
REMARK  Name = C:\Users\Docking\Desktop\test protocol\1iep_ligandH.pdb
REMARK  8 active torsions:
REMARK  status: ('A' for Active; 'I' for Inactive)
REMARK    1  A    between atoms: _5  and  _11
REMARK    2  A    between atoms: _19  and  _21
REMARK    3  A    between atoms: _22  and  _66
REMARK    4  A    between atoms: _27  and  _30
REMARK    5  A    between atoms: _32  and  _33
REMARK    6  A    between atoms: _38  and  _43
REMARK    7  A    between atoms: _43  and  _46
REMARK    8  A    between atoms: _53  and  _55
REMARK                            x       y       z     vdW  Elec       q    Type
REMARK                         _______ _______ _______ _____ _____    ______ ____
ROOT
ATOM     10  C   UNL     1      66.345  84.938  25.774  0.00  0.00    +0.038 A 
ATOM     11  C   UNL     1      67.078  85.151  26.970  0.00  0.00    +0.047 A 
ATOM     12  C   UNL     1      66.588  84.662  28.249  0.00  0.00    +0.035 A 
ATOM     32  C   UNL     1      65.349  83.958  28.274  0.00  0.00    +0.024 A 
ATOM     33  C   UNL     1      64.591  83.734  27.068  0.00  0.00    +0.007 A 
ATOM     34  C   UNL     1      65.068  84.216  25.803  0.00  0.00    -0.029 A 
ATOM     35  C   UNL     1      64.210  83.952  24.543  0.00  0.00    +0.045 C 
ENDROOT
BRANCH  10   9
ATOM      4  C   UNL     1      68.589  84.341  21.573  0.00  0.00    +0.077 A 
ATOM      5  C   UNL     1      68.770  82.936  21.802  0.00  0.00    +0.048 A 
ATOM      6  C   UNL     1      68.278  82.408  23.017  0.00  0.00    +0.116 A 
ATOM      7  N   UNL     1      67.652  83.233  23.927  0.00  0.00    -0.223 NA
ATOM      8  C   UNL     1      67.496  84.583  23.676  0.00  0.00    +0.220 A 
ATOM      9  N   UNL     1      66.863  85.429  24.573  0.00  0.00    -0.283 N 
ATOM     36  H   UNL     1      66.774  86.421  24.354  0.00  0.00    +0.155 HD
ATOM     37  N   UNL     1      67.959  85.112  22.524  0.00  0.00    -0.214 NA
BRANCH   4   3
ATOM      1  C   UNL     1      70.848  86.032  18.864  0.00  0.00    +0.020 A 
ATOM      2  C   UNL     1      70.454  85.349  20.075  0.00  0.00    +0.013 A 
ATOM      3  C   UNL     1      69.052  85.046  20.336  0.00  0.00    +0.019 A 
ATOM     38  C   UNL     1      68.067  85.450  19.345  0.00  0.00    +0.120 A 
ATOM     39  N   UNL     1      68.476  86.108  18.189  0.00  0.00    -0.263 NA
ATOM     40  C   UNL     1      69.821  86.406  17.927  0.00  0.00    +0.111 A 
ENDBRANCH   4   3
ENDBRANCH  10   9
BRANCH  12  13
ATOM     13  N   UNL     1      67.283  84.855  29.497  0.00  0.00    -0.281 N 
ATOM     14  C   UNL     1      68.603  84.554  29.792  0.00  0.00    +0.248 C 
ATOM     30  O   UNL     1      69.331  83.872  29.086  0.00  0.00    -0.270 OA
ATOM     31  H   UNL     1      66.737  85.264  30.255  0.00  0.00    +0.155 HD
BRANCH  14  15
ATOM     15  C   UNL     1      69.196  85.074  31.061  0.00  0.00    +0.037 A 
ATOM     16  C   UNL     1      68.759  84.572  32.366  0.00  0.00    +0.013 A 
ATOM     17  C   UNL     1      69.335  85.103  33.576  0.00  0.00    +0.005 A 
ATOM     18  C   UNL     1      70.358  86.142  33.486  0.00  0.00    -0.033 A 
ATOM     28  C   UNL     1      70.777  86.619  32.178  0.00  0.00    +0.005 A 
ATOM     29  C   UNL     1      70.213  86.101  30.990  0.00  0.00    +0.013 A 
BRANCH  18  19
ATOM     19  C   UNL     1      71.012  86.781  34.725  0.00  0.00    +0.119 C 
BRANCH  19  20
ATOM     20  N   UNL     1      71.431  85.864  35.826  0.00  0.00    -0.302 NA
ATOM     21  C   UNL     1      70.485  85.939  37.028  0.00  0.00    +0.066 C 
ATOM     22  C   UNL     1      70.925  84.957  38.162  0.00  0.00    -0.064 C 
ATOM     23  N   UNL     1      72.360  85.279  38.582  0.00  0.00    +0.379 N 
ATOM     24  C   UNL     1      72.757  84.395  39.688  0.00  0.00    -0.096 C 
ATOM     25  H   UNL     1      72.374  86.326  38.964  0.00  0.00    -0.082 HD
ATOM     26  C   UNL     1      73.308  85.209  37.393  0.00  0.00    -0.064 C 
ATOM     27  C   UNL     1      72.844  86.167  36.260  0.00  0.00    +0.066 C 
ENDBRANCH  19  20
ENDBRANCH  18  19
ENDBRANCH  14  15
ENDBRANCH  12  13
TORSDOF 6
ENDMDL
