MODEL 1
REMARK VINA RESULT:      -8.0      0.000      0.000
REMARK  Name = C:\Users\Docking\Desktop\test protocol\1iep_ligandH.pdb
REMARK  8 active torsions:
REMARK  status: ('A' for Active; 'I' for Inactive)
REMARK    1  A    between atoms: _5  and  _11
REMARK    2  A    between atoms: _19  and  _21
REMARK    3  A    between atoms: _22  and  _66
REMARK    4  A    between atoms: _27  and  _30
REMARK    5  A    between atoms: _32  and  _33
REMARK    6  A    between atoms: _38  and  _43
REMARK    7  A    between atoms: _43  and  _46
REMARK    8  A    between atoms: _53  and  _55
REMARK                            x       y       z     vdW  Elec       q    Type
REMARK                         _______ _______ _______ _____ _____    ______ ____
ROOT
ATOM     10  C   UNL     1      26.227  48.769  31.989  0.00  0.00    +0.038 A 
ATOM     11  C   UNL     1      26.770  47.985  30.939  0.00  0.00    +0.047 A 
ATOM     12  C   UNL     1      27.011  48.555  29.622  0.00  0.00    +0.035 A 
ATOM     32  C   UNL     1      26.692  49.928  29.411  0.00  0.00    +0.024 A 
ATOM     33  C   UNL     1      26.139  50.739  30.468  0.00  0.00    +0.007 A 
ATOM     34  C   UNL     1      25.896  50.181  31.767  0.00  0.00    -0.029 A 
ATOM     35  C   UNL     1      25.296  51.096  32.860  0.00  0.00    +0.045 C 
ENDROOT
BRANCH  10   9
ATOM      4  C   UNL     1      27.765  47.273  36.283  0.00  0.00    +0.077 A 
ATOM      5  C   UNL     1      29.110  47.696  36.014  0.00  0.00    +0.048 A 
ATOM      6  C   UNL     1      29.365  48.287  34.757  0.00  0.00    +0.116 A 
ATOM      7  N   UNL     1      28.344  48.440  33.843  0.00  0.00    -0.223 NA
ATOM      8  C   UNL     1      27.059  48.020  34.133  0.00  0.00    +0.220 A 
ATOM      9  N   UNL     1      26.016  48.170  33.233  0.00  0.00    -0.283 N 
ATOM     36  H   UNL     1      25.084  47.841  33.482  0.00  0.00    +0.155 HD
ATOM     37  N   UNL     1      26.790  47.451  35.327  0.00  0.00    -0.214 NA
BRANCH   4   3
ATOM      1  C   UNL     1      26.034  46.612  39.727  0.00  0.00    +0.020 A 
ATOM      2  C   UNL     1      26.416  47.272  38.500  0.00  0.00    +0.013 A 
ATOM      3  C   UNL     1      27.337  46.635  37.568  0.00  0.00    +0.019 A 
ATOM     38  C   UNL     1      27.857  45.320  37.909  0.00  0.00    +0.120 A 
ATOM     39  N   UNL     1      27.473  44.709  39.099  0.00  0.00    -0.263 NA
ATOM     40  C   UNL     1      26.588  45.313  40.005  0.00  0.00    +0.111 A 
ENDBRANCH   4   3
ENDBRANCH  10   9
BRANCH  12  13
ATOM     13  N   UNL     1      27.552  47.806  28.515  0.00  0.00    -0.281 N 
ATOM     14  C   UNL     1      28.877  47.704  28.122  0.00  0.00    +0.248 C 
ATOM     30  O   UNL     1      29.778  48.417  28.538  0.00  0.00    -0.270 OA
ATOM     31  H   UNL     1      26.877  47.288  27.953  0.00  0.00    +0.155 HD
BRANCH  14  15
ATOM     15  C   UNL     1      29.252  46.670  27.110  0.00  0.00    +0.037 A 
ATOM     16  C   UNL     1      30.026  47.021  25.916  0.00  0.00    +0.013 A 
ATOM     17  C   UNL     1      30.360  46.007  24.948  0.00  0.00    +0.005 A 
ATOM     18  C   UNL     1      29.921  44.631  25.170  0.00  0.00    -0.033 A 
ATOM     28  C   UNL     1      29.159  44.310  26.366  0.00  0.00    +0.005 A 
ATOM     29  C   UNL     1      28.829  45.302  27.317  0.00  0.00    +0.013 A 
BRANCH  18  19
ATOM     19  C   UNL     1      30.214  43.489  24.179  0.00  0.00    +0.119 C 
BRANCH  19  20
ATOM     20  N   UNL     1      30.659  43.873  22.806  0.00  0.00    -0.302 NA
ATOM     21  C   UNL     1      29.527  43.756  21.782  0.00  0.00    +0.066 C 
ATOM     22  C   UNL     1      30.004  44.183  20.355  0.00  0.00    -0.064 C 
ATOM     23  N   UNL     1      31.199  43.322  19.942  0.00  0.00    +0.379 N 
ATOM     24  C   UNL     1      31.614  43.681  18.578  0.00  0.00    -0.096 C 
ATOM     25  H   UNL     1      30.861  42.260  19.924  0.00  0.00    -0.082 HD
ATOM     26  C   UNL     1      32.329  43.430  20.957  0.00  0.00    -0.064 C 
ATOM     27  C   UNL     1      31.836  43.032  22.376  0.00  0.00    +0.066 C 
ENDBRANCH  19  20
ENDBRANCH  18  19
ENDBRANCH  14  15
ENDBRANCH  12  13
TORSDOF 6
ENDMDL
MODEL 2
REMARK VINA RESULT:      -7.9      1.501      1.961
REMARK  Name = C:\Users\Docking\Desktop\test protocol\1iep_ligandH.pdb
REMARK  8 active torsions:
REMARK  status: ('A' for Active; 'I' for Inactive)
REMARK    1  A    between atoms: _5  and  _11
REMARK    2  A    between atoms: _19  and  _21
REMARK    3  A    between atoms: _22  and  _66
REMARK    4  A    between atoms: _27  and  _30
REMARK    5  A    between atoms: _32  and  _33
REMARK    6  A    between atoms: _38  and  _43
REMARK    7  A    between atoms: _43  and  _46
REMARK    8  A    between atoms: _53  and  _55
REMARK                            x       y       z     vdW  Elec       q    Type
REMARK                         _______ _______ _______ _____ _____    ______ ____
ROOT
ATOM     10  C   UNL     1      26.189  48.924  32.000  0.00  0.00    +0.038 A 
ATOM     11  C   UNL     1      26.829  48.248  30.930  0.00  0.00    +0.047 A 
ATOM     12  C   UNL     1      27.024  48.893  29.641  0.00  0.00    +0.035 A 
ATOM     32  C   UNL     1      26.558  50.230  29.478  0.00  0.00    +0.024 A 
ATOM     33  C   UNL     1      25.905  50.932  30.555  0.00  0.00    +0.007 A 
ATOM     34  C   UNL     1      25.707  50.300  31.827  0.00  0.00    -0.029 A 
ATOM     35  C   UNL     1      24.995  51.098  32.944  0.00  0.00    +0.045 C 
ENDROOT
BRANCH  10   9
ATOM      4  C   UNL     1      27.822  47.440  36.263  0.00  0.00    +0.077 A 
ATOM      5  C   UNL     1      29.114  48.021  36.037  0.00  0.00    +0.048 A 
ATOM      6  C   UNL     1      29.320  48.687  34.808  0.00  0.00    +0.116 A 
ATOM      7  N   UNL     1      28.302  48.760  33.881  0.00  0.00    -0.223 NA
ATOM      8  C   UNL     1      27.068  48.188  34.130  0.00  0.00    +0.220 A 
ATOM      9  N   UNL     1      26.028  48.256  33.216  0.00  0.00    -0.283 N 
ATOM     36  H   UNL     1      25.135  47.815  33.435  0.00  0.00    +0.155 HD
ATOM     37  N   UNL     1      26.847  47.545  35.296  0.00  0.00    -0.214 NA
BRANCH   4   3
ATOM      1  C   UNL     1      26.150  46.468  39.663  0.00  0.00    +0.020 A 
ATOM      2  C   UNL     1      26.474  47.216  38.470  0.00  0.00    +0.013 A 
ATOM      3  C   UNL     1      27.449  46.707  37.514  0.00  0.00    +0.019 A 
ATOM     38  C   UNL     1      28.082  45.427  37.796  0.00  0.00    +0.120 A 
ATOM     39  N   UNL     1      27.751  44.730  38.954  0.00  0.00    -0.263 NA
ATOM     40  C   UNL     1      26.815  45.211  39.882  0.00  0.00    +0.111 A 
ENDBRANCH   4   3
ENDBRANCH  10   9
BRANCH  12  13
ATOM     13  N   UNL     1      27.659  48.253  28.516  0.00  0.00    -0.281 N 
ATOM     14  C   UNL     1      28.966  47.803  28.418  0.00  0.00    +0.248 C 
ATOM     30  O   UNL     1      29.852  48.077  29.213  0.00  0.00    -0.270 OA
ATOM     31  H   UNL     1      27.075  48.115  27.692  0.00  0.00    +0.155 HD
BRANCH  14  15
ATOM     15  C   UNL     1      29.346  46.936  27.262  0.00  0.00    +0.037 A 
ATOM     16  C   UNL     1      30.151  47.456  26.154  0.00  0.00    +0.013 A 
ATOM     17  C   UNL     1      30.489  46.602  25.042  0.00  0.00    +0.005 A 
ATOM     18  C   UNL     1      30.022  45.218  25.035  0.00  0.00    -0.033 A 
ATOM     28  C   UNL     1      29.229  44.726  26.150  0.00  0.00    +0.005 A 
ATOM     29  C   UNL     1      28.895  45.560  27.240  0.00  0.00    +0.013 A 
BRANCH  18  19
ATOM     19  C   UNL     1      30.318  44.242  23.881  0.00  0.00    +0.119 C 
BRANCH  19  20
ATOM     20  N   UNL     1      29.193  43.921  22.952  0.00  0.00    -0.302 NA
ATOM     21  C   UNL     1      28.264  45.119  22.739  0.00  0.00    +0.066 C 
ATOM     22  C   UNL     1      27.106  44.773  21.747  0.00  0.00    -0.064 C 
ATOM     23  N   UNL     1      26.325  43.570  22.279  0.00  0.00    +0.379 N 
ATOM     24  C   UNL     1      25.201  43.278  21.378  0.00  0.00    -0.096 C 
ATOM     25  H   UNL     1      25.901  43.854  23.270  0.00  0.00    -0.082 HD
ATOM     26  C   UNL     1      27.243  42.375  22.496  0.00  0.00    -0.064 C 
ATOM     27  C   UNL     1      28.406  42.738  23.460  0.00  0.00    +0.066 C 
ENDBRANCH  19  20
ENDBRANCH  18  19
ENDBRANCH  14  15
ENDBRANCH  12  13
TORSDOF 6
ENDMDL
MODEL 3
REMARK VINA RESULT:      -7.9     39.537     41.911
REMARK  Name = C:\Users\Docking\Desktop\test protocol\1iep_ligandH.pdb
REMARK  8 active torsions:
REMARK  status: ('A' for Active; 'I' for Inactive)
REMARK    1  A    between atoms: _5  and  _11
REMARK    2  A    between atoms: _19  and  _21
REMARK    3  A    between atoms: _22  and  _66
REMARK    4  A    between atoms: _27  and  _30
REMARK    5  A    between atoms: _32  and  _33
REMARK    6  A    between atoms: _38  and  _43
REMARK    7  A    between atoms: _43  and  _46
REMARK    8  A    between atoms: _53  and  _55
REMARK                            x       y       z     vdW  Elec       q    Type
REMARK                         _______ _______ _______ _____ _____    ______ ____
ROOT
ATOM     10  C   UNL     1      37.256   7.657  15.772  0.00  0.00    +0.038 A 
ATOM     11  C   UNL     1      38.303   8.246  16.526  0.00  0.00    +0.047 A 
ATOM     12  C   UNL     1      39.689   7.851  16.326  0.00  0.00    +0.035 A 
ATOM     32  C   UNL     1      39.972   6.854  15.347  0.00  0.00    +0.024 A 
ATOM     33  C   UNL     1      38.920   6.243  14.574  0.00  0.00    +0.007 A 
ATOM     34  C   UNL     1      37.551   6.627  14.768  0.00  0.00    -0.029 A 
ATOM     35  C   UNL     1      36.463   5.935  13.915  0.00  0.00    +0.045 C 
ENDROOT
BRANCH  10   9
ATOM      4  C   UNL     1      33.096   7.412  18.155  0.00  0.00    +0.077 A 
ATOM      5  C   UNL     1      33.568   6.343  18.988  0.00  0.00    +0.048 A 
ATOM      6  C   UNL     1      34.885   5.881  18.766  0.00  0.00    +0.116 A 
ATOM      7  N   UNL     1      35.663   6.452  17.782  0.00  0.00    -0.223 NA
ATOM      8  C   UNL     1      35.176   7.480  16.995  0.00  0.00    +0.220 A 
ATOM      9  N   UNL     1      35.943   8.074  16.005  0.00  0.00    -0.283 N 
ATOM     36  H   UNL     1      35.545   8.825  15.441  0.00  0.00    +0.155 HD
ATOM     37  N   UNL     1      33.922   7.938  17.186  0.00  0.00    -0.214 NA
BRANCH   4   3
ATOM      1  C   UNL     1      29.367   8.363  17.457  0.00  0.00    +0.020 A 
ATOM      2  C   UNL     1      30.670   7.759  17.300  0.00  0.00    +0.013 A 
ATOM      3  C   UNL     1      31.729   8.011  18.269  0.00  0.00    +0.019 A 
ATOM     38  C   UNL     1      31.434   8.884  19.396  0.00  0.00    +0.120 A 
ATOM     39  N   UNL     1      30.170   9.452  19.520  0.00  0.00    -0.263 NA
ATOM     40  C   UNL     1      29.144   9.218  18.593  0.00  0.00    +0.111 A 
ENDBRANCH   4   3
ENDBRANCH  10   9
BRANCH  12  13
ATOM     13  N   UNL     1      40.793   8.409  17.066  0.00  0.00    -0.281 N 
ATOM     14  C   UNL     1      41.216   9.727  17.101  0.00  0.00    +0.248 C 
ATOM     30  O   UNL     1      40.836  10.595  16.329  0.00  0.00    -0.270 OA
ATOM     31  H   UNL     1      41.328   7.751  17.634  0.00  0.00    +0.155 HD
BRANCH  14  15
ATOM     15  C   UNL     1      42.215  10.138  18.134  0.00  0.00    +0.037 A 
ATOM     16  C   UNL     1      42.165   9.600  19.496  0.00  0.00    +0.013 A 
ATOM     17  C   UNL     1      43.131  10.026  20.478  0.00  0.00    +0.005 A 
ATOM     18  C   UNL     1      44.156  10.996  20.100  0.00  0.00    -0.033 A 
ATOM     28  C   UNL     1      44.185  11.509  18.740  0.00  0.00    +0.005 A 
ATOM     29  C   UNL     1      43.240  11.095  17.776  0.00  0.00    +0.013 A 
BRANCH  18  19
ATOM     19  C   UNL     1      45.214  11.522  21.088  0.00  0.00    +0.119 C 
BRANCH  19  20
ATOM     20  N   UNL     1      46.572  11.819  20.542  0.00  0.00    -0.302 NA
ATOM     21  C   UNL     1      47.527  10.633  20.702  0.00  0.00    +0.066 C 
ATOM     22  C   UNL     1      48.936  10.954  20.105  0.00  0.00    -0.064 C 
ATOM     23  N   UNL     1      49.503  12.201  20.784  0.00  0.00    +0.379 N 
ATOM     24  C   UNL     1      50.853  12.471  20.267  0.00  0.00    -0.096 C 
ATOM     25  H   UNL     1      49.596  11.981  21.873  0.00  0.00    -0.082 HD
ATOM     26  C   UNL     1      48.558  13.385  20.633  0.00  0.00    -0.064 C 
ATOM     27  C   UNL     1      47.152  13.046  21.202  0.00  0.00    +0.066 C 
ENDBRANCH  19  20
ENDBRANCH  18  19
ENDBRANCH  14  15
ENDBRANCH  12  13
TORSDOF 6
ENDMDL
MODEL 4
REMARK VINA RESULT:      -7.9     27.551     32.322
REMARK  Name = C:\Users\Docking\Desktop\test protocol\1iep_ligandH.pdb
REMARK  8 active torsions:
REMARK  status: ('A' for Active; 'I' for Inactive)
REMARK    1  A    between atoms: _5  and  _11
REMARK    2  A    between atoms: _19  and  _21
REMARK    3  A    between atoms: _22  and  _66
REMARK    4  A    between atoms: _27  and  _30
REMARK    5  A    between atoms: _32  and  _33
REMARK    6  A    between atoms: _38  and  _43
REMARK    7  A    between atoms: _43  and  _46
REMARK    8  A    between atoms: _53  and  _55
REMARK                            x       y       z     vdW  Elec       q    Type
REMARK                         _______ _______ _______ _____ _____    ______ ____
ROOT
ATOM     10  C   UNL     1      35.815  38.879   3.286  0.00  0.00    +0.038 A 
ATOM     11  C   UNL     1      36.851  38.528   2.383  0.00  0.00    +0.047 A 
ATOM     12  C   UNL     1      37.388  39.496   1.441  0.00  0.00    +0.035 A 
ATOM     32  C   UNL     1      36.848  40.816   1.446  0.00  0.00    +0.024 A 
ATOM     33  C   UNL     1      35.794  41.190   2.356  0.00  0.00    +0.007 A 
ATOM     34  C   UNL     1      35.259  40.238   3.287  0.00  0.00    -0.029 A 
ATOM     35  C   UNL     1      34.125  40.692   4.235  0.00  0.00    +0.045 C 
ENDROOT
BRANCH  10   9
ATOM      4  C   UNL     1      32.993  35.145   4.350  0.00  0.00    +0.077 A 
ATOM      5  C   UNL     1      32.402  35.143   3.042  0.00  0.00    +0.048 A 
ATOM      6  C   UNL     1      32.847  36.124   2.128  0.00  0.00    +0.116 A 
ATOM      7  N   UNL     1      33.812  37.034   2.504  0.00  0.00    -0.223 NA
ATOM      8  C   UNL     1      34.360  37.009   3.773  0.00  0.00    +0.220 A 
ATOM      9  N   UNL     1      35.337  37.909   4.170  0.00  0.00    -0.283 N 
ATOM     36  H   UNL     1      35.710  37.863   5.118  0.00  0.00    +0.155 HD
ATOM     37  N   UNL     1      33.951  36.083   4.665  0.00  0.00    -0.214 NA
BRANCH   4   3
ATOM      1  C   UNL     1      31.172  33.376   7.325  0.00  0.00    +0.020 A 
ATOM      2  C   UNL     1      31.479  34.348   6.302  0.00  0.00    +0.013 A 
ATOM      3  C   UNL     1      32.630  34.169   5.426  0.00  0.00    +0.019 A 
ATOM     38  C   UNL     1      33.456  32.986   5.612  0.00  0.00    +0.120 A 
ATOM     39  N   UNL     1      33.136  32.067   6.607  0.00  0.00    -0.263 NA
ATOM     40  C   UNL     1      32.032  32.229   7.457  0.00  0.00    +0.111 A 
ENDBRANCH   4   3
ENDBRANCH  10   9
BRANCH  12  13
ATOM     13  N   UNL     1      38.434  39.195   0.495  0.00  0.00    -0.281 N 
ATOM     14  C   UNL     1      39.747  39.637   0.508  0.00  0.00    +0.248 C 
ATOM     30  O   UNL     1      40.167  40.536   1.221  0.00  0.00    -0.270 OA
ATOM     31  H   UNL     1      38.176  38.581  -0.277  0.00  0.00    +0.155 HD
BRANCH  14  15
ATOM     15  C   UNL     1      40.733  38.999  -0.416  0.00  0.00    +0.037 A 
ATOM     16  C   UNL     1      41.958  39.695  -0.820  0.00  0.00    +0.013 A 
ATOM     17  C   UNL     1      42.884  39.062  -1.726  0.00  0.00    +0.005 A 
ATOM     18  C   UNL     1      42.589  37.724  -2.233  0.00  0.00    -0.033 A 
ATOM     28  C   UNL     1      41.369  37.055  -1.812  0.00  0.00    +0.005 A 
ATOM     29  C   UNL     1      40.459  37.672  -0.925  0.00  0.00    +0.013 A 
BRANCH  18  19
ATOM     19  C   UNL     1      43.510  36.982  -3.219  0.00  0.00    +0.119 C 
BRANCH  19  20
ATOM     20  N   UNL     1      43.621  37.538  -4.601  0.00  0.00    -0.302 NA
ATOM     21  C   UNL     1      42.387  37.218  -5.450  0.00  0.00    +0.066 C 
ATOM     22  C   UNL     1      42.510  37.826  -6.885  0.00  0.00    -0.064 C 
ATOM     23  N   UNL     1      43.779  37.295  -7.553  0.00  0.00    +0.379 N 
ATOM     24  C   UNL     1      43.867  37.820  -8.924  0.00  0.00    -0.096 C 
ATOM     25  H   UNL     1      43.687  36.186  -7.620  0.00  0.00    -0.082 HD
ATOM     26  C   UNL     1      45.011  37.607  -6.715  0.00  0.00    -0.064 C 
ATOM     27  C   UNL     1      44.865  37.023  -5.282  0.00  0.00    +0.066 C 
ENDBRANCH  19  20
ENDBRANCH  18  19
ENDBRANCH  14  15
ENDBRANCH  12  13
TORSDOF 6
ENDMDL
MODEL 5
REMARK VINA RESULT:      -7.9     26.917     31.487
REMARK  Name = C:\Users\Docking\Desktop\test protocol\1iep_ligandH.pdb
REMARK  8 active torsions:
REMARK  status: ('A' for Active; 'I' for Inactive)
REMARK    1  A    between atoms: _5  and  _11
REMARK    2  A    between atoms: _19  and  _21
REMARK    3  A    between atoms: _22  and  _66
REMARK    4  A    between atoms: _27  and  _30
REMARK    5  A    between atoms: _32  and  _33
REMARK    6  A    between atoms: _38  and  _43
REMARK    7  A    between atoms: _43  and  _46
REMARK    8  A    between atoms: _53  and  _55
REMARK                            x       y       z     vdW  Elec       q    Type
REMARK                         _______ _______ _______ _____ _____    ______ ____
ROOT
ATOM     10  C   UNL     1      35.053  38.430   4.614  0.00  0.00    +0.038 A 
ATOM     11  C   UNL     1      36.223  38.213   3.843  0.00  0.00    +0.047 A 
ATOM     12  C   UNL     1      36.810  39.282   3.048  0.00  0.00    +0.035 A 
ATOM     32  C   UNL     1      36.180  40.560   3.066  0.00  0.00    +0.024 A 
ATOM     33  C   UNL     1      34.989  40.798   3.843  0.00  0.00    +0.007 A 
ATOM     34  C   UNL     1      34.405  39.747   4.627  0.00  0.00    -0.029 A 
ATOM     35  C   UNL     1      33.124  40.058   5.436  0.00  0.00    +0.045 C 
ENDROOT
BRANCH  10   9
ATOM      4  C   UNL     1      33.403  33.940   5.000  0.00  0.00    +0.077 A 
ATOM      5  C   UNL     1      33.567  33.696   3.595  0.00  0.00    +0.048 A 
ATOM      6  C   UNL     1      34.072  34.755   2.808  0.00  0.00    +0.116 A 
ATOM      7  N   UNL     1      34.387  35.963   3.391  0.00  0.00    -0.223 NA
ATOM      8  C   UNL     1      34.215  36.165   4.748  0.00  0.00    +0.220 A 
ATOM      9  N   UNL     1      34.532  37.369   5.358  0.00  0.00    -0.283 N 
ATOM     36  H   UNL     1      34.384  37.481   6.361  0.00  0.00    +0.155 HD
ATOM     37  N   UNL     1      33.733  35.170   5.522  0.00  0.00    -0.214 NA
BRANCH   4   3
ATOM      1  C   UNL     1      32.921  30.638   7.041  0.00  0.00    +0.020 A 
ATOM      2  C   UNL     1      33.460  31.587   6.094  0.00  0.00    +0.013 A 
ATOM      3  C   UNL     1      32.884  32.919   5.964  0.00  0.00    +0.019 A 
ATOM     38  C   UNL     1      31.754  33.263   6.814  0.00  0.00    +0.120 A 
ATOM     39  N   UNL     1      31.255  32.328   7.716  0.00  0.00    -0.263 NA
ATOM     40  C   UNL     1      31.801  31.043   7.849  0.00  0.00    +0.111 A 
ENDBRANCH   4   3
ENDBRANCH  10   9
BRANCH  12  13
ATOM     13  N   UNL     1      37.992  39.118   2.239  0.00  0.00    -0.281 N 
ATOM     14  C   UNL     1      38.075  39.040   0.859  0.00  0.00    +0.248 C 
ATOM     30  O   UNL     1      37.116  38.884   0.116  0.00  0.00    -0.270 OA
ATOM     31  H   UNL     1      38.875  39.052   2.746  0.00  0.00    +0.155 HD
BRANCH  14  15
ATOM     15  C   UNL     1      39.417  39.134   0.209  0.00  0.00    +0.037 A 
ATOM     16  C   UNL     1      40.317  40.258   0.484  0.00  0.00    +0.013 A 
ATOM     17  C   UNL     1      41.600  40.333  -0.169  0.00  0.00    +0.005 A 
ATOM     18  C   UNL     1      41.991  39.280  -1.103  0.00  0.00    -0.033 A 
ATOM     28  C   UNL     1      41.082  38.174  -1.353  0.00  0.00    +0.005 A 
ATOM     29  C   UNL     1      39.823  38.097  -0.716  0.00  0.00    +0.013 A 
BRANCH  18  19
ATOM     19  C   UNL     1      43.332  39.290  -1.861  0.00  0.00    +0.119 C 
BRANCH  19  20
ATOM     20  N   UNL     1      43.294  38.988  -3.322  0.00  0.00    -0.302 NA
ATOM     21  C   UNL     1      43.744  37.555  -3.625  0.00  0.00    +0.066 C 
ATOM     22  C   UNL     1      43.676  37.249  -5.156  0.00  0.00    -0.064 C 
ATOM     23  N   UNL     1      44.539  38.259  -5.915  0.00  0.00    +0.379 N 
ATOM     24  C   UNL     1      44.523  37.938  -7.349  0.00  0.00    -0.096 C 
ATOM     25  H   UNL     1      45.587  38.146  -5.554  0.00  0.00    -0.082 HD
ATOM     26  C   UNL     1      44.100  39.686  -5.617  0.00  0.00    -0.064 C 
ATOM     27  C   UNL     1      44.143  39.971  -4.090  0.00  0.00    +0.066 C 
ENDBRANCH  19  20
ENDBRANCH  18  19
ENDBRANCH  14  15
ENDBRANCH  12  13
TORSDOF 6
ENDMDL
