MODEL 1
REMARK VINA RESULT:      -8.7      0.000      0.000
REMARK  Name = C:\Users\Docking\Desktop\test protocol\1iep_ligandH.pdb
REMARK  8 active torsions:
REMARK  status: ('A' for Active; 'I' for Inactive)
REMARK    1  A    between atoms: _5  and  _11
REMARK    2  A    between atoms: _19  and  _21
REMARK    3  A    between atoms: _22  and  _66
REMARK    4  A    between atoms: _27  and  _30
REMARK    5  A    between atoms: _32  and  _33
REMARK    6  A    between atoms: _38  and  _43
REMARK    7  A    between atoms: _43  and  _46
REMARK    8  A    between atoms: _53  and  _55
REMARK                            x       y       z     vdW  Elec       q    Type
REMARK                         _______ _______ _______ _____ _____    ______ ____
ROOT
ATOM     10  C   UNL     1      21.949  32.529  38.379  0.00  0.00    +0.038 A 
ATOM     11  C   UNL     1      23.171  32.087  38.947  0.00  0.00    +0.047 A 
ATOM     12  C   UNL     1      23.705  30.767  38.651  0.00  0.00    +0.035 A 
ATOM     32  C   UNL     1      22.969  29.922  37.770  0.00  0.00    +0.024 A 
ATOM     33  C   UNL     1      21.724  30.355  37.184  0.00  0.00    +0.007 A 
ATOM     34  C   UNL     1      21.191  31.655  37.475  0.00  0.00    -0.029 A 
ATOM     35  C   UNL     1      19.849  32.063  36.824  0.00  0.00    +0.045 C 
ENDROOT
BRANCH  10   9
ATOM      4  C   UNL     1      21.659  37.251  37.573  0.00  0.00    +0.077 A 
ATOM      5  C   UNL     1      22.531  37.171  36.437  0.00  0.00    +0.048 A 
ATOM      6  C   UNL     1      23.039  35.896  36.097  0.00  0.00    +0.116 A 
ATOM      7  N   UNL     1      22.693  34.792  36.845  0.00  0.00    -0.223 NA
ATOM      8  C   UNL     1      21.851  34.905  37.936  0.00  0.00    +0.220 A 
ATOM      9  N   UNL     1      21.483  33.806  38.698  0.00  0.00    -0.283 N 
ATOM     36  H   UNL     1      20.865  33.932  39.499  0.00  0.00    +0.155 HD
ATOM     37  N   UNL     1      21.354  36.111  38.281  0.00  0.00    -0.214 NA
BRANCH   4   3
ATOM      1  C   UNL     1      20.806  40.411  39.716  0.00  0.00    +0.020 A 
ATOM      2  C   UNL     1      21.436  39.180  39.296  0.00  0.00    +0.013 A 
ATOM      3  C   UNL     1      21.040  38.526  38.055  0.00  0.00    +0.019 A 
ATOM     38  C   UNL     1      19.997  39.150  37.254  0.00  0.00    +0.120 A 
ATOM     39  N   UNL     1      19.407  40.335  37.685  0.00  0.00    -0.263 NA
ATOM     40  C   UNL     1      19.779  40.971  38.878  0.00  0.00    +0.111 A 
ENDBRANCH   4   3
ENDBRANCH  10   9
BRANCH  12  13
ATOM     13  N   UNL     1      24.937  30.261  39.205  0.00  0.00    -0.281 N 
ATOM     14  C   UNL     1      26.230  30.521  38.782  0.00  0.00    +0.248 C 
ATOM     30  O   UNL     1      26.516  31.063  37.725  0.00  0.00    -0.270 OA
ATOM     31  H   UNL     1      24.844  29.635  40.005  0.00  0.00    +0.155 HD
BRANCH  14  15
ATOM     15  C   UNL     1      27.371  30.107  39.654  0.00  0.00    +0.037 A 
ATOM     16  C   UNL     1      28.112  31.086  40.453  0.00  0.00    +0.013 A 
ATOM     17  C   UNL     1      29.220  30.663  41.272  0.00  0.00    +0.005 A 
ATOM     18  C   UNL     1      29.592  29.250  41.298  0.00  0.00    -0.033 A 
ATOM     28  C   UNL     1      28.837  28.299  40.500  0.00  0.00    +0.005 A 
ATOM     29  C   UNL     1      27.751  28.711  39.695  0.00  0.00    +0.013 A 
BRANCH  18  19
ATOM     19  C   UNL     1      30.773  28.711  42.127  0.00  0.00    +0.119 C 
BRANCH  19  20
ATOM     20  N   UNL     1      30.771  27.254  42.453  0.00  0.00    -0.302 NA
ATOM     21  C   UNL     1      30.163  26.974  43.830  0.00  0.00    +0.066 C 
ATOM     22  C   UNL     1      30.149  25.443  44.145  0.00  0.00    -0.064 C 
ATOM     23  N   UNL     1      31.574  24.894  44.061  0.00  0.00    +0.379 N 
ATOM     24  C   UNL     1      31.572  23.467  44.414  0.00  0.00    -0.096 C 
ATOM     25  H   UNL     1      32.188  25.430  44.822  0.00  0.00    -0.082 HD
ATOM     26  C   UNL     1      32.187  25.171  42.696  0.00  0.00    -0.064 C 
ATOM     27  C   UNL     1      32.170  26.692  42.380  0.00  0.00    +0.066 C 
ENDBRANCH  19  20
ENDBRANCH  18  19
ENDBRANCH  14  15
ENDBRANCH  12  13
TORSDOF 6
ENDMDL
MODEL 2
REMARK VINA RESULT:      -8.6     22.869     25.439
REMARK  Name = C:\Users\Docking\Desktop\test protocol\1iep_ligandH.pdb
REMARK  8 active torsions:
REMARK  status: ('A' for Active; 'I' for Inactive)
REMARK    1  A    between atoms: _5  and  _11
REMARK    2  A    between atoms: _19  and  _21
REMARK    3  A    between atoms: _22  and  _66
REMARK    4  A    between atoms: _27  and  _30
REMARK    5  A    between atoms: _32  and  _33
REMARK    6  A    between atoms: _38  and  _43
REMARK    7  A    between atoms: _43  and  _46
REMARK    8  A    between atoms: _53  and  _55
REMARK                            x       y       z     vdW  Elec       q    Type
REMARK                         _______ _______ _______ _____ _____    ______ ____
ROOT
ATOM     10  C   UNL     1       8.780  18.353  49.503  0.00  0.00    +0.038 A 
ATOM     11  C   UNL     1       8.557  18.729  50.852  0.00  0.00    +0.047 A 
ATOM     12  C   UNL     1       7.218  18.737  51.419  0.00  0.00    +0.035 A 
ATOM     32  C   UNL     1       6.128  18.353  50.584  0.00  0.00    +0.024 A 
ATOM     33  C   UNL     1       6.337  17.969  49.210  0.00  0.00    +0.007 A 
ATOM     34  C   UNL     1       7.655  17.962  48.645  0.00  0.00    -0.029 A 
ATOM     35  C   UNL     1       7.819  17.547  47.164  0.00  0.00    +0.045 C 
ENDROOT
BRANCH  10   9
ATOM      4  C   UNL     1      12.751  20.647  48.086  0.00  0.00    +0.077 A 
ATOM      5  C   UNL     1      12.163  21.934  48.322  0.00  0.00    +0.048 A 
ATOM      6  C   UNL     1      10.834  21.962  48.801  0.00  0.00    +0.116 A 
ATOM      7  N   UNL     1      10.154  20.785  49.024  0.00  0.00    -0.223 NA
ATOM      8  C   UNL     1      10.750  19.560  48.785  0.00  0.00    +0.220 A 
ATOM      9  N   UNL     1      10.087  18.364  49.010  0.00  0.00    -0.283 N 
ATOM     36  H   UNL     1      10.559  17.481  48.814  0.00  0.00    +0.155 HD
ATOM     37  N   UNL     1      12.017  19.507  48.325  0.00  0.00    -0.214 NA
BRANCH   4   3
ATOM      1  C   UNL     1      16.278  21.288  46.521  0.00  0.00    +0.020 A 
ATOM      2  C   UNL     1      14.934  21.528  46.991  0.00  0.00    +0.013 A 
ATOM      3  C   UNL     1      14.148  20.453  47.582  0.00  0.00    +0.019 A 
ATOM     38  C   UNL     1      14.757  19.135  47.684  0.00  0.00    +0.120 A 
ATOM     39  N   UNL     1      16.053  18.933  47.221  0.00  0.00    -0.263 NA
ATOM     40  C   UNL     1      16.819  19.960  46.649  0.00  0.00    +0.111 A 
ENDBRANCH   4   3
ENDBRANCH  10   9
BRANCH  12  13
ATOM     13  N   UNL     1       6.929  19.117  52.780  0.00  0.00    -0.281 N 
ATOM     14  C   UNL     1       7.624  18.771  53.927  0.00  0.00    +0.248 C 
ATOM     30  O   UNL     1       8.482  17.901  53.979  0.00  0.00    -0.270 OA
ATOM     31  H   UNL     1       6.113  19.714  52.914  0.00  0.00    +0.155 HD
BRANCH  14  15
ATOM     15  C   UNL     1       7.313  19.483  55.203  0.00  0.00    +0.037 A 
ATOM     16  C   UNL     1       5.930  19.770  55.595  0.00  0.00    +0.013 A 
ATOM     17  C   UNL     1       5.658  20.474  56.823  0.00  0.00    +0.005 A 
ATOM     18  C   UNL     1       6.772  20.894  57.670  0.00  0.00    -0.033 A 
ATOM     28  C   UNL     1       8.133  20.592  57.260  0.00  0.00    +0.005 A 
ATOM     29  C   UNL     1       8.404  19.903  56.056  0.00  0.00    +0.013 A 
BRANCH  18  19
ATOM     19  C   UNL     1       6.576  21.668  58.987  0.00  0.00    +0.119 C 
BRANCH  19  20
ATOM     20  N   UNL     1       6.342  23.140  58.887  0.00  0.00    -0.302 NA
ATOM     21  C   UNL     1       4.858  23.474  58.707  0.00  0.00    +0.066 C 
ATOM     22  C   UNL     1       4.629  25.019  58.626  0.00  0.00    -0.064 C 
ATOM     23  N   UNL     1       5.457  25.596  57.477  0.00  0.00    +0.379 N 
ATOM     24  C   UNL     1       5.199  27.038  57.362  0.00  0.00    -0.096 C 
ATOM     25  H   UNL     1       5.109  25.113  56.534  0.00  0.00    -0.082 HD
ATOM     26  C   UNL     1       6.933  25.265  57.647  0.00  0.00    -0.064 C 
ATOM     27  C   UNL     1       7.147  23.730  57.755  0.00  0.00    +0.066 C 
ENDBRANCH  19  20
ENDBRANCH  18  19
ENDBRANCH  14  15
ENDBRANCH  12  13
TORSDOF 6
ENDMDL
MODEL 3
REMARK VINA RESULT:      -8.5     22.537     24.794
REMARK  Name = C:\Users\Docking\Desktop\test protocol\1iep_ligandH.pdb
REMARK  8 active torsions:
REMARK  status: ('A' for Active; 'I' for Inactive)
REMARK    1  A    between atoms: _5  and  _11
REMARK    2  A    between atoms: _19  and  _21
REMARK    3  A    between atoms: _22  and  _66
REMARK    4  A    between atoms: _27  and  _30
REMARK    5  A    between atoms: _32  and  _33
REMARK    6  A    between atoms: _38  and  _43
REMARK    7  A    between atoms: _43  and  _46
REMARK    8  A    between atoms: _53  and  _55
REMARK                            x       y       z     vdW  Elec       q    Type
REMARK                         _______ _______ _______ _____ _____    ______ ____
ROOT
ATOM     10  C   UNL     1       9.435  19.501  48.081  0.00  0.00    +0.038 A 
ATOM     11  C   UNL     1       9.460  19.099  49.441  0.00  0.00    +0.047 A 
ATOM     12  C   UNL     1      10.713  18.780  50.108  0.00  0.00    +0.035 A 
ATOM     32  C   UNL     1      11.922  18.886  49.361  0.00  0.00    +0.024 A 
ATOM     33  C   UNL     1      11.915  19.292  47.978  0.00  0.00    +0.007 A 
ATOM     34  C   UNL     1      10.682  19.605  47.314  0.00  0.00    -0.029 A 
ATOM     35  C   UNL     1      10.733  20.029  45.827  0.00  0.00    +0.045 C 
ENDROOT
BRANCH  10   9
ATOM      4  C   UNL     1       5.208  18.183  46.228  0.00  0.00    +0.077 A 
ATOM      5  C   UNL     1       5.488  16.790  46.429  0.00  0.00    +0.048 A 
ATOM      6  C   UNL     1       6.733  16.455  47.005  0.00  0.00    +0.116 A 
ATOM      7  N   UNL     1       7.625  17.447  47.351  0.00  0.00    -0.223 NA
ATOM      8  C   UNL     1       7.325  18.780  47.143  0.00  0.00    +0.220 A 
ATOM      9  N   UNL     1       8.204  19.795  47.491  0.00  0.00    -0.283 N 
ATOM     36  H   UNL     1       7.948  20.766  47.314  0.00  0.00    +0.155 HD
ATOM     37  N   UNL     1       6.143  19.126  46.592  0.00  0.00    -0.214 NA
BRANCH   4   3
ATOM      1  C   UNL     1       2.283  20.536  45.129  0.00  0.00    +0.020 A 
ATOM      2  C   UNL     1       3.524  20.092  45.721  0.00  0.00    +0.013 A 
ATOM      3  C   UNL     1       3.934  18.696  45.632  0.00  0.00    +0.019 A 
ATOM     38  C   UNL     1       3.060  17.768  44.930  0.00  0.00    +0.120 A 
ATOM     39  N   UNL     1       1.871  18.225  44.371  0.00  0.00    -0.263 NA
ATOM     40  C   UNL     1       1.465  19.565  44.451  0.00  0.00    +0.111 A 
ENDBRANCH   4   3
ENDBRANCH  10   9
BRANCH  12  13
ATOM     13  N   UNL     1      10.800  18.359  51.485  0.00  0.00    -0.281 N 
ATOM     14  C   UNL     1      10.980  17.074  51.972  0.00  0.00    +0.248 C 
ATOM     30  O   UNL     1      10.879  16.059  51.299  0.00  0.00    -0.270 OA
ATOM     31  H   UNL     1      10.720  19.096  52.184  0.00  0.00    +0.155 HD
BRANCH  14  15
ATOM     15  C   UNL     1      11.304  16.890  53.419  0.00  0.00    +0.037 A 
ATOM     16  C   UNL     1      10.802  15.737  54.170  0.00  0.00    +0.013 A 
ATOM     17  C   UNL     1      11.116  15.592  55.569  0.00  0.00    +0.005 A 
ATOM     18  C   UNL     1      11.939  16.604  56.227  0.00  0.00    -0.033 A 
ATOM     28  C   UNL     1      12.429  17.736  55.457  0.00  0.00    +0.005 A 
ATOM     29  C   UNL     1      12.122  17.881  54.086  0.00  0.00    +0.013 A 
BRANCH  18  19
ATOM     19  C   UNL     1      12.306  16.542  57.721  0.00  0.00    +0.119 C 
BRANCH  19  20
ATOM     20  N   UNL     1      13.632  15.953  58.076  0.00  0.00    -0.302 NA
ATOM     21  C   UNL     1      13.497  14.550  58.673  0.00  0.00    +0.066 C 
ATOM     22  C   UNL     1      14.895  13.940  59.017  0.00  0.00    -0.064 C 
ATOM     23  N   UNL     1      15.630  14.871  59.983  0.00  0.00    +0.379 N 
ATOM     24  C   UNL     1      16.921  14.273  60.354  0.00  0.00    -0.096 C 
ATOM     25  H   UNL     1      15.015  14.950  60.909  0.00  0.00    -0.082 HD
ATOM     26  C   UNL     1      15.767  16.270  59.398  0.00  0.00    -0.064 C 
ATOM     27  C   UNL     1      14.374  16.854  59.033  0.00  0.00    +0.066 C 
ENDBRANCH  19  20
ENDBRANCH  18  19
ENDBRANCH  14  15
ENDBRANCH  12  13
TORSDOF 6
ENDMDL
