MODEL 1
REMARK VINA RESULT:      -7.9      0.000      0.000
REMARK  Name = C:\Users\Docking\Desktop\test protocol\1iep_ligandH.pdb
REMARK  8 active torsions:
REMARK  status: ('A' for Active; 'I' for Inactive)
REMARK    1  A    between atoms: _5  and  _11
REMARK    2  A    between atoms: _19  and  _21
REMARK    3  A    between atoms: _22  and  _66
REMARK    4  A    between atoms: _27  and  _30
REMARK    5  A    between atoms: _32  and  _33
REMARK    6  A    between atoms: _38  and  _43
REMARK    7  A    between atoms: _43  and  _46
REMARK    8  A    between atoms: _53  and  _55
REMARK                            x       y       z     vdW  Elec       q    Type
REMARK                         _______ _______ _______ _____ _____    ______ ____
ROOT
ATOM     10  C   UNL     1      37.814  46.918  13.331  0.00  0.00    +0.038 A 
ATOM     11  C   UNL     1      37.108  46.964  12.102  0.00  0.00    +0.047 A 
ATOM     12  C   UNL     1      36.297  45.842  11.657  0.00  0.00    +0.035 A 
ATOM     32  C   UNL     1      36.226  44.688  12.491  0.00  0.00    +0.024 A 
ATOM     33  C   UNL     1      36.938  44.623  13.743  0.00  0.00    +0.007 A 
ATOM     34  C   UNL     1      37.741  45.726  14.186  0.00  0.00    -0.029 A 
ATOM     35  C   UNL     1      38.489  45.599  15.534  0.00  0.00    +0.045 C 
ENDROOT
BRANCH  10   9
ATOM      4  C   UNL     1      38.462  50.953  15.848  0.00  0.00    +0.077 A 
ATOM      5  C   UNL     1      37.157  50.864  16.439  0.00  0.00    +0.048 A 
ATOM      6  C   UNL     1      36.349  49.768  16.063  0.00  0.00    +0.116 A 
ATOM      7  N   UNL     1      36.819  48.837  15.163  0.00  0.00    -0.223 NA
ATOM      8  C   UNL     1      38.081  48.953  14.611  0.00  0.00    +0.220 A 
ATOM      9  N   UNL     1      38.578  48.024  13.710  0.00  0.00    -0.283 N 
ATOM     36  H   UNL     1      39.511  48.150  13.319  0.00  0.00    +0.155 HD
ATOM     37  N   UNL     1      38.873  49.992  14.952  0.00  0.00    -0.214 NA
BRANCH   4   3
ATOM      1  C   UNL     1      40.339  54.385  15.831  0.00  0.00    +0.020 A 
ATOM      2  C   UNL     1      39.375  53.359  15.506  0.00  0.00    +0.013 A 
ATOM      3  C   UNL     1      39.435  52.051  16.147  0.00  0.00    +0.019 A 
ATOM     38  C   UNL     1      40.489  51.813  17.121  0.00  0.00    +0.120 A 
ATOM     39  N   UNL     1      41.404  52.819  17.412  0.00  0.00    -0.263 NA
ATOM     40  C   UNL     1      41.358  54.081  16.800  0.00  0.00    +0.111 A 
ENDBRANCH   4   3
ENDBRANCH  10   9
BRANCH  12  13
ATOM     13  N   UNL     1      35.564  45.828  10.416  0.00  0.00    -0.281 N 
ATOM     14  C   UNL     1      36.069  45.913   9.128  0.00  0.00    +0.248 C 
ATOM     30  O   UNL     1      37.217  46.229   8.855  0.00  0.00    -0.270 OA
ATOM     31  H   UNL     1      34.551  45.747  10.495  0.00  0.00    +0.155 HD
BRANCH  14  15
ATOM     15  C   UNL     1      35.163  45.617   7.977  0.00  0.00    +0.037 A 
ATOM     16  C   UNL     1      35.523  45.999   6.609  0.00  0.00    +0.013 A 
ATOM     17  C   UNL     1      34.623  45.717   5.519  0.00  0.00    +0.005 A 
ATOM     18  C   UNL     1      33.353  45.048   5.793  0.00  0.00    -0.033 A 
ATOM     28  C   UNL     1      33.024  44.675   7.158  0.00  0.00    +0.005 A 
ATOM     29  C   UNL     1      33.903  44.951   8.230  0.00  0.00    +0.013 A 
BRANCH  18  19
ATOM     19  C   UNL     1      32.323  44.727   4.694  0.00  0.00    +0.119 C 
BRANCH  19  20
ATOM     20  N   UNL     1      32.684  43.665   3.708  0.00  0.00    -0.302 NA
ATOM     21  C   UNL     1      33.495  42.536   4.349  0.00  0.00    +0.066 C 
ATOM     22  C   UNL     1      33.844  41.423   3.309  0.00  0.00    -0.064 C 
ATOM     23  N   UNL     1      34.611  42.045   2.140  0.00  0.00    +0.379 N 
ATOM     24  C   UNL     1      34.991  40.991   1.187  0.00  0.00    -0.096 C 
ATOM     25  H   UNL     1      35.550  42.487   2.548  0.00  0.00    -0.082 HD
ATOM     26  C   UNL     1      33.812  43.170   1.497  0.00  0.00    -0.064 C 
ATOM     27  C   UNL     1      33.445  44.256   2.547  0.00  0.00    +0.066 C 
ENDBRANCH  19  20
ENDBRANCH  18  19
ENDBRANCH  14  15
ENDBRANCH  12  13
TORSDOF 6
ENDMDL
MODEL 2
REMARK VINA RESULT:      -7.8      2.670     13.540
REMARK  Name = C:\Users\Docking\Desktop\test protocol\1iep_ligandH.pdb
REMARK  8 active torsions:
REMARK  status: ('A' for Active; 'I' for Inactive)
REMARK    1  A    between atoms: _5  and  _11
REMARK    2  A    between atoms: _19  and  _21
REMARK    3  A    between atoms: _22  and  _66
REMARK    4  A    between atoms: _27  and  _30
REMARK    5  A    between atoms: _32  and  _33
REMARK    6  A    between atoms: _38  and  _43
REMARK    7  A    between atoms: _43  and  _46
REMARK    8  A    between atoms: _53  and  _55
REMARK                            x       y       z     vdW  Elec       q    Type
REMARK                         _______ _______ _______ _____ _____    ______ ____
ROOT
ATOM     10  C   UNL     1      35.965  45.573  11.984  0.00  0.00    +0.038 A 
ATOM     11  C   UNL     1      36.110  46.920  12.406  0.00  0.00    +0.047 A 
ATOM     12  C   UNL     1      36.976  47.270  13.522  0.00  0.00    +0.035 A 
ATOM     32  C   UNL     1      37.682  46.223  14.183  0.00  0.00    +0.024 A 
ATOM     33  C   UNL     1      37.545  44.849  13.769  0.00  0.00    +0.007 A 
ATOM     34  C   UNL     1      36.691  44.497  12.670  0.00  0.00    -0.029 A 
ATOM     35  C   UNL     1      36.578  43.007  12.273  0.00  0.00    +0.045 C 
ENDROOT
BRANCH  10   9
ATOM      4  C   UNL     1      34.941  45.585   7.295  0.00  0.00    +0.077 A 
ATOM      5  C   UNL     1      36.181  46.226   6.965  0.00  0.00    +0.048 A 
ATOM      6  C   UNL     1      37.052  46.542   8.032  0.00  0.00    +0.116 A 
ATOM      7  N   UNL     1      36.698  46.236   9.328  0.00  0.00    -0.223 NA
ATOM      8  C   UNL     1      35.494  45.619   9.612  0.00  0.00    +0.220 A 
ATOM      9  N   UNL     1      35.121  45.294  10.907  0.00  0.00    -0.283 N 
ATOM     36  H   UNL     1      34.221  44.846  11.076  0.00  0.00    +0.155 HD
ATOM     37  N   UNL     1      34.644  45.308   8.611  0.00  0.00    -0.214 NA
BRANCH   4   3
ATOM      1  C   UNL     1      33.062  45.025   3.910  0.00  0.00    +0.020 A 
ATOM      2  C   UNL     1      34.080  45.432   4.851  0.00  0.00    +0.013 A 
ATOM      3  C   UNL     1      33.918  45.185   6.278  0.00  0.00    +0.019 A 
ATOM     38  C   UNL     1      32.704  44.518   6.724  0.00  0.00    +0.120 A 
ATOM     39  N   UNL     1      31.740  44.139   5.795  0.00  0.00    -0.263 NA
ATOM     40  C   UNL     1      31.884  44.373   4.420  0.00  0.00    +0.111 A 
ENDBRANCH   4   3
ENDBRANCH  10   9
BRANCH  12  13
ATOM     13  N   UNL     1      37.157  48.618  14.000  0.00  0.00    -0.281 N 
ATOM     14  C   UNL     1      36.968  49.098  15.285  0.00  0.00    +0.248 C 
ATOM     30  O   UNL     1      36.407  48.481  16.178  0.00  0.00    -0.270 OA
ATOM     31  H   UNL     1      37.460  49.302  13.306  0.00  0.00    +0.155 HD
BRANCH  14  15
ATOM     15  C   UNL     1      37.462  50.467  15.625  0.00  0.00    +0.037 A 
ATOM     16  C   UNL     1      36.581  51.462  16.241  0.00  0.00    +0.013 A 
ATOM     17  C   UNL     1      37.078  52.781  16.543  0.00  0.00    +0.005 A 
ATOM     18  C   UNL     1      38.465  53.113  16.228  0.00  0.00    -0.033 A 
ATOM     28  C   UNL     1      39.319  52.105  15.621  0.00  0.00    +0.005 A 
ATOM     29  C   UNL     1      38.835  50.812  15.324  0.00  0.00    +0.013 A 
BRANCH  18  19
ATOM     19  C   UNL     1      39.074  54.502  16.496  0.00  0.00    +0.119 C 
BRANCH  19  20
ATOM     20  N   UNL     1      38.410  55.353  17.527  0.00  0.00    -0.302 NA
ATOM     21  C   UNL     1      38.433  56.836  17.150  0.00  0.00    +0.066 C 
ATOM     22  C   UNL     1      37.714  57.710  18.229  0.00  0.00    -0.064 C 
ATOM     23  N   UNL     1      38.380  57.486  19.588  0.00  0.00    +0.379 N 
ATOM     24  C   UNL     1      37.744  58.349  20.594  0.00  0.00    -0.096 C 
ATOM     25  H   UNL     1      39.446  57.800  19.498  0.00  0.00    -0.082 HD
ATOM     26  C   UNL     1      38.364  56.013  19.970  0.00  0.00    -0.064 C 
ATOM     27  C   UNL     1      39.055  55.151  18.877  0.00  0.00    +0.066 C 
ENDBRANCH  19  20
ENDBRANCH  18  19
ENDBRANCH  14  15
ENDBRANCH  12  13
TORSDOF 6
ENDMDL
MODEL 3
REMARK VINA RESULT:      -7.5      9.758     15.916
REMARK  Name = C:\Users\Docking\Desktop\test protocol\1iep_ligandH.pdb
REMARK  8 active torsions:
REMARK  status: ('A' for Active; 'I' for Inactive)
REMARK    1  A    between atoms: _5  and  _11
REMARK    2  A    between atoms: _19  and  _21
REMARK    3  A    between atoms: _22  and  _66
REMARK    4  A    between atoms: _27  and  _30
REMARK    5  A    between atoms: _32  and  _33
REMARK    6  A    between atoms: _38  and  _43
REMARK    7  A    between atoms: _43  and  _46
REMARK    8  A    between atoms: _53  and  _55
REMARK                            x       y       z     vdW  Elec       q    Type
REMARK                         _______ _______ _______ _____ _____    ______ ____
ROOT
ATOM     10  C   UNL     1      32.053  43.381   1.721  0.00  0.00    +0.038 A 
ATOM     11  C   UNL     1      31.213  43.803   2.783  0.00  0.00    +0.047 A 
ATOM     12  C   UNL     1      31.561  43.536   4.170  0.00  0.00    +0.035 A 
ATOM     32  C   UNL     1      32.774  42.838   4.439  0.00  0.00    +0.024 A 
ATOM     33  C   UNL     1      33.639  42.400   3.372  0.00  0.00    +0.007 A 
ATOM     34  C   UNL     1      33.300  42.659   2.002  0.00  0.00    -0.029 A 
ATOM     35  C   UNL     1      34.261  42.161   0.898  0.00  0.00    +0.045 C 
ENDROOT
BRANCH  10   9
ATOM      4  C   UNL     1      29.705  42.314  -2.327  0.00  0.00    +0.077 A 
ATOM      5  C   UNL     1      29.223  41.074  -1.791  0.00  0.00    +0.048 A 
ATOM      6  C   UNL     1      29.609  40.744  -0.472  0.00  0.00    +0.116 A 
ATOM      7  N   UNL     1      30.415  41.599   0.248  0.00  0.00    -0.223 NA
ATOM      8  C   UNL     1      30.864  42.786  -0.300  0.00  0.00    +0.220 A 
ATOM      9  N   UNL     1      31.669  43.665   0.408  0.00  0.00    -0.283 N 
ATOM     36  H   UNL     1      31.985  44.527  -0.034  0.00  0.00    +0.155 HD
ATOM     37  N   UNL     1      30.511  43.123  -1.558  0.00  0.00    -0.214 NA
BRANCH   4   3
ATOM      1  C   UNL     1      28.089  44.248  -5.319  0.00  0.00    +0.020 A 
ATOM      2  C   UNL     1      28.362  43.809  -3.969  0.00  0.00    +0.013 A 
ATOM      3  C   UNL     1      29.382  42.803  -3.705  0.00  0.00    +0.019 A 
ATOM     38  C   UNL     1      30.116  42.257  -4.837  0.00  0.00    +0.120 A 
ATOM     39  N   UNL     1      29.831  42.697  -6.125  0.00  0.00    -0.263 NA
ATOM     40  C   UNL     1      28.849  43.663  -6.392  0.00  0.00    +0.111 A 
ENDBRANCH   4   3
ENDBRANCH  10   9
BRANCH  12  13
ATOM     13  N   UNL     1      30.744  43.933   5.290  0.00  0.00    -0.281 N 
ATOM     14  C   UNL     1      31.004  44.922   6.225  0.00  0.00    +0.248 C 
ATOM     30  O   UNL     1      32.085  45.473   6.366  0.00  0.00    -0.270 OA
ATOM     31  H   UNL     1      29.868  43.425   5.407  0.00  0.00    +0.155 HD
BRANCH  14  15
ATOM     15  C   UNL     1      29.907  45.349   7.147  0.00  0.00    +0.037 A 
ATOM     16  C   UNL     1      29.457  46.743   7.197  0.00  0.00    +0.013 A 
ATOM     17  C   UNL     1      28.409  47.132   8.108  0.00  0.00    +0.005 A 
ATOM     18  C   UNL     1      27.803  46.124   8.975  0.00  0.00    -0.033 A 
ATOM     28  C   UNL     1      28.265  44.748   8.900  0.00  0.00    +0.005 A 
ATOM     29  C   UNL     1      29.293  44.363   8.010  0.00  0.00    +0.013 A 
BRANCH  18  19
ATOM     19  C   UNL     1      26.694  46.453   9.991  0.00  0.00    +0.119 C 
BRANCH  19  20
ATOM     20  N   UNL     1      25.327  45.923   9.708  0.00  0.00    -0.302 NA
ATOM     21  C   UNL     1      24.914  46.149   8.250  0.00  0.00    +0.066 C 
ATOM     22  C   UNL     1      23.491  45.569   7.966  0.00  0.00    -0.064 C 
ATOM     23  N   UNL     1      22.482  46.209   8.920  0.00  0.00    +0.379 N 
ATOM     24  C   UNL     1      21.133  45.708   8.616  0.00  0.00    -0.096 C 
ATOM     25  H   UNL     1      22.486  47.307   8.729  0.00  0.00    -0.082 HD
ATOM     26  C   UNL     1      22.886  45.991  10.371  0.00  0.00    -0.064 C 
ATOM     27  C   UNL     1      24.314  46.545  10.636  0.00  0.00    +0.066 C 
ENDBRANCH  19  20
ENDBRANCH  18  19
ENDBRANCH  14  15
ENDBRANCH  12  13
TORSDOF 6
ENDMDL
MODEL 4
REMARK VINA RESULT:      -7.2      8.065     11.624
REMARK  Name = C:\Users\Docking\Desktop\test protocol\1iep_ligandH.pdb
REMARK  8 active torsions:
REMARK  status: ('A' for Active; 'I' for Inactive)
REMARK    1  A    between atoms: _5  and  _11
REMARK    2  A    between atoms: _19  and  _21
REMARK    3  A    between atoms: _22  and  _66
REMARK    4  A    between atoms: _27  and  _30
REMARK    5  A    between atoms: _32  and  _33
REMARK    6  A    between atoms: _38  and  _43
REMARK    7  A    between atoms: _43  and  _46
REMARK    8  A    between atoms: _53  and  _55
REMARK                            x       y       z     vdW  Elec       q    Type
REMARK                         _______ _______ _______ _____ _____    ______ ____
ROOT
ATOM     10  C   UNL     1      32.033  44.474   6.117  0.00  0.00    +0.038 A 
ATOM     11  C   UNL     1      31.681  44.094   4.796  0.00  0.00    +0.047 A 
ATOM     12  C   UNL     1      32.519  44.449   3.662  0.00  0.00    +0.035 A 
ATOM     32  C   UNL     1      33.712  45.190   3.909  0.00  0.00    +0.024 A 
ATOM     33  C   UNL     1      34.084  45.586   5.244  0.00  0.00    +0.007 A 
ATOM     34  C   UNL     1      33.260  45.241   6.367  0.00  0.00    -0.029 A 
ATOM     35  C   UNL     1      33.705  45.697   7.776  0.00  0.00    +0.045 C 
ENDROOT
BRANCH  10   9
ATOM      4  C   UNL     1      28.203  45.186   8.920  0.00  0.00    +0.077 A 
ATOM      5  C   UNL     1      27.865  46.408   8.249  0.00  0.00    +0.048 A 
ATOM      6  C   UNL     1      28.707  46.823   7.192  0.00  0.00    +0.116 A 
ATOM      7  N   UNL     1      29.802  46.063   6.841  0.00  0.00    -0.223 NA
ATOM      8  C   UNL     1      30.100  44.890   7.510  0.00  0.00    +0.220 A 
ATOM      9  N   UNL     1      31.191  44.107   7.169  0.00  0.00    -0.283 N 
ATOM     36  H   UNL     1      31.382  43.252   7.691  0.00  0.00    +0.155 HD
ATOM     37  N   UNL     1      29.312  44.474   8.524  0.00  0.00    -0.214 NA
BRANCH   4   3
ATOM      1  C   UNL     1      26.529  42.684  11.418  0.00  0.00    +0.020 A 
ATOM      2  C   UNL     1      27.309  43.184  10.309  0.00  0.00    +0.013 A 
ATOM      3  C   UNL     1      27.409  44.615  10.053  0.00  0.00    +0.019 A 
ATOM     38  C   UNL     1      26.703  45.522  10.946  0.00  0.00    +0.120 A 
ATOM     39  N   UNL     1      25.958  45.012  12.005  0.00  0.00    -0.263 NA
ATOM     40  C   UNL     1      25.853  43.636  12.260  0.00  0.00    +0.111 A 
ENDBRANCH   4   3
ENDBRANCH  10   9
BRANCH  12  13
ATOM     13  N   UNL     1      32.209  44.098   2.298  0.00  0.00    -0.281 N 
ATOM     14  C   UNL     1      32.910  43.250   1.457  0.00  0.00    +0.248 C 
ATOM     30  O   UNL     1      34.035  42.829   1.681  0.00  0.00    -0.270 OA
ATOM     31  H   UNL     1      31.370  44.526   1.906  0.00  0.00    +0.155 HD
BRANCH  14  15
ATOM     15  C   UNL     1      32.275  42.819   0.174  0.00  0.00    +0.037 A 
ATOM     16  C   UNL     1      30.979  43.354  -0.250  0.00  0.00    +0.013 A 
ATOM     17  C   UNL     1      30.381  42.908  -1.483  0.00  0.00    +0.005 A 
ATOM     18  C   UNL     1      31.081  41.922  -2.303  0.00  0.00    -0.033 A 
ATOM     28  C   UNL     1      32.368  41.411  -1.861  0.00  0.00    +0.005 A 
ATOM     29  C   UNL     1      32.957  41.845  -0.652  0.00  0.00    +0.013 A 
BRANCH  18  19
ATOM     19  C   UNL     1      30.508  41.374  -3.623  0.00  0.00    +0.119 C 
BRANCH  19  20
ATOM     20  N   UNL     1      29.436  42.173  -4.288  0.00  0.00    -0.302 NA
ATOM     21  C   UNL     1      28.223  41.314  -4.656  0.00  0.00    +0.066 C 
ATOM     22  C   UNL     1      27.102  42.171  -5.330  0.00  0.00    -0.064 C 
ATOM     23  N   UNL     1      27.670  42.866  -6.569  0.00  0.00    +0.379 N 
ATOM     24  C   UNL     1      26.604  43.626  -7.237  0.00  0.00    -0.096 C 
ATOM     25  H   UNL     1      28.013  42.073  -7.273  0.00  0.00    -0.082 HD
ATOM     26  C   UNL     1      28.878  43.720  -6.211  0.00  0.00    -0.064 C 
ATOM     27  C   UNL     1      29.974  42.865  -5.516  0.00  0.00    +0.066 C 
ENDBRANCH  19  20
ENDBRANCH  18  19
ENDBRANCH  14  15
ENDBRANCH  12  13
TORSDOF 6
ENDMDL
MODEL 5
REMARK VINA RESULT:      -7.1      9.996     13.284
REMARK  Name = C:\Users\Docking\Desktop\test protocol\1iep_ligandH.pdb
REMARK  8 active torsions:
REMARK  status: ('A' for Active; 'I' for Inactive)
REMARK    1  A    between atoms: _5  and  _11
REMARK    2  A    between atoms: _19  and  _21
REMARK    3  A    between atoms: _22  and  _66
REMARK    4  A    between atoms: _27  and  _30
REMARK    5  A    between atoms: _32  and  _33
REMARK    6  A    between atoms: _38  and  _43
REMARK    7  A    between atoms: _43  and  _46
REMARK    8  A    between atoms: _53  and  _55
REMARK                            x       y       z     vdW  Elec       q    Type
REMARK                         _______ _______ _______ _____ _____    ______ ____
ROOT
ATOM     10  C   UNL     1      26.625  45.699   9.135  0.00  0.00    +0.038 A 
ATOM     11  C   UNL     1      27.115  45.314   7.861  0.00  0.00    +0.047 A 
ATOM     12  C   UNL     1      28.139  46.093   7.182  0.00  0.00    +0.035 A 
ATOM     32  C   UNL     1      28.644  47.258   7.831  0.00  0.00    +0.024 A 
ATOM     33  C   UNL     1      28.156  47.664   9.125  0.00  0.00    +0.007 A 
ATOM     34  C   UNL     1      27.145  46.901   9.799  0.00  0.00    -0.029 A 
ATOM     35  C   UNL     1      26.655  47.387  11.183  0.00  0.00    +0.045 C 
ENDROOT
BRANCH  10   9
ATOM      4  C   UNL     1      22.042  44.487   9.883  0.00  0.00    +0.077 A 
ATOM      5  C   UNL     1      21.564  45.522   9.012  0.00  0.00    +0.048 A 
ATOM      6  C   UNL     1      22.530  46.349   8.397  0.00  0.00    +0.116 A 
ATOM      7  N   UNL     1      23.872  46.147   8.641  0.00  0.00    -0.223 NA
ATOM      8  C   UNL     1      24.298  45.141   9.488  0.00  0.00    +0.220 A 
ATOM      9  N   UNL     1      25.642  44.914   9.742  0.00  0.00    -0.283 N 
ATOM     36  H   UNL     1      25.916  44.166  10.379  0.00  0.00    +0.155 HD
ATOM     37  N   UNL     1      23.395  44.338  10.089  0.00  0.00    -0.214 NA
BRANCH   4   3
ATOM      1  C   UNL     1      19.039  42.154  10.800  0.00  0.00    +0.020 A 
ATOM      2  C   UNL     1      19.868  43.080  10.064  0.00  0.00    +0.013 A 
ATOM      3  C   UNL     1      21.145  43.529  10.604  0.00  0.00    +0.019 A 
ATOM     38  C   UNL     1      21.557  43.017  11.902  0.00  0.00    +0.120 A 
ATOM     39  N   UNL     1      20.738  42.128  12.589  0.00  0.00    -0.263 NA
ATOM     40  C   UNL     1      19.506  41.690  12.080  0.00  0.00    +0.111 A 
ENDBRANCH   4   3
ENDBRANCH  10   9
BRANCH  12  13
ATOM     13  N   UNL     1      28.669  45.756   5.884  0.00  0.00    -0.281 N 
ATOM     14  C   UNL     1      29.830  45.058   5.593  0.00  0.00    +0.248 C 
ATOM     30  O   UNL     1      30.704  44.800   6.408  0.00  0.00    -0.270 OA
ATOM     31  H   UNL     1      28.122  46.070   5.082  0.00  0.00    +0.155 HD
BRANCH  14  15
ATOM     15  C   UNL     1      30.059  44.590   4.192  0.00  0.00    +0.037 A 
ATOM     16  C   UNL     1      30.946  43.461   3.904  0.00  0.00    +0.013 A 
ATOM     17  C   UNL     1      31.164  43.041   2.542  0.00  0.00    +0.005 A 
ATOM     18  C   UNL     1      30.490  43.751   1.458  0.00  0.00    -0.033 A 
ATOM     28  C   UNL     1      29.611  44.865   1.772  0.00  0.00    +0.005 A 
ATOM     29  C   UNL     1      29.397  45.280   3.106  0.00  0.00    +0.013 A 
BRANCH  18  19
ATOM     19  C   UNL     1      30.680  43.385  -0.026  0.00  0.00    +0.119 C 
BRANCH  19  20
ATOM     20  N   UNL     1      31.885  42.579  -0.383  0.00  0.00    -0.302 NA
ATOM     21  C   UNL     1      33.161  43.426  -0.395  0.00  0.00    +0.066 C 
ATOM     22  C   UNL     1      34.415  42.562  -0.748  0.00  0.00    -0.064 C 
ATOM     23  N   UNL     1      34.200  41.887  -2.104  0.00  0.00    +0.379 N 
ATOM     24  C   UNL     1      35.402  41.120  -2.465  0.00  0.00    -0.096 C 
ATOM     25  H   UNL     1      34.070  42.691  -2.865  0.00  0.00    -0.082 HD
ATOM     26  C   UNL     1      32.933  41.045  -2.102  0.00  0.00    -0.064 C 
ATOM     27  C   UNL     1      31.697  41.907  -1.721  0.00  0.00    +0.066 C 
ENDBRANCH  19  20
ENDBRANCH  18  19
ENDBRANCH  14  15
ENDBRANCH  12  13
TORSDOF 6
ENDMDL
