MODEL 1
REMARK VINA RESULT:      -8.0      0.000      0.000
REMARK  Name = C:\Users\Docking\Desktop\test protocol\1iep_ligandH.pdb
REMARK  8 active torsions:
REMARK  status: ('A' for Active; 'I' for Inactive)
REMARK    1  A    between atoms: _5  and  _11
REMARK    2  A    between atoms: _19  and  _21
REMARK    3  A    between atoms: _22  and  _66
REMARK    4  A    between atoms: _27  and  _30
REMARK    5  A    between atoms: _32  and  _33
REMARK    6  A    between atoms: _38  and  _43
REMARK    7  A    between atoms: _43  and  _46
REMARK    8  A    between atoms: _53  and  _55
REMARK                            x       y       z     vdW  Elec       q    Type
REMARK                         _______ _______ _______ _____ _____    ______ ____
ROOT
ATOM     10  C   UNL     1      79.981  48.347  -2.323  0.00  0.00    +0.038 A 
ATOM     11  C   UNL     1      80.792  47.679  -1.371  0.00  0.00    +0.047 A 
ATOM     12  C   UNL     1      81.607  46.534  -1.747  0.00  0.00    +0.035 A 
ATOM     32  C   UNL     1      81.574  46.099  -3.104  0.00  0.00    +0.024 A 
ATOM     33  C   UNL     1      80.755  46.766  -4.085  0.00  0.00    +0.007 A 
ATOM     34  C   UNL     1      79.947  47.893  -3.719  0.00  0.00    -0.029 A 
ATOM     35  C   UNL     1      79.082  48.566  -4.811  0.00  0.00    +0.045 C 
ENDROOT
BRANCH  10   9
ATOM      4  C   UNL     1      79.464  52.492   0.042  0.00  0.00    +0.077 A 
ATOM      5  C   UNL     1      80.820  52.463   0.509  0.00  0.00    +0.048 A 
ATOM      6  C   UNL     1      81.615  51.360   0.124  0.00  0.00    +0.116 A 
ATOM      7  N   UNL     1      81.084  50.367  -0.669  0.00  0.00    -0.223 NA
ATOM      8  C   UNL     1      79.772  50.424  -1.101  0.00  0.00    +0.220 A 
ATOM      9  N   UNL     1      79.219  49.440  -1.907  0.00  0.00    -0.283 N 
ATOM     36  H   UNL     1      78.244  49.516  -2.198  0.00  0.00    +0.155 HD
ATOM     37  N   UNL     1      78.991  51.466  -0.747  0.00  0.00    -0.214 NA
BRANCH   4   3
ATOM      1  C   UNL     1      77.937  56.006   0.829  0.00  0.00    +0.020 A 
ATOM      2  C   UNL     1      78.909  54.982   0.521  0.00  0.00    +0.013 A 
ATOM      3  C   UNL     1      78.500  53.592   0.360  0.00  0.00    +0.019 A 
ATOM     38  C   UNL     1      77.089  53.270   0.517  0.00  0.00    +0.120 A 
ATOM     39  N   UNL     1      76.177  54.277   0.815  0.00  0.00    -0.263 NA
ATOM     40  C   UNL     1      76.559  55.618   0.974  0.00  0.00    +0.111 A 
ENDBRANCH   4   3
ENDBRANCH  10   9
BRANCH  12  13
ATOM     13  N   UNL     1      82.444  45.811  -0.822  0.00  0.00    -0.281 N 
ATOM     14  C   UNL     1      82.147  45.428   0.475  0.00  0.00    +0.248 C 
ATOM     30  O   UNL     1      81.189  45.838   1.114  0.00  0.00    -0.270 OA
ATOM     31  H   UNL     1      83.369  45.550  -1.166  0.00  0.00    +0.155 HD
BRANCH  14  15
ATOM     15  C   UNL     1      83.051  44.461   1.168  0.00  0.00    +0.037 A 
ATOM     16  C   UNL     1      84.404  44.196   0.672  0.00  0.00    +0.013 A 
ATOM     17  C   UNL     1      85.250  43.245   1.349  0.00  0.00    +0.005 A 
ATOM     18  C   UNL     1      84.744  42.553   2.533  0.00  0.00    -0.033 A 
ATOM     28  C   UNL     1      83.401  42.839   3.007  0.00  0.00    +0.005 A 
ATOM     29  C   UNL     1      82.568  43.770   2.345  0.00  0.00    +0.013 A 
BRANCH  18  19
ATOM     19  C   UNL     1      85.570  41.508   3.306  0.00  0.00    +0.119 C 
BRANCH  19  20
ATOM     20  N   UNL     1      84.881  40.239   3.687  0.00  0.00    -0.302 NA
ATOM     21  C   UNL     1      85.237  39.797   5.109  0.00  0.00    +0.066 C 
ATOM     22  C   UNL     1      84.490  38.480   5.500  0.00  0.00    -0.064 C 
ATOM     23  N   UNL     1      84.833  37.383   4.490  0.00  0.00    +0.379 N 
ATOM     24  C   UNL     1      84.179  36.128   4.887  0.00  0.00    -0.096 C 
ATOM     25  H   UNL     1      85.935  37.218   4.531  0.00  0.00    -0.082 HD
ATOM     26  C   UNL     1      84.484  37.816   3.073  0.00  0.00    -0.064 C 
ATOM     27  C   UNL     1      85.209  39.141   2.705  0.00  0.00    +0.066 C 
ENDBRANCH  19  20
ENDBRANCH  18  19
ENDBRANCH  14  15
ENDBRANCH  12  13
TORSDOF 6
ENDMDL
MODEL 2
REMARK VINA RESULT:      -7.9      7.427     17.735
REMARK  Name = C:\Users\Docking\Desktop\test protocol\1iep_ligandH.pdb
REMARK  8 active torsions:
REMARK  status: ('A' for Active; 'I' for Inactive)
REMARK    1  A    between atoms: _5  and  _11
REMARK    2  A    between atoms: _19  and  _21
REMARK    3  A    between atoms: _22  and  _66
REMARK    4  A    between atoms: _27  and  _30
REMARK    5  A    between atoms: _32  and  _33
REMARK    6  A    between atoms: _38  and  _43
REMARK    7  A    between atoms: _43  and  _46
REMARK    8  A    between atoms: _53  and  _55
REMARK                            x       y       z     vdW  Elec       q    Type
REMARK                         _______ _______ _______ _____ _____    ______ ____
ROOT
ATOM     10  C   UNL     1      75.426  55.938   1.078  0.00  0.00    +0.038 A 
ATOM     11  C   UNL     1      76.145  57.153   1.212  0.00  0.00    +0.047 A 
ATOM     12  C   UNL     1      75.493  58.365   1.683  0.00  0.00    +0.035 A 
ATOM     32  C   UNL     1      74.108  58.303   2.011  0.00  0.00    +0.024 A 
ATOM     33  C   UNL     1      73.361  57.076   1.880  0.00  0.00    +0.007 A 
ATOM     34  C   UNL     1      73.998  55.878   1.413  0.00  0.00    -0.029 A 
ATOM     35  C   UNL     1      73.147  54.593   1.286  0.00  0.00    +0.045 C 
ENDROOT
BRANCH  10   9
ATOM      4  C   UNL     1      79.452  53.464   0.231  0.00  0.00    +0.077 A 
ATOM      5  C   UNL     1      80.279  54.532   0.714  0.00  0.00    +0.048 A 
ATOM      6  C   UNL     1      79.630  55.703   1.165  0.00  0.00    +0.116 A 
ATOM      7  N   UNL     1      78.255  55.789   1.131  0.00  0.00    -0.223 NA
ATOM      8  C   UNL     1      77.487  54.742   0.657  0.00  0.00    +0.220 A 
ATOM      9  N   UNL     1      76.102  54.804   0.621  0.00  0.00    -0.283 N 
ATOM     36  H   UNL     1      75.571  54.013   0.257  0.00  0.00    +0.155 HD
ATOM     37  N   UNL     1      78.083  53.613   0.219  0.00  0.00    -0.214 NA
BRANCH   4   3
ATOM      1  C   UNL     1      79.878  50.122  -1.756  0.00  0.00    +0.020 A 
ATOM      2  C   UNL     1      79.316  51.372  -1.300  0.00  0.00    +0.013 A 
ATOM      3  C   UNL     1      79.989  52.162  -0.277  0.00  0.00    +0.019 A 
ATOM     38  C   UNL     1      81.239  51.655   0.269  0.00  0.00    +0.120 A 
ATOM     39  N   UNL     1      81.755  50.446  -0.188  0.00  0.00    -0.263 NA
ATOM     40  C   UNL     1      81.115  49.677  -1.171  0.00  0.00    +0.111 A 
ENDBRANCH   4   3
ENDBRANCH  10   9
BRANCH  12  13
ATOM     13  N   UNL     1      76.170  59.629   1.831  0.00  0.00    -0.281 N 
ATOM     14  C   UNL     1      76.411  60.586   0.858  0.00  0.00    +0.248 C 
ATOM     30  O   UNL     1      76.267  60.403  -0.341  0.00  0.00    -0.270 OA
ATOM     31  H   UNL     1      76.513  59.846   2.767  0.00  0.00    +0.155 HD
BRANCH  14  15
ATOM     15  C   UNL     1      76.895  61.936   1.278  0.00  0.00    +0.037 A 
ATOM     16  C   UNL     1      77.890  62.666   0.488  0.00  0.00    +0.013 A 
ATOM     17  C   UNL     1      78.352  63.960   0.924  0.00  0.00    +0.005 A 
ATOM     18  C   UNL     1      77.818  64.533   2.157  0.00  0.00    -0.033 A 
ATOM     28  C   UNL     1      76.828  63.790   2.919  0.00  0.00    +0.005 A 
ATOM     29  C   UNL     1      76.373  62.521   2.495  0.00  0.00    +0.013 A 
BRANCH  18  19
ATOM     19  C   UNL     1      78.269  65.898   2.709  0.00  0.00    +0.119 C 
BRANCH  19  20
ATOM     20  N   UNL     1      77.822  66.260   4.087  0.00  0.00    -0.302 NA
ATOM     21  C   UNL     1      77.079  67.598   4.117  0.00  0.00    +0.066 C 
ATOM     22  C   UNL     1      76.598  67.951   5.562  0.00  0.00    -0.064 C 
ATOM     23  N   UNL     1      77.803  67.980   6.504  0.00  0.00    +0.379 N 
ATOM     24  C   UNL     1      77.363  68.368   7.852  0.00  0.00    -0.096 C 
ATOM     25  H   UNL     1      78.501  68.768   6.136  0.00  0.00    -0.082 HD
ATOM     26  C   UNL     1      78.550  66.654   6.479  0.00  0.00    -0.064 C 
ATOM     27  C   UNL     1      78.997  66.299   5.033  0.00  0.00    +0.066 C 
ENDBRANCH  19  20
ENDBRANCH  18  19
ENDBRANCH  14  15
ENDBRANCH  12  13
TORSDOF 6
ENDMDL
MODEL 3
REMARK VINA RESULT:      -7.8     24.163     27.758
REMARK  Name = C:\Users\Docking\Desktop\test protocol\1iep_ligandH.pdb
REMARK  8 active torsions:
REMARK  status: ('A' for Active; 'I' for Inactive)
REMARK    1  A    between atoms: _5  and  _11
REMARK    2  A    between atoms: _19  and  _21
REMARK    3  A    between atoms: _22  and  _66
REMARK    4  A    between atoms: _27  and  _30
REMARK    5  A    between atoms: _32  and  _33
REMARK    6  A    between atoms: _38  and  _43
REMARK    7  A    between atoms: _43  and  _46
REMARK    8  A    between atoms: _53  and  _55
REMARK                            x       y       z     vdW  Elec       q    Type
REMARK                         _______ _______ _______ _____ _____    ______ ____
ROOT
ATOM     10  C   UNL     1     105.628  50.997  14.486  0.00  0.00    +0.038 A 
ATOM     11  C   UNL     1     104.295  50.789  14.923  0.00  0.00    +0.047 A 
ATOM     12  C   UNL     1     103.556  51.837  15.610  0.00  0.00    +0.035 A 
ATOM     32  C   UNL     1     104.205  53.087  15.831  0.00  0.00    +0.024 A 
ATOM     33  C   UNL     1     105.559  53.315  15.394  0.00  0.00    +0.007 A 
ATOM     34  C   UNL     1     106.294  52.284  14.719  0.00  0.00    -0.029 A 
ATOM     35  C   UNL     1     107.746  52.583  14.279  0.00  0.00    +0.045 C 
ENDROOT
BRANCH  10   9
ATOM      4  C   UNL     1     106.530  48.338  10.593  0.00  0.00    +0.077 A 
ATOM      5  C   UNL     1     105.581  49.068   9.802  0.00  0.00    +0.048 A 
ATOM      6  C   UNL     1     104.876  50.115  10.437  0.00  0.00    +0.116 A 
ATOM      7  N   UNL     1     105.112  50.403  11.764  0.00  0.00    -0.223 NA
ATOM      8  C   UNL     1     106.033  49.679  12.498  0.00  0.00    +0.220 A 
ATOM      9  N   UNL     1     106.291  49.956  13.832  0.00  0.00    -0.283 N 
ATOM     36  H   UNL     1     106.972  49.394  14.341  0.00  0.00    +0.155 HD
ATOM     37  N   UNL     1     106.717  48.673  11.916  0.00  0.00    -0.214 NA
BRANCH   4   3
ATOM      1  C   UNL     1     107.954  45.514   8.292  0.00  0.00    +0.020 A 
ATOM      2  C   UNL     1     107.129  46.605   8.756  0.00  0.00    +0.013 A 
ATOM      3  C   UNL     1     107.355  47.206  10.064  0.00  0.00    +0.019 A 
ATOM     38  C   UNL     1     108.433  46.676  10.885  0.00  0.00    +0.120 A 
ATOM     39  N   UNL     1     109.211  45.624  10.412  0.00  0.00    -0.263 NA
ATOM     40  C   UNL     1     109.002  45.036   9.156  0.00  0.00    +0.111 A 
ENDBRANCH   4   3
ENDBRANCH  10   9
BRANCH  12  13
ATOM     13  N   UNL     1     102.203  51.681  16.084  0.00  0.00    -0.281 N 
ATOM     14  C   UNL     1     101.772  51.036  17.231  0.00  0.00    +0.248 C 
ATOM     30  O   UNL     1     102.472  50.307  17.919  0.00  0.00    -0.270 OA
ATOM     31  H   UNL     1     101.475  52.096  15.502  0.00  0.00    +0.155 HD
BRANCH  14  15
ATOM     15  C   UNL     1     100.355  51.216  17.672  0.00  0.00    +0.037 A 
ATOM     16  C   UNL     1      99.249  50.588  16.945  0.00  0.00    +0.013 A 
ATOM     17  C   UNL     1      97.890  50.791  17.381  0.00  0.00    +0.005 A 
ATOM     18  C   UNL     1      97.630  51.626  18.551  0.00  0.00    -0.033 A 
ATOM     28  C   UNL     1      98.747  52.233  19.256  0.00  0.00    +0.005 A 
ATOM     29  C   UNL     1     100.080  52.037  18.832  0.00  0.00    +0.013 A 
BRANCH  18  19
ATOM     19  C   UNL     1      96.211  51.914  19.075  0.00  0.00    +0.119 C 
BRANCH  19  20
ATOM     20  N   UNL     1      95.343  50.739  19.383  0.00  0.00    -0.302 NA
ATOM     21  C   UNL     1      93.998  51.158  19.982  0.00  0.00    +0.066 C 
ATOM     22  C   UNL     1      93.095  49.917  20.278  0.00  0.00    -0.064 C 
ATOM     23  N   UNL     1      93.833  48.965  21.220  0.00  0.00    +0.379 N 
ATOM     24  C   UNL     1      92.964  47.825  21.546  0.00  0.00    -0.096 C 
ATOM     25  H   UNL     1      94.037  49.517  22.167  0.00  0.00    -0.082 HD
ATOM     26  C   UNL     1      95.174  48.545  20.633  0.00  0.00    -0.064 C 
ATOM     27  C   UNL     1      96.052  49.787  20.316  0.00  0.00    +0.066 C 
ENDBRANCH  19  20
ENDBRANCH  18  19
ENDBRANCH  14  15
ENDBRANCH  12  13
TORSDOF 6
ENDMDL
MODEL 4
REMARK VINA RESULT:      -7.7     22.031     23.585
REMARK  Name = C:\Users\Docking\Desktop\test protocol\1iep_ligandH.pdb
REMARK  8 active torsions:
REMARK  status: ('A' for Active; 'I' for Inactive)
REMARK    1  A    between atoms: _5  and  _11
REMARK    2  A    between atoms: _19  and  _21
REMARK    3  A    between atoms: _22  and  _66
REMARK    4  A    between atoms: _27  and  _30
REMARK    5  A    between atoms: _32  and  _33
REMARK    6  A    between atoms: _38  and  _43
REMARK    7  A    between atoms: _43  and  _46
REMARK    8  A    between atoms: _53  and  _55
REMARK                            x       y       z     vdW  Elec       q    Type
REMARK                         _______ _______ _______ _____ _____    ______ ____
ROOT
ATOM     10  C   UNL     1      94.785  58.539  14.010  0.00  0.00    +0.038 A 
ATOM     11  C   UNL     1      94.849  57.521  14.996  0.00  0.00    +0.047 A 
ATOM     12  C   UNL     1      95.027  56.126  14.626  0.00  0.00    +0.035 A 
ATOM     32  C   UNL     1      95.140  55.802  13.242  0.00  0.00    +0.024 A 
ATOM     33  C   UNL     1      95.076  56.824  12.227  0.00  0.00    +0.007 A 
ATOM     34  C   UNL     1      94.898  58.202  12.586  0.00  0.00    -0.029 A 
ATOM     35  C   UNL     1      94.830  59.255  11.455  0.00  0.00    +0.045 C 
ENDROOT
BRANCH  10   9
ATOM      4  C   UNL     1      96.509  62.805  15.376  0.00  0.00    +0.077 A 
ATOM      5  C   UNL     1      97.867  62.351  15.289  0.00  0.00    +0.048 A 
ATOM      6  C   UNL     1      98.079  61.010  14.895  0.00  0.00    +0.116 A 
ATOM      7  N   UNL     1      97.005  60.194  14.613  0.00  0.00    -0.223 NA
ATOM      8  C   UNL     1      95.708  60.663  14.709  0.00  0.00    +0.220 A 
ATOM      9  N   UNL     1      94.613  59.863  14.422  0.00  0.00    -0.283 N 
ATOM     36  H   UNL     1      93.672  60.244  14.512  0.00  0.00    +0.155 HD
ATOM     37  N   UNL     1      95.479  61.939  15.084  0.00  0.00    -0.214 NA
BRANCH   4   3
ATOM      1  C   UNL     1      94.920  65.844  17.257  0.00  0.00    +0.020 A 
ATOM      2  C   UNL     1      95.262  64.483  16.915  0.00  0.00    +0.013 A 
ATOM      3  C   UNL     1      96.124  64.196  15.775  0.00  0.00    +0.019 A 
ATOM     38  C   UNL     1      96.628  65.317  14.997  0.00  0.00    +0.120 A 
ATOM     39  N   UNL     1      96.281  66.618  15.350  0.00  0.00    -0.263 NA
ATOM     40  C   UNL     1      95.451  66.906  16.444  0.00  0.00    +0.111 A 
ENDBRANCH   4   3
ENDBRANCH  10   9
BRANCH  12  13
ATOM     13  N   UNL     1      95.091  55.048  15.582  0.00  0.00    -0.281 N 
ATOM     14  C   UNL     1      95.948  54.917  16.662  0.00  0.00    +0.248 C 
ATOM     30  O   UNL     1      96.939  55.609  16.846  0.00  0.00    -0.270 OA
ATOM     31  H   UNL     1      94.423  54.289  15.446  0.00  0.00    +0.155 HD
BRANCH  14  15
ATOM     15  C   UNL     1      95.674  53.855  17.678  0.00  0.00    +0.037 A 
ATOM     16  C   UNL     1      96.310  52.538  17.590  0.00  0.00    +0.013 A 
ATOM     17  C   UNL     1      96.015  51.526  18.573  0.00  0.00    +0.005 A 
ATOM     18  C   UNL     1      95.079  51.828  19.654  0.00  0.00    -0.033 A 
ATOM     28  C   UNL     1      94.467  53.145  19.720  0.00  0.00    +0.005 A 
ATOM     29  C   UNL     1      94.753  54.139  18.757  0.00  0.00    +0.013 A 
BRANCH  18  19
ATOM     19  C   UNL     1      94.690  50.802  20.734  0.00  0.00    +0.119 C 
BRANCH  19  20
ATOM     20  N   UNL     1      94.118  49.503  20.269  0.00  0.00    -0.302 NA
ATOM     21  C   UNL     1      92.593  49.465  20.407  0.00  0.00    +0.066 C 
ATOM     22  C   UNL     1      92.010  48.107  19.895  0.00  0.00    -0.064 C 
ATOM     23  N   UNL     1      92.653  46.955  20.668  0.00  0.00    +0.379 N 
ATOM     24  C   UNL     1      92.065  45.681  20.229  0.00  0.00    -0.096 C 
ATOM     25  H   UNL     1      92.403  47.090  21.746  0.00  0.00    -0.082 HD
ATOM     26  C   UNL     1      94.169  46.988  20.539  0.00  0.00    -0.064 C 
ATOM     27  C   UNL     1      94.736  48.351  21.023  0.00  0.00    +0.066 C 
ENDBRANCH  19  20
ENDBRANCH  18  19
ENDBRANCH  14  15
ENDBRANCH  12  13
TORSDOF 6
ENDMDL
MODEL 5
REMARK VINA RESULT:      -7.7      3.717      7.527
REMARK  Name = C:\Users\Docking\Desktop\test protocol\1iep_ligandH.pdb
REMARK  8 active torsions:
REMARK  status: ('A' for Active; 'I' for Inactive)
REMARK    1  A    between atoms: _5  and  _11
REMARK    2  A    between atoms: _19  and  _21
REMARK    3  A    between atoms: _22  and  _66
REMARK    4  A    between atoms: _27  and  _30
REMARK    5  A    between atoms: _32  and  _33
REMARK    6  A    between atoms: _38  and  _43
REMARK    7  A    between atoms: _43  and  _46
REMARK    8  A    between atoms: _53  and  _55
REMARK                            x       y       z     vdW  Elec       q    Type
REMARK                         _______ _______ _______ _____ _____    ______ ____
ROOT
ATOM     10  C   UNL     1      77.619  53.936   0.847  0.00  0.00    +0.038 A 
ATOM     11  C   UNL     1      78.100  52.745   0.246  0.00  0.00    +0.047 A 
ATOM     12  C   UNL     1      79.363  52.723  -0.476  0.00  0.00    +0.035 A 
ATOM     32  C   UNL     1      80.112  53.932  -0.563  0.00  0.00    +0.024 A 
ATOM     33  C   UNL     1      79.639  55.152   0.042  0.00  0.00    +0.007 A 
ATOM     34  C   UNL     1      78.392  55.181   0.753  0.00  0.00    -0.029 A 
ATOM     35  C   UNL     1      77.930  56.519   1.375  0.00  0.00    +0.045 C 
ENDROOT
BRANCH  10   9
ATOM      4  C   UNL     1      72.823  53.778   0.934  0.00  0.00    +0.077 A 
ATOM      5  C   UNL     1      72.738  53.794  -0.498  0.00  0.00    +0.048 A 
ATOM      6  C   UNL     1      73.951  53.851  -1.220  0.00  0.00    +0.116 A 
ATOM      7  N   UNL     1      75.154  53.888  -0.549  0.00  0.00    -0.223 NA
ATOM      8  C   UNL     1      75.201  53.872   0.833  0.00  0.00    +0.220 A 
ATOM      9  N   UNL     1      76.400  53.901   1.528  0.00  0.00    -0.283 N 
ATOM     36  H   UNL     1      76.392  53.896   2.548  0.00  0.00    +0.155 HD
ATOM     37  N   UNL     1      74.056  53.820   1.545  0.00  0.00    -0.214 NA
BRANCH   4   3
ATOM      1  C   UNL     1      69.183  54.075   2.334  0.00  0.00    +0.020 A 
ATOM      2  C   UNL     1      70.303  54.157   1.424  0.00  0.00    +0.013 A 
ATOM      3  C   UNL     1      71.629  53.716   1.835  0.00  0.00    +0.019 A 
ATOM     38  C   UNL     1      71.791  53.193   3.184  0.00  0.00    +0.120 A 
ATOM     39  N   UNL     1      70.694  53.127   4.038  0.00  0.00    -0.263 NA
ATOM     40  C   UNL     1      69.413  53.551   3.654  0.00  0.00    +0.111 A 
ENDBRANCH   4   3
ENDBRANCH  10   9
BRANCH  12  13
ATOM     13  N   UNL     1      79.897  51.545  -1.114  0.00  0.00    -0.281 N 
ATOM     14  C   UNL     1      80.702  50.566  -0.556  0.00  0.00    +0.248 C 
ATOM     30  O   UNL     1      81.264  50.666   0.524  0.00  0.00    -0.270 OA
ATOM     31  H   UNL     1      79.652  51.419  -2.096  0.00  0.00    +0.155 HD
BRANCH  14  15
ATOM     15  C   UNL     1      80.928  49.298  -1.315  0.00  0.00    +0.037 A 
ATOM     16  C   UNL     1      79.935  48.795  -2.267  0.00  0.00    +0.013 A 
ATOM     17  C   UNL     1      80.170  47.561  -2.973  0.00  0.00    +0.005 A 
ATOM     18  C   UNL     1      81.406  46.821  -2.731  0.00  0.00    -0.033 A 
ATOM     28  C   UNL     1      82.377  47.346  -1.786  0.00  0.00    +0.005 A 
ATOM     29  C   UNL     1      82.150  48.555  -1.091  0.00  0.00    +0.013 A 
BRANCH  18  19
ATOM     19  C   UNL     1      81.731  45.485  -3.424  0.00  0.00    +0.119 C 
BRANCH  19  20
ATOM     20  N   UNL     1      82.785  44.630  -2.801  0.00  0.00    -0.302 NA
ATOM     21  C   UNL     1      83.643  43.919  -3.852  0.00  0.00    +0.066 C 
ATOM     22  C   UNL     1      84.755  43.047  -3.183  0.00  0.00    -0.064 C 
ATOM     23  N   UNL     1      84.105  42.034  -2.238  0.00  0.00    +0.379 N 
ATOM     24  C   UNL     1      85.144  41.174  -1.652  0.00  0.00    -0.096 C 
ATOM     25  H   UNL     1      83.434  41.386  -2.848  0.00  0.00    -0.082 HD
ATOM     26  C   UNL     1      83.248  42.732  -1.192  0.00  0.00    -0.064 C 
ATOM     27  C   UNL     1      82.165  43.620  -1.868  0.00  0.00    +0.066 C 
ENDBRANCH  19  20
ENDBRANCH  18  19
ENDBRANCH  14  15
ENDBRANCH  12  13
TORSDOF 6
ENDMDL
