MODEL 1
REMARK VINA RESULT:      -8.9      0.000      0.000
REMARK  Name = C:\Users\Docking\Desktop\test protocol\1iep_ligandH.pdb
REMARK  8 active torsions:
REMARK  status: ('A' for Active; 'I' for Inactive)
REMARK    1  A    between atoms: _5  and  _11
REMARK    2  A    between atoms: _19  and  _21
REMARK    3  A    between atoms: _22  and  _66
REMARK    4  A    between atoms: _27  and  _30
REMARK    5  A    between atoms: _32  and  _33
REMARK    6  A    between atoms: _38  and  _43
REMARK    7  A    between atoms: _43  and  _46
REMARK    8  A    between atoms: _53  and  _55
REMARK                            x       y       z     vdW  Elec       q    Type
REMARK                         _______ _______ _______ _____ _____    ______ ____
ROOT
ATOM     10  C   UNL     1      -0.547   1.741  20.438  0.00  0.00    +0.038 A 
ATOM     11  C   UNL     1      -0.646   0.880  19.315  0.00  0.00    +0.047 A 
ATOM     12  C   UNL     1      -0.589  -0.565  19.467  0.00  0.00    +0.035 A 
ATOM     32  C   UNL     1      -0.435  -1.101  20.779  0.00  0.00    +0.024 A 
ATOM     33  C   UNL     1      -0.333  -0.241  21.932  0.00  0.00    +0.007 A 
ATOM     34  C   UNL     1      -0.385   1.186  21.788  0.00  0.00    -0.029 A 
ATOM     35  C   UNL     1      -0.263   2.059  23.058  0.00  0.00    +0.045 C 
ENDROOT
BRANCH  10   9
ATOM      4  C   UNL     1      -2.964   5.880  20.179  0.00  0.00    +0.077 A 
ATOM      5  C   UNL     1      -4.216   5.233  20.446  0.00  0.00    +0.048 A 
ATOM      6  C   UNL     1      -4.197   3.833  20.637  0.00  0.00    +0.116 A 
ATOM      7  N   UNL     1      -3.007   3.142  20.564  0.00  0.00    -0.223 NA
ATOM      8  C   UNL     1      -1.817   3.796  20.304  0.00  0.00    +0.220 A 
ATOM      9  N   UNL     1      -0.607   3.121  20.234  0.00  0.00    -0.283 N 
ATOM     36  H   UNL     1       0.248   3.638  20.033  0.00  0.00    +0.155 HD
ATOM     37  N   UNL     1      -1.809   5.132  20.116  0.00  0.00    -0.214 NA
BRANCH   4   3
ATOM      1  C   UNL     1      -1.456   9.422  19.487  0.00  0.00    +0.020 A 
ATOM      2  C   UNL     1      -1.539   7.995  19.694  0.00  0.00    +0.013 A 
ATOM      3  C   UNL     1      -2.821   7.353  19.958  0.00  0.00    +0.019 A 
ATOM     38  C   UNL     1      -4.009   8.192  20.006  0.00  0.00    +0.120 A 
ATOM     39  N   UNL     1      -3.899   9.564  19.804  0.00  0.00    -0.263 NA
ATOM     40  C   UNL     1      -2.670  10.192  19.551  0.00  0.00    +0.111 A 
ENDBRANCH   4   3
ENDBRANCH  10   9
BRANCH  12  13
ATOM     13  N   UNL     1      -0.676  -1.488  18.363  0.00  0.00    -0.281 N 
ATOM     14  C   UNL     1      -1.709  -1.631  17.451  0.00  0.00    +0.248 C 
ATOM     30  O   UNL     1      -2.815  -1.129  17.576  0.00  0.00    -0.270 OA
ATOM     31  H   UNL     1       0.122  -2.112  18.238  0.00  0.00    +0.155 HD
BRANCH  14  15
ATOM     15  C   UNL     1      -1.484  -2.464  16.230  0.00  0.00    +0.037 A 
ATOM     16  C   UNL     1      -0.147  -2.624  15.654  0.00  0.00    +0.013 A 
ATOM     17  C   UNL     1       0.039  -3.419  14.467  0.00  0.00    +0.005 A 
ATOM     18  C   UNL     1      -1.117  -4.063  13.848  0.00  0.00    -0.033 A 
ATOM     28  C   UNL     1      -2.432  -3.892  14.443  0.00  0.00    +0.005 A 
ATOM     29  C   UNL     1      -2.618  -3.113  15.607  0.00  0.00    +0.013 A 
BRANCH  18  19
ATOM     19  C   UNL     1      -1.015  -4.912  12.567  0.00  0.00    +0.119 C 
BRANCH  19  20
ATOM     20  N   UNL     1      -0.592  -4.215  11.316  0.00  0.00    -0.302 NA
ATOM     21  C   UNL     1      -1.450  -2.979  11.029  0.00  0.00    +0.066 C 
ATOM     22  C   UNL     1      -0.979  -2.249   9.729  0.00  0.00    -0.064 C 
ATOM     23  N   UNL     1      -1.027  -3.226   8.553  0.00  0.00    +0.379 N 
ATOM     24  C   UNL     1      -0.641  -2.527   7.319  0.00  0.00    -0.096 C 
ATOM     25  H   UNL     1      -2.084  -3.562   8.436  0.00  0.00    -0.082 HD
ATOM     26  C   UNL     1      -0.180  -4.460   8.831  0.00  0.00    -0.064 C 
ATOM     27  C   UNL     1      -0.637  -5.161  10.141  0.00  0.00    +0.066 C 
ENDBRANCH  19  20
ENDBRANCH  18  19
ENDBRANCH  14  15
ENDBRANCH  12  13
TORSDOF 6
ENDMDL
MODEL 2
REMARK VINA RESULT:      -8.6      2.807      5.353
REMARK  Name = C:\Users\Docking\Desktop\test protocol\1iep_ligandH.pdb
REMARK  8 active torsions:
REMARK  status: ('A' for Active; 'I' for Inactive)
REMARK    1  A    between atoms: _5  and  _11
REMARK    2  A    between atoms: _19  and  _21
REMARK    3  A    between atoms: _22  and  _66
REMARK    4  A    between atoms: _27  and  _30
REMARK    5  A    between atoms: _32  and  _33
REMARK    6  A    between atoms: _38  and  _43
REMARK    7  A    between atoms: _43  and  _46
REMARK    8  A    between atoms: _53  and  _55
REMARK                            x       y       z     vdW  Elec       q    Type
REMARK                         _______ _______ _______ _____ _____    ______ ____
ROOT
ATOM     10  C   UNL     1       0.172  -1.174  16.834  0.00  0.00    +0.038 A 
ATOM     11  C   UNL     1      -0.345  -1.226  15.514  0.00  0.00    +0.047 A 
ATOM     12  C   UNL     1      -0.200  -2.419  14.695  0.00  0.00    +0.035 A 
ATOM     32  C   UNL     1       0.475  -3.543  15.253  0.00  0.00    +0.024 A 
ATOM     33  C   UNL     1       1.007  -3.508  16.593  0.00  0.00    +0.007 A 
ATOM     34  C   UNL     1       0.870  -2.333  17.405  0.00  0.00    -0.029 A 
ATOM     35  C   UNL     1       1.466  -2.349  18.831  0.00  0.00    +0.045 C 
ENDROOT
BRANCH  10   9
ATOM      4  C   UNL     1      -2.085   1.437  20.170  0.00  0.00    +0.077 A 
ATOM      5  C   UNL     1      -3.026   0.388  20.439  0.00  0.00    +0.048 A 
ATOM      6  C   UNL     1      -2.900  -0.804  19.692  0.00  0.00    +0.116 A 
ATOM      7  N   UNL     1      -1.902  -0.928  18.749  0.00  0.00    -0.223 NA
ATOM      8  C   UNL     1      -1.012   0.103  18.514  0.00  0.00    +0.220 A 
ATOM      9  N   UNL     1       0.004  -0.003  17.576  0.00  0.00    -0.283 N 
ATOM     36  H   UNL     1       0.636   0.783  17.427  0.00  0.00    +0.155 HD
ATOM     37  N   UNL     1      -1.112   1.253  19.213  0.00  0.00    -0.214 NA
BRANCH   4   3
ATOM      1  C   UNL     1      -3.157   4.947  21.522  0.00  0.00    +0.020 A 
ATOM      2  C   UNL     1      -3.206   3.687  20.818  0.00  0.00    +0.013 A 
ATOM      3  C   UNL     1      -2.086   2.755  20.879  0.00  0.00    +0.019 A 
ATOM     38  C   UNL     1      -0.924   3.133  21.669  0.00  0.00    +0.120 A 
ATOM     39  N   UNL     1      -0.905   4.354  22.335  0.00  0.00    -0.263 NA
ATOM     40  C   UNL     1      -1.975   5.259  22.282  0.00  0.00    +0.111 A 
ENDBRANCH   4   3
ENDBRANCH  10   9
BRANCH  12  13
ATOM     13  N   UNL     1      -0.697  -2.527  13.346  0.00  0.00    -0.281 N 
ATOM     14  C   UNL     1      -0.521  -1.636  12.300  0.00  0.00    +0.248 C 
ATOM     30  O   UNL     1      -0.085  -0.501  12.425  0.00  0.00    -0.270 OA
ATOM     31  H   UNL     1      -1.246  -3.361  13.137  0.00  0.00    +0.155 HD
BRANCH  14  15
ATOM     15  C   UNL     1      -0.895  -2.063  10.917  0.00  0.00    +0.037 A 
ATOM     16  C   UNL     1      -0.364  -1.373   9.739  0.00  0.00    +0.013 A 
ATOM     17  C   UNL     1      -0.755  -1.794   8.417  0.00  0.00    +0.005 A 
ATOM     18  C   UNL     1      -1.682  -2.913   8.267  0.00  0.00    -0.033 A 
ATOM     28  C   UNL     1      -2.190  -3.583   9.453  0.00  0.00    +0.005 A 
ATOM     29  C   UNL     1      -1.810  -3.172  10.750  0.00  0.00    +0.013 A 
BRANCH  18  19
ATOM     19  C   UNL     1      -2.170  -3.416   6.895  0.00  0.00    +0.119 C 
BRANCH  19  20
ATOM     20  N   UNL     1      -1.830  -4.822   6.522  0.00  0.00    -0.302 NA
ATOM     21  C   UNL     1      -0.326  -5.094   6.622  0.00  0.00    +0.066 C 
ATOM     22  C   UNL     1       0.010  -6.575   6.250  0.00  0.00    -0.064 C 
ATOM     23  N   UNL     1      -0.502  -6.872   4.839  0.00  0.00    +0.379 N 
ATOM     24  C   UNL     1      -0.136  -8.246   4.464  0.00  0.00    -0.096 C 
ATOM     25  H   UNL     1       0.019  -6.180   4.138  0.00  0.00    -0.082 HD
ATOM     26  C   UNL     1      -1.996  -6.601   4.730  0.00  0.00    -0.064 C 
ATOM     27  C   UNL     1      -2.322  -5.135   5.131  0.00  0.00    +0.066 C 
ENDBRANCH  19  20
ENDBRANCH  18  19
ENDBRANCH  14  15
ENDBRANCH  12  13
TORSDOF 6
ENDMDL
MODEL 3
REMARK VINA RESULT:      -8.6      2.676      4.933
REMARK  Name = C:\Users\Docking\Desktop\test protocol\1iep_ligandH.pdb
REMARK  8 active torsions:
REMARK  status: ('A' for Active; 'I' for Inactive)
REMARK    1  A    between atoms: _5  and  _11
REMARK    2  A    between atoms: _19  and  _21
REMARK    3  A    between atoms: _22  and  _66
REMARK    4  A    between atoms: _27  and  _30
REMARK    5  A    between atoms: _32  and  _33
REMARK    6  A    between atoms: _38  and  _43
REMARK    7  A    between atoms: _43  and  _46
REMARK    8  A    between atoms: _53  and  _55
REMARK                            x       y       z     vdW  Elec       q    Type
REMARK                         _______ _______ _______ _____ _____    ______ ____
ROOT
ATOM     10  C   UNL     1       0.349  -1.249  17.617  0.00  0.00    +0.038 A 
ATOM     11  C   UNL     1       0.060  -1.343  16.231  0.00  0.00    +0.047 A 
ATOM     12  C   UNL     1       0.331  -2.563  15.487  0.00  0.00    +0.035 A 
ATOM     32  C   UNL     1       0.894  -3.670  16.186  0.00  0.00    +0.024 A 
ATOM     33  C   UNL     1       1.196  -3.591  17.594  0.00  0.00    +0.007 A 
ATOM     34  C   UNL     1       0.933  -2.389  18.333  0.00  0.00    -0.029 A 
ATOM     35  C   UNL     1       1.283  -2.360  19.839  0.00  0.00    +0.045 C 
ENDROOT
BRANCH  10   9
ATOM      4  C   UNL     1      -2.443   1.496  20.393  0.00  0.00    +0.077 A 
ATOM      5  C   UNL     1      -3.440   0.470  20.506  0.00  0.00    +0.048 A 
ATOM      6  C   UNL     1      -3.200  -0.746  19.828  0.00  0.00    +0.116 A 
ATOM      7  N   UNL     1      -2.044  -0.913  19.096  0.00  0.00    -0.223 NA
ATOM      8  C   UNL     1      -1.104   0.096  19.006  0.00  0.00    +0.220 A 
ATOM      9  N   UNL     1       0.069  -0.053  18.282  0.00  0.00    -0.283 N 
ATOM     36  H   UNL     1       0.734   0.718  18.234  0.00  0.00    +0.155 HD
ATOM     37  N   UNL     1      -1.311   1.268  19.643  0.00  0.00    -0.214 NA
BRANCH   4   3
ATOM      1  C   UNL     1      -1.674   5.136  21.602  0.00  0.00    +0.020 A 
ATOM      2  C   UNL     1      -1.520   3.858  20.944  0.00  0.00    +0.013 A 
ATOM      3  C   UNL     1      -2.552   2.835  21.054  0.00  0.00    +0.019 A 
ATOM     38  C   UNL     1      -3.736   3.138  21.842  0.00  0.00    +0.120 A 
ATOM     39  N   UNL     1      -3.857   4.376  22.466  0.00  0.00    -0.263 NA
ATOM     40  C   UNL     1      -2.870   5.368  22.368  0.00  0.00    +0.111 A 
ENDBRANCH   4   3
ENDBRANCH  10   9
BRANCH  12  13
ATOM     13  N   UNL     1       0.065  -2.714  14.078  0.00  0.00    -0.281 N 
ATOM     14  C   UNL     1      -1.163  -2.856  13.453  0.00  0.00    +0.248 C 
ATOM     30  O   UNL     1      -2.212  -3.091  14.035  0.00  0.00    -0.270 OA
ATOM     31  H   UNL     1       0.882  -2.716  13.467  0.00  0.00    +0.155 HD
BRANCH  14  15
ATOM     15  C   UNL     1      -1.234  -2.735  11.965  0.00  0.00    +0.037 A 
ATOM     16  C   UNL     1      -2.075  -3.633  11.169  0.00  0.00    +0.013 A 
ATOM     17  C   UNL     1      -2.113  -3.506   9.734  0.00  0.00    +0.005 A 
ATOM     18  C   UNL     1      -1.307  -2.474   9.085  0.00  0.00    -0.033 A 
ATOM     28  C   UNL     1      -0.486  -1.594   9.899  0.00  0.00    +0.005 A 
ATOM     29  C   UNL     1      -0.446  -1.716  11.306  0.00  0.00    +0.013 A 
BRANCH  18  19
ATOM     19  C   UNL     1      -1.269  -2.280   7.558  0.00  0.00    +0.119 C 
BRANCH  19  20
ATOM     20  N   UNL     1      -2.120  -3.187   6.732  0.00  0.00    -0.302 NA
ATOM     21  C   UNL     1      -1.320  -4.359   6.157  0.00  0.00    +0.066 C 
ATOM     22  C   UNL     1      -2.231  -5.311   5.314  0.00  0.00    -0.064 C 
ATOM     23  N   UNL     1      -2.901  -4.512   4.195  0.00  0.00    +0.379 N 
ATOM     24  C   UNL     1      -3.712  -5.414   3.365  0.00  0.00    -0.096 C 
ATOM     25  H   UNL     1      -2.094  -4.092   3.549  0.00  0.00    -0.082 HD
ATOM     26  C   UNL     1      -3.696  -3.342   4.757  0.00  0.00    -0.064 C 
ATOM     27  C   UNL     1      -2.788  -2.419   5.617  0.00  0.00    +0.066 C 
ENDBRANCH  19  20
ENDBRANCH  18  19
ENDBRANCH  14  15
ENDBRANCH  12  13
TORSDOF 6
ENDMDL
MODEL 4
REMARK VINA RESULT:      -8.6      2.548      4.578
REMARK  Name = C:\Users\Docking\Desktop\test protocol\1iep_ligandH.pdb
REMARK  8 active torsions:
REMARK  status: ('A' for Active; 'I' for Inactive)
REMARK    1  A    between atoms: _5  and  _11
REMARK    2  A    between atoms: _19  and  _21
REMARK    3  A    between atoms: _22  and  _66
REMARK    4  A    between atoms: _27  and  _30
REMARK    5  A    between atoms: _32  and  _33
REMARK    6  A    between atoms: _38  and  _43
REMARK    7  A    between atoms: _43  and  _46
REMARK    8  A    between atoms: _53  and  _55
REMARK                            x       y       z     vdW  Elec       q    Type
REMARK                         _______ _______ _______ _____ _____    ______ ____
ROOT
ATOM     10  C   UNL     1       0.450  -1.156  17.776  0.00  0.00    +0.038 A 
ATOM     11  C   UNL     1       0.102  -1.324  16.411  0.00  0.00    +0.047 A 
ATOM     12  C   UNL     1       0.397  -2.561  15.706  0.00  0.00    +0.035 A 
ATOM     32  C   UNL     1       1.044  -3.610  16.423  0.00  0.00    +0.024 A 
ATOM     33  C   UNL     1       1.405  -3.456  17.810  0.00  0.00    +0.007 A 
ATOM     34  C   UNL     1       1.120  -2.237  18.510  0.00  0.00    -0.029 A 
ATOM     35  C   UNL     1       1.536  -2.126  19.995  0.00  0.00    +0.045 C 
ENDROOT
BRANCH  10   9
ATOM      4  C   UNL     1      -2.413   1.620  20.447  0.00  0.00    +0.077 A 
ATOM      5  C   UNL     1      -3.394   0.582  20.580  0.00  0.00    +0.048 A 
ATOM      6  C   UNL     1      -3.127  -0.649  19.940  0.00  0.00    +0.116 A 
ATOM      7  N   UNL     1      -1.962  -0.818  19.224  0.00  0.00    -0.223 NA
ATOM      8  C   UNL     1      -1.038   0.204  19.113  0.00  0.00    +0.220 A 
ATOM      9  N   UNL     1       0.144   0.053  18.404  0.00  0.00    -0.283 N 
ATOM     36  H   UNL     1       0.797   0.834  18.340  0.00  0.00    +0.155 HD
ATOM     37  N   UNL     1      -1.270   1.390  19.714  0.00  0.00    -0.214 NA
BRANCH   4   3
ATOM      1  C   UNL     1      -2.106   5.458  21.138  0.00  0.00    +0.020 A 
ATOM      2  C   UNL     1      -1.943   4.173  20.499  0.00  0.00    +0.013 A 
ATOM      3  C   UNL     1      -2.549   2.976  21.068  0.00  0.00    +0.019 A 
ATOM     38  C   UNL     1      -3.321   3.115  22.294  0.00  0.00    +0.120 A 
ATOM     39  N   UNL     1      -3.459   4.366  22.887  0.00  0.00    -0.263 NA
ATOM     40  C   UNL     1      -2.879   5.524  22.350  0.00  0.00    +0.111 A 
ENDBRANCH   4   3
ENDBRANCH  10   9
BRANCH  12  13
ATOM     13  N   UNL     1       0.074  -2.785  14.318  0.00  0.00    -0.281 N 
ATOM     14  C   UNL     1      -1.181  -2.870  13.738  0.00  0.00    +0.248 C 
ATOM     30  O   UNL     1      -2.225  -2.978  14.363  0.00  0.00    -0.270 OA
ATOM     31  H   UNL     1       0.868  -2.896  13.687  0.00  0.00    +0.155 HD
BRANCH  14  15
ATOM     15  C   UNL     1      -1.290  -2.844  12.248  0.00  0.00    +0.037 A 
ATOM     16  C   UNL     1      -2.139  -3.800  11.532  0.00  0.00    +0.013 A 
ATOM     17  C   UNL     1      -2.214  -3.765  10.093  0.00  0.00    +0.005 A 
ATOM     18  C   UNL     1      -1.437  -2.768   9.360  0.00  0.00    -0.033 A 
ATOM     28  C   UNL     1      -0.608  -1.828  10.096  0.00  0.00    +0.005 A 
ATOM     29  C   UNL     1      -0.531  -1.860  11.506  0.00  0.00    +0.013 A 
BRANCH  18  19
ATOM     19  C   UNL     1      -1.440  -2.671   7.823  0.00  0.00    +0.119 C 
BRANCH  19  20
ATOM     20  N   UNL     1      -0.580  -3.636   7.075  0.00  0.00    -0.302 NA
ATOM     21  C   UNL     1      -1.182  -5.043   7.052  0.00  0.00    +0.066 C 
ATOM     22  C   UNL     1      -0.281  -6.035   6.247  0.00  0.00    -0.064 C 
ATOM     23  N   UNL     1       1.121  -6.056   6.858  0.00  0.00    +0.379 N 
ATOM     24  C   UNL     1       1.955  -7.031   6.139  0.00  0.00    -0.096 C 
ATOM     25  H   UNL     1       1.026  -6.405   7.912  0.00  0.00    -0.082 HD
ATOM     26  C   UNL     1       1.727  -4.660   6.887  0.00  0.00    -0.064 C 
ATOM     27  C   UNL     1       0.809  -3.675   7.664  0.00  0.00    +0.066 C 
ENDBRANCH  19  20
ENDBRANCH  18  19
ENDBRANCH  14  15
ENDBRANCH  12  13
TORSDOF 6
ENDMDL
MODEL 5
REMARK VINA RESULT:      -8.5      5.673      9.273
REMARK  Name = C:\Users\Docking\Desktop\test protocol\1iep_ligandH.pdb
REMARK  8 active torsions:
REMARK  status: ('A' for Active; 'I' for Inactive)
REMARK    1  A    between atoms: _5  and  _11
REMARK    2  A    between atoms: _19  and  _21
REMARK    3  A    between atoms: _22  and  _66
REMARK    4  A    between atoms: _27  and  _30
REMARK    5  A    between atoms: _32  and  _33
REMARK    6  A    between atoms: _38  and  _43
REMARK    7  A    between atoms: _43  and  _46
REMARK    8  A    between atoms: _53  and  _55
REMARK                            x       y       z     vdW  Elec       q    Type
REMARK                         _______ _______ _______ _____ _____    ______ ____
ROOT
ATOM     10  C   UNL     1       0.236  -2.708  17.284  0.00  0.00    +0.038 A 
ATOM     11  C   UNL     1       0.269  -2.928  15.883  0.00  0.00    +0.047 A 
ATOM     12  C   UNL     1      -0.330  -1.979  14.958  0.00  0.00    +0.035 A 
ATOM     32  C   UNL     1      -0.951  -0.813  15.494  0.00  0.00    +0.024 A 
ATOM     33  C   UNL     1      -0.994  -0.574  16.915  0.00  0.00    +0.007 A 
ATOM     34  C   UNL     1      -0.408  -1.508  17.833  0.00  0.00    -0.029 A 
ATOM     35  C   UNL     1      -0.490  -1.204  19.347  0.00  0.00    +0.045 C 
ENDROOT
BRANCH  10   9
ATOM      4  C   UNL     1       3.818  -4.214  20.102  0.00  0.00    +0.077 A 
ATOM      5  C   UNL     1       4.590  -3.031  19.853  0.00  0.00    +0.048 A 
ATOM      6  C   UNL     1       4.033  -2.062  18.989  0.00  0.00    +0.116 A 
ATOM      7  N   UNL     1       2.795  -2.271  18.421  0.00  0.00    -0.223 NA
ATOM      8  C   UNL     1       2.077  -3.425  18.680  0.00  0.00    +0.220 A 
ATOM      9  N   UNL     1       0.827  -3.653  18.126  0.00  0.00    -0.283 N 
ATOM     36  H   UNL     1       0.333  -4.519  18.336  0.00  0.00    +0.155 HD
ATOM     37  N   UNL     1       2.588  -4.366  19.501  0.00  0.00    -0.214 NA
BRANCH   4   3
ATOM      1  C   UNL     1       5.982  -6.467  22.455  0.00  0.00    +0.020 A 
ATOM      2  C   UNL     1       5.595  -5.369  21.600  0.00  0.00    +0.013 A 
ATOM      3  C   UNL     1       4.270  -5.328  20.995  0.00  0.00    +0.019 A 
ATOM     38  C   UNL     1       3.353  -6.421  21.278  0.00  0.00    +0.120 A 
ATOM     39  N   UNL     1       3.753  -7.466  22.105  0.00  0.00    -0.263 NA
ATOM     40  C   UNL     1       5.027  -7.517  22.691  0.00  0.00    +0.111 A 
ENDBRANCH   4   3
ENDBRANCH  10   9
BRANCH  12  13
ATOM     13  N   UNL     1      -0.334  -2.153  13.527  0.00  0.00    -0.281 N 
ATOM     14  C   UNL     1      -1.302  -2.763  12.746  0.00  0.00    +0.248 C 
ATOM     30  O   UNL     1      -2.216  -3.445  13.186  0.00  0.00    -0.270 OA
ATOM     31  H   UNL     1       0.475  -1.781  13.028  0.00  0.00    +0.155 HD
BRANCH  14  15
ATOM     15  C   UNL     1      -1.238  -2.605  11.261  0.00  0.00    +0.037 A 
ATOM     16  C   UNL     1      -0.413  -1.565  10.643  0.00  0.00    +0.013 A 
ATOM     17  C   UNL     1      -0.382  -1.423   9.208  0.00  0.00    +0.005 A 
ATOM     18  C   UNL     1      -1.179  -2.327   8.382  0.00  0.00    -0.033 A 
ATOM     28  C   UNL     1      -1.985  -3.354   9.022  0.00  0.00    +0.005 A 
ATOM     29  C   UNL     1      -2.018  -3.495  10.428  0.00  0.00    +0.013 A 
BRANCH  18  19
ATOM     19  C   UNL     1      -1.223  -2.236   6.846  0.00  0.00    +0.119 C 
BRANCH  19  20
ATOM     20  N   UNL     1      -2.340  -2.943   6.150  0.00  0.00    -0.302 NA
ATOM     21  C   UNL     1      -1.898  -4.295   5.583  0.00  0.00    +0.066 C 
ATOM     22  C   UNL     1      -3.084  -5.032   4.879  0.00  0.00    -0.064 C 
ATOM     23  N   UNL     1      -3.650  -4.139   3.773  0.00  0.00    +0.379 N 
ATOM     24  C   UNL     1      -4.727  -4.852   3.071  0.00  0.00    -0.096 C 
ATOM     25  H   UNL     1      -2.833  -3.952   3.038  0.00  0.00    -0.082 HD
ATOM     26  C   UNL     1      -4.089  -2.791   4.328  0.00  0.00    -0.064 C 
ATOM     27  C   UNL     1      -2.911  -2.081   5.051  0.00  0.00    +0.066 C 
ENDBRANCH  19  20
ENDBRANCH  18  19
ENDBRANCH  14  15
ENDBRANCH  12  13
TORSDOF 6
ENDMDL
