MODEL 1
REMARK VINA RESULT:      -8.6      0.000      0.000
REMARK  Name = C:\Users\Docking\Desktop\test protocol\1iep_ligandH.pdb
REMARK  8 active torsions:
REMARK  status: ('A' for Active; 'I' for Inactive)
REMARK    1  A    between atoms: _5  and  _11
REMARK    2  A    between atoms: _19  and  _21
REMARK    3  A    between atoms: _22  and  _66
REMARK    4  A    between atoms: _27  and  _30
REMARK    5  A    between atoms: _32  and  _33
REMARK    6  A    between atoms: _38  and  _43
REMARK    7  A    between atoms: _43  and  _46
REMARK    8  A    between atoms: _53  and  _55
REMARK                            x       y       z     vdW  Elec       q    Type
REMARK                         _______ _______ _______ _____ _____    ______ ____
ROOT
ATOM     10  C   UNL     1      10.936 108.288   3.662  0.00  0.00    +0.038 A 
ATOM     11  C   UNL     1      10.936 108.874   4.953  0.00  0.00    +0.047 A 
ATOM     12  C   UNL     1      12.127 108.856   5.788  0.00  0.00    +0.035 A 
ATOM     32  C   UNL     1      13.303 108.235   5.274  0.00  0.00    +0.024 A 
ATOM     33  C   UNL     1      13.320 107.634   3.963  0.00  0.00    +0.007 A 
ATOM     34  C   UNL     1      12.147 107.646   3.137  0.00  0.00    -0.029 A 
ATOM     35  C   UNL     1      12.221 106.981   1.743  0.00  0.00    +0.045 C 
ENDROOT
BRANCH  10   9
ATOM      4  C   UNL     1       6.715 106.469   2.279  0.00  0.00    +0.077 A 
ATOM      5  C   UNL     1       6.870 105.316   3.118  0.00  0.00    +0.048 A 
ATOM      6  C   UNL     1       8.054 105.226   3.884  0.00  0.00    +0.116 A 
ATOM      7  N   UNL     1       9.005 106.220   3.809  0.00  0.00    -0.223 NA
ATOM      8  C   UNL     1       8.825 107.318   2.988  0.00  0.00    +0.220 A 
ATOM      9  N   UNL     1       9.764 108.334   2.903  0.00  0.00    -0.283 N 
ATOM     36  H   UNL     1       9.598 109.124   2.280  0.00  0.00    +0.155 HD
ATOM     37  N   UNL     1       7.704 107.427   2.246  0.00  0.00    -0.214 NA
BRANCH   4   3
ATOM      1  C   UNL     1       3.034 106.682   0.972  0.00  0.00    +0.020 A 
ATOM      2  C   UNL     1       4.156 106.431   1.848  0.00  0.00    +0.013 A 
ATOM      3  C   UNL     1       5.518 106.710   1.412  0.00  0.00    +0.019 A 
ATOM     38  C   UNL     1       5.714 107.246   0.073  0.00  0.00    +0.120 A 
ATOM     39  N   UNL     1       4.615 107.476  -0.749  0.00  0.00    -0.263 NA
ATOM     40  C   UNL     1       3.299 107.210  -0.341  0.00  0.00    +0.111 A 
ENDBRANCH   4   3
ENDBRANCH  10   9
BRANCH  12  13
ATOM     13  N   UNL     1      12.185 109.427   7.110  0.00  0.00    -0.281 N 
ATOM     14  C   UNL     1      12.931 110.514   7.537  0.00  0.00    +0.248 C 
ATOM     30  O   UNL     1      13.830 111.030   6.892  0.00  0.00    -0.270 OA
ATOM     31  H   UNL     1      11.605 108.976   7.818  0.00  0.00    +0.155 HD
BRANCH  14  15
ATOM     15  C   UNL     1      12.646 111.102   8.881  0.00  0.00    +0.037 A 
ATOM     16  C   UNL     1      13.679 111.166   9.918  0.00  0.00    +0.013 A 
ATOM     17  C   UNL     1      13.373 111.723  11.211  0.00  0.00    +0.005 A 
ATOM     18  C   UNL     1      12.026 112.222  11.475  0.00  0.00    -0.033 A 
ATOM     28  C   UNL     1      11.021 112.151  10.427  0.00  0.00    +0.005 A 
ATOM     29  C   UNL     1      11.317 111.605   9.159  0.00  0.00    +0.013 A 
BRANCH  18  19
ATOM     19  C   UNL     1      11.604 112.814  12.833  0.00  0.00    +0.119 C 
BRANCH  19  20
ATOM     20  N   UNL     1      12.625 112.820  13.923  0.00  0.00    -0.302 NA
ATOM     21  C   UNL     1      12.668 111.489  14.678  0.00  0.00    +0.066 C 
ATOM     22  C   UNL     1      13.757 111.505  15.800  0.00  0.00    -0.064 C 
ATOM     23  N   UNL     1      13.479 112.664  16.759  0.00  0.00    +0.379 N 
ATOM     24  C   UNL     1      14.468 112.647  17.848  0.00  0.00    -0.096 C 
ATOM     25  H   UNL     1      12.475 112.494  17.212  0.00  0.00    -0.082 HD
ATOM     26  C   UNL     1      13.433 113.991  16.016  0.00  0.00    -0.064 C 
ATOM     27  C   UNL     1      12.368 113.954  14.885  0.00  0.00    +0.066 C 
ENDBRANCH  19  20
ENDBRANCH  18  19
ENDBRANCH  14  15
ENDBRANCH  12  13
TORSDOF 6
ENDMDL
MODEL 2
REMARK VINA RESULT:      -8.4      2.239      3.080
REMARK  Name = C:\Users\Docking\Desktop\test protocol\1iep_ligandH.pdb
REMARK  8 active torsions:
REMARK  status: ('A' for Active; 'I' for Inactive)
REMARK    1  A    between atoms: _5  and  _11
REMARK    2  A    between atoms: _19  and  _21
REMARK    3  A    between atoms: _22  and  _66
REMARK    4  A    between atoms: _27  and  _30
REMARK    5  A    between atoms: _32  and  _33
REMARK    6  A    between atoms: _38  and  _43
REMARK    7  A    between atoms: _43  and  _46
REMARK    8  A    between atoms: _53  and  _55
REMARK                            x       y       z     vdW  Elec       q    Type
REMARK                         _______ _______ _______ _____ _____    ______ ____
ROOT
ATOM     10  C   UNL     1      11.625 107.636   4.702  0.00  0.00    +0.038 A 
ATOM     11  C   UNL     1      11.606 108.512   5.817  0.00  0.00    +0.047 A 
ATOM     12  C   UNL     1      12.374 108.221   7.017  0.00  0.00    +0.035 A 
ATOM     32  C   UNL     1      13.155 107.028   7.046  0.00  0.00    +0.024 A 
ATOM     33  C   UNL     1      13.185 106.126   5.922  0.00  0.00    +0.007 A 
ATOM     34  C   UNL     1      12.427 106.407   4.737  0.00  0.00    -0.029 A 
ATOM     35  C   UNL     1      12.492 105.400   3.565  0.00  0.00    +0.045 C 
ENDROOT
BRANCH  10   9
ATOM      4  C   UNL     1       7.805 107.060   1.854  0.00  0.00    +0.077 A 
ATOM      5  C   UNL     1       7.287 105.996   2.664  0.00  0.00    +0.048 A 
ATOM      6  C   UNL     1       8.038 105.621   3.801  0.00  0.00    +0.116 A 
ATOM      7  N   UNL     1       9.217 106.271   4.096  0.00  0.00    -0.223 NA
ATOM      8  C   UNL     1       9.689 107.293   3.293  0.00  0.00    +0.220 A 
ATOM      9  N   UNL     1      10.868 107.965   3.575  0.00  0.00    -0.283 N 
ATOM     36  H   UNL     1      11.186 108.708   2.954  0.00  0.00    +0.155 HD
ATOM     37  N   UNL     1       8.991 107.668   2.201  0.00  0.00    -0.214 NA
BRANCH   4   3
ATOM      1  C   UNL     1       6.729 109.322  -1.150  0.00  0.00    +0.020 A 
ATOM      2  C   UNL     1       7.414 108.876   0.041  0.00  0.00    +0.013 A 
ATOM      3  C   UNL     1       7.124 107.572   0.622  0.00  0.00    +0.019 A 
ATOM     38  C   UNL     1       6.129 106.736  -0.032  0.00  0.00    +0.120 A 
ATOM     39  N   UNL     1       5.484 107.192  -1.177  0.00  0.00    -0.263 NA
ATOM     40  C   UNL     1       5.753 108.447  -1.745  0.00  0.00    +0.111 A 
ENDBRANCH   4   3
ENDBRANCH  10   9
BRANCH  12  13
ATOM     13  N   UNL     1      12.387 109.069   8.183  0.00  0.00    -0.281 N 
ATOM     14  C   UNL     1      12.911 110.346   8.301  0.00  0.00    +0.248 C 
ATOM     30  O   UNL     1      13.642 110.873   7.475  0.00  0.00    -0.270 OA
ATOM     31  H   UNL     1      11.959 108.681   9.023  0.00  0.00    +0.155 HD
BRANCH  14  15
ATOM     15  C   UNL     1      12.587 111.149   9.519  0.00  0.00    +0.037 A 
ATOM     16  C   UNL     1      13.570 111.334  10.590  0.00  0.00    +0.013 A 
ATOM     17  C   UNL     1      13.226 112.099  11.763  0.00  0.00    +0.005 A 
ATOM     18  C   UNL     1      11.893 112.687  11.869  0.00  0.00    -0.033 A 
ATOM     28  C   UNL     1      10.940 112.493  10.789  0.00  0.00    +0.005 A 
ATOM     29  C   UNL     1      11.272 111.742   9.639  0.00  0.00    +0.013 A 
BRANCH  18  19
ATOM     19  C   UNL     1      11.432 113.501  13.093  0.00  0.00    +0.119 C 
BRANCH  19  20
ATOM     20  N   UNL     1       9.961 113.635  13.311  0.00  0.00    -0.302 NA
ATOM     21  C   UNL     1       9.476 115.071  13.090  0.00  0.00    +0.066 C 
ATOM     22  C   UNL     1       7.931 115.188  13.300  0.00  0.00    -0.064 C 
ATOM     23  N   UNL     1       7.573 114.706  14.706  0.00  0.00    +0.379 N 
ATOM     24  C   UNL     1       6.128 114.870  14.927  0.00  0.00    -0.096 C 
ATOM     25  H   UNL     1       8.103 115.363  15.434  0.00  0.00    -0.082 HD
ATOM     26  C   UNL     1       8.054 113.280  14.935  0.00  0.00    -0.064 C 
ATOM     27  C   UNL     1       9.585 113.168  14.695  0.00  0.00    +0.066 C 
ENDBRANCH  19  20
ENDBRANCH  18  19
ENDBRANCH  14  15
ENDBRANCH  12  13
TORSDOF 6
ENDMDL
MODEL 3
REMARK VINA RESULT:      -8.3      1.461      2.029
REMARK  Name = C:\Users\Docking\Desktop\test protocol\1iep_ligandH.pdb
REMARK  8 active torsions:
REMARK  status: ('A' for Active; 'I' for Inactive)
REMARK    1  A    between atoms: _5  and  _11
REMARK    2  A    between atoms: _19  and  _21
REMARK    3  A    between atoms: _22  and  _66
REMARK    4  A    between atoms: _27  and  _30
REMARK    5  A    between atoms: _32  and  _33
REMARK    6  A    between atoms: _38  and  _43
REMARK    7  A    between atoms: _43  and  _46
REMARK    8  A    between atoms: _53  and  _55
REMARK                            x       y       z     vdW  Elec       q    Type
REMARK                         _______ _______ _______ _____ _____    ______ ____
ROOT
ATOM     10  C   UNL     1      11.216 107.489   4.193  0.00  0.00    +0.038 A 
ATOM     11  C   UNL     1      11.047 108.257   5.374  0.00  0.00    +0.047 A 
ATOM     12  C   UNL     1      12.133 109.062   5.910  0.00  0.00    +0.035 A 
ATOM     32  C   UNL     1      13.378 109.064   5.216  0.00  0.00    +0.024 A 
ATOM     33  C   UNL     1      13.568 108.290   4.015  0.00  0.00    +0.007 A 
ATOM     34  C   UNL     1      12.501 107.491   3.483  0.00  0.00    -0.029 A 
ATOM     35  C   UNL     1      12.763 106.675   2.196  0.00  0.00    +0.045 C 
ENDROOT
BRANCH  10   9
ATOM      4  C   UNL     1       7.368 106.896   1.386  0.00  0.00    +0.077 A 
ATOM      5  C   UNL     1       7.498 108.212   0.829  0.00  0.00    +0.048 A 
ATOM      6  C   UNL     1       8.564 109.012   1.297  0.00  0.00    +0.116 A 
ATOM      7  N   UNL     1       9.430 108.523   2.251  0.00  0.00    -0.223 NA
ATOM      8  C   UNL     1       9.276 107.250   2.768  0.00  0.00    +0.220 A 
ATOM      9  N   UNL     1      10.140 106.734   3.722  0.00  0.00    -0.283 N 
ATOM     36  H   UNL     1       9.987 105.793   4.084  0.00  0.00    +0.155 HD
ATOM     37  N   UNL     1       8.265 106.466   2.339  0.00  0.00    -0.214 NA
BRANCH   4   3
ATOM      1  C   UNL     1       5.498 103.658   0.237  0.00  0.00    +0.020 A 
ATOM      2  C   UNL     1       6.571 104.551   0.610  0.00  0.00    +0.013 A 
ATOM      3  C   UNL     1       6.295 105.930   0.991  0.00  0.00    +0.019 A 
ATOM     38  C   UNL     1       4.911 106.379   0.984  0.00  0.00    +0.120 A 
ATOM     39  N   UNL     1       3.898 105.497   0.619  0.00  0.00    -0.263 NA
ATOM     40  C   UNL     1       4.152 104.168   0.249  0.00  0.00    +0.111 A 
ENDBRANCH   4   3
ENDBRANCH  10   9
BRANCH  12  13
ATOM     13  N   UNL     1      12.022 109.855   7.109  0.00  0.00    -0.281 N 
ATOM     14  C   UNL     1      12.544 109.580   8.363  0.00  0.00    +0.248 C 
ATOM     30  O   UNL     1      13.008 108.500   8.697  0.00  0.00    -0.270 OA
ATOM     31  H   UNL     1      11.495 110.724   7.023  0.00  0.00    +0.155 HD
BRANCH  14  15
ATOM     15  C   UNL     1      12.538 110.657   9.399  0.00  0.00    +0.037 A 
ATOM     16  C   UNL     1      11.310 111.383   9.733  0.00  0.00    +0.013 A 
ATOM     17  C   UNL     1      11.334 112.429  10.724  0.00  0.00    +0.005 A 
ATOM     18  C   UNL     1      12.593 112.755  11.391  0.00  0.00    -0.033 A 
ATOM     28  C   UNL     1      13.796 112.015  11.044  0.00  0.00    +0.005 A 
ATOM     29  C   UNL     1      13.775 110.990  10.072  0.00  0.00    +0.013 A 
BRANCH  18  19
ATOM     19  C   UNL     1      12.717 113.870  12.446  0.00  0.00    +0.119 C 
BRANCH  19  20
ATOM     20  N   UNL     1      13.265 113.489  13.782  0.00  0.00    -0.302 NA
ATOM     21  C   UNL     1      12.209 112.823  14.668  0.00  0.00    +0.066 C 
ATOM     22  C   UNL     1      12.806 112.411  16.053  0.00  0.00    -0.064 C 
ATOM     23  N   UNL     1      13.389 113.646  16.741  0.00  0.00    +0.379 N 
ATOM     24  C   UNL     1      13.899 113.273  18.069  0.00  0.00    -0.096 C 
ATOM     25  H   UNL     1      12.558 114.374  16.890  0.00  0.00    -0.082 HD
ATOM     26  C   UNL     1      14.438 114.317  15.866  0.00  0.00    -0.064 C 
ATOM     27  C   UNL     1      13.843 114.695  14.481  0.00  0.00    +0.066 C 
ENDBRANCH  19  20
ENDBRANCH  18  19
ENDBRANCH  14  15
ENDBRANCH  12  13
TORSDOF 6
ENDMDL
MODEL 4
REMARK VINA RESULT:      -8.2      1.651      2.089
REMARK  Name = C:\Users\Docking\Desktop\test protocol\1iep_ligandH.pdb
REMARK  8 active torsions:
REMARK  status: ('A' for Active; 'I' for Inactive)
REMARK    1  A    between atoms: _5  and  _11
REMARK    2  A    between atoms: _19  and  _21
REMARK    3  A    between atoms: _22  and  _66
REMARK    4  A    between atoms: _27  and  _30
REMARK    5  A    between atoms: _32  and  _33
REMARK    6  A    between atoms: _38  and  _43
REMARK    7  A    between atoms: _43  and  _46
REMARK    8  A    between atoms: _53  and  _55
REMARK                            x       y       z     vdW  Elec       q    Type
REMARK                         _______ _______ _______ _____ _____    ______ ____
ROOT
ATOM     10  C   UNL     1      11.835 107.705   4.587  0.00  0.00    +0.038 A 
ATOM     11  C   UNL     1      11.776 108.570   5.709  0.00  0.00    +0.047 A 
ATOM     12  C   UNL     1      12.418 108.218   6.966  0.00  0.00    +0.035 A 
ATOM     32  C   UNL     1      13.114 106.977   7.044  0.00  0.00    +0.024 A 
ATOM     33  C   UNL     1      13.184 106.084   5.914  0.00  0.00    +0.007 A 
ATOM     34  C   UNL     1      12.550 106.425   4.672  0.00  0.00    -0.029 A 
ATOM     35  C   UNL     1      12.651 105.428   3.495  0.00  0.00    +0.045 C 
ENDROOT
BRANCH  10   9
ATOM      4  C   UNL     1       8.149 107.557   1.517  0.00  0.00    +0.077 A 
ATOM      5  C   UNL     1       7.439 106.605   2.322  0.00  0.00    +0.048 A 
ATOM      6  C   UNL     1       8.060 106.174   3.515  0.00  0.00    +0.116 A 
ATOM      7  N   UNL     1       9.299 106.664   3.867  0.00  0.00    -0.223 NA
ATOM      8  C   UNL     1       9.957 107.580   3.067  0.00  0.00    +0.220 A 
ATOM      9  N   UNL     1      11.200 108.093   3.405  0.00  0.00    -0.283 N 
ATOM     36  H   UNL     1      11.656 108.761   2.785  0.00  0.00    +0.155 HD
ATOM     37  N   UNL     1       9.386 108.007   1.922  0.00  0.00    -0.214 NA
BRANCH   4   3
ATOM      1  C   UNL     1       6.666 109.973  -1.179  0.00  0.00    +0.020 A 
ATOM      2  C   UNL     1       7.165 109.488   0.087  0.00  0.00    +0.013 A 
ATOM      3  C   UNL     1       7.622 108.111   0.229  0.00  0.00    +0.019 A 
ATOM     38  C   UNL     1       7.561 107.245  -0.938  0.00  0.00    +0.120 A 
ATOM     39  N   UNL     1       7.074 107.740  -2.144  0.00  0.00    -0.263 NA
ATOM     40  C   UNL     1       6.629 109.062  -2.292  0.00  0.00    +0.111 A 
ENDBRANCH   4   3
ENDBRANCH  10   9
BRANCH  12  13
ATOM     13  N   UNL     1      12.385 109.053   8.141  0.00  0.00    -0.281 N 
ATOM     14  C   UNL     1      12.906 110.327   8.296  0.00  0.00    +0.248 C 
ATOM     30  O   UNL     1      13.671 110.861   7.507  0.00  0.00    -0.270 OA
ATOM     31  H   UNL     1      11.921 108.656   8.959  0.00  0.00    +0.155 HD
BRANCH  14  15
ATOM     15  C   UNL     1      12.534 111.117   9.509  0.00  0.00    +0.037 A 
ATOM     16  C   UNL     1      11.194 111.688   9.663  0.00  0.00    +0.013 A 
ATOM     17  C   UNL     1      10.867 112.460  10.836  0.00  0.00    +0.005 A 
ATOM     18  C   UNL     1      11.884 112.664  11.865  0.00  0.00    -0.033 A 
ATOM     28  C   UNL     1      13.204 112.082  11.689  0.00  0.00    +0.005 A 
ATOM     29  C   UNL     1      13.528 111.326  10.541  0.00  0.00    +0.013 A 
BRANCH  18  19
ATOM     19  C   UNL     1      11.630 113.492  13.138  0.00  0.00    +0.119 C 
BRANCH  19  20
ATOM     20  N   UNL     1      12.605 113.340  14.259  0.00  0.00    -0.302 NA
ATOM     21  C   UNL     1      12.569 111.935  14.865  0.00  0.00    +0.066 C 
ATOM     22  C   UNL     1      13.612 111.786  16.021  0.00  0.00    -0.064 C 
ATOM     23  N   UNL     1      13.338 112.845  17.090  0.00  0.00    +0.379 N 
ATOM     24  C   UNL     1      14.280 112.671  18.205  0.00  0.00    -0.096 C 
ATOM     25  H   UNL     1      12.310 112.668  17.485  0.00  0.00    -0.082 HD
ATOM     26  C   UNL     1      13.369 114.245  16.495  0.00  0.00    -0.064 C 
ATOM     27  C   UNL     1      12.350 114.373  15.329  0.00  0.00    +0.066 C 
ENDBRANCH  19  20
ENDBRANCH  18  19
ENDBRANCH  14  15
ENDBRANCH  12  13
TORSDOF 6
ENDMDL
MODEL 5
REMARK VINA RESULT:      -8.1      4.884      7.476
REMARK  Name = C:\Users\Docking\Desktop\test protocol\1iep_ligandH.pdb
REMARK  8 active torsions:
REMARK  status: ('A' for Active; 'I' for Inactive)
REMARK    1  A    between atoms: _5  and  _11
REMARK    2  A    between atoms: _19  and  _21
REMARK    3  A    between atoms: _22  and  _66
REMARK    4  A    between atoms: _27  and  _30
REMARK    5  A    between atoms: _32  and  _33
REMARK    6  A    between atoms: _38  and  _43
REMARK    7  A    between atoms: _43  and  _46
REMARK    8  A    between atoms: _53  and  _55
REMARK                            x       y       z     vdW  Elec       q    Type
REMARK                         _______ _______ _______ _____ _____    ______ ____
ROOT
ATOM     10  C   UNL     1      11.727 113.484   8.255  0.00  0.00    +0.038 A 
ATOM     11  C   UNL     1      12.196 113.270   9.577  0.00  0.00    +0.047 A 
ATOM     12  C   UNL     1      11.950 114.243  10.629  0.00  0.00    +0.035 A 
ATOM     32  C   UNL     1      11.221 115.423  10.302  0.00  0.00    +0.024 A 
ATOM     33  C   UNL     1      10.738 115.658   8.964  0.00  0.00    +0.007 A 
ATOM     34  C   UNL     1      10.979 114.702   7.921  0.00  0.00    -0.029 A 
ATOM     35  C   UNL     1      10.443 115.008   6.503  0.00  0.00    +0.045 C 
ENDROOT
BRANCH  10   9
ATOM      4  C   UNL     1      12.737 108.983   6.930  0.00  0.00    +0.077 A 
ATOM      5  C   UNL     1      12.768 108.527   8.289  0.00  0.00    +0.048 A 
ATOM      6  C   UNL     1      12.526 109.483   9.301  0.00  0.00    +0.116 A 
ATOM      7  N   UNL     1      12.272 110.796   8.965  0.00  0.00    -0.223 NA
ATOM      8  C   UNL     1      12.252 111.203   7.644  0.00  0.00    +0.220 A 
ATOM      9  N   UNL     1      11.991 112.516   7.284  0.00  0.00    -0.283 N 
ATOM     36  H   UNL     1      11.992 112.778   6.298  0.00  0.00    +0.155 HD
ATOM     37  N   UNL     1      12.481 110.309   6.660  0.00  0.00    -0.214 NA
BRANCH   4   3
ATOM      1  C   UNL     1      13.032 105.830   4.633  0.00  0.00    +0.020 A 
ATOM      2  C   UNL     1      12.794 106.646   5.802  0.00  0.00    +0.013 A 
ATOM      3  C   UNL     1      12.971 108.092   5.750  0.00  0.00    +0.019 A 
ATOM     38  C   UNL     1      13.392 108.686   4.490  0.00  0.00    +0.120 A 
ATOM     39  N   UNL     1      13.615 107.875   3.381  0.00  0.00    -0.263 NA
ATOM     40  C   UNL     1      13.450 106.482   3.420  0.00  0.00    +0.111 A 
ENDBRANCH   4   3
ENDBRANCH  10   9
BRANCH  12  13
ATOM     13  N   UNL     1      12.409 114.084  11.987  0.00  0.00    -0.281 N 
ATOM     14  C   UNL     1      11.757 113.461  13.039  0.00  0.00    +0.248 C 
ATOM     30  O   UNL     1      10.580 113.132  13.024  0.00  0.00    -0.270 OA
ATOM     31  H   UNL     1      13.326 114.478  12.199  0.00  0.00    +0.155 HD
BRANCH  14  15
ATOM     15  C   UNL     1      12.518 113.176  14.293  0.00  0.00    +0.037 A 
ATOM     16  C   UNL     1      13.183 111.888  14.502  0.00  0.00    +0.013 A 
ATOM     17  C   UNL     1      13.896 111.632  15.729  0.00  0.00    +0.005 A 
ATOM     18  C   UNL     1      13.949 112.670  16.756  0.00  0.00    -0.033 A 
ATOM     28  C   UNL     1      13.285 113.942  16.520  0.00  0.00    +0.005 A 
ATOM     29  C   UNL     1      12.584 114.195  15.319  0.00  0.00    +0.013 A 
BRANCH  18  19
ATOM     19  C   UNL     1      14.669 112.478  18.103  0.00  0.00    +0.119 C 
BRANCH  19  20
ATOM     20  N   UNL     1      15.979 111.760  18.082  0.00  0.00    -0.302 NA
ATOM     21  C   UNL     1      15.823 110.271  18.405  0.00  0.00    +0.066 C 
ATOM     22  C   UNL     1      17.200 109.531  18.356  0.00  0.00    -0.064 C 
ATOM     23  N   UNL     1      18.169 110.199  19.333  0.00  0.00    +0.379 N 
ATOM     24  C   UNL     1      19.446 109.470  19.333  0.00  0.00    -0.096 C 
ATOM     25  H   UNL     1      17.731 110.113  20.355  0.00  0.00    -0.082 HD
ATOM     26  C   UNL     1      18.328 111.680  19.021  0.00  0.00    -0.064 C 
ATOM     27  C   UNL     1      16.950 112.400  19.043  0.00  0.00    +0.066 C 
ENDBRANCH  19  20
ENDBRANCH  18  19
ENDBRANCH  14  15
ENDBRANCH  12  13
TORSDOF 6
ENDMDL
