MODEL 1
REMARK VINA RESULT:      -9.1      0.000      0.000
REMARK  Name = C:\Users\Docking\Desktop\test protocol\1iep_ligandH.pdb
REMARK  8 active torsions:
REMARK  status: ('A' for Active; 'I' for Inactive)
REMARK    1  A    between atoms: _5  and  _11
REMARK    2  A    between atoms: _19  and  _21
REMARK    3  A    between atoms: _22  and  _66
REMARK    4  A    between atoms: _27  and  _30
REMARK    5  A    between atoms: _32  and  _33
REMARK    6  A    between atoms: _38  and  _43
REMARK    7  A    between atoms: _43  and  _46
REMARK    8  A    between atoms: _53  and  _55
REMARK                            x       y       z     vdW  Elec       q    Type
REMARK                         _______ _______ _______ _____ _____    ______ ____
ROOT
ATOM     10  C   UNL     1      11.595 109.416   4.512  0.00  0.00    +0.038 A 
ATOM     11  C   UNL     1      11.584 110.330   5.597  0.00  0.00    +0.047 A 
ATOM     12  C   UNL     1      12.366 110.082   6.798  0.00  0.00    +0.035 A 
ATOM     32  C   UNL     1      13.152 108.894   6.859  0.00  0.00    +0.024 A 
ATOM     33  C   UNL     1      13.175 107.954   5.766  0.00  0.00    +0.007 A 
ATOM     34  C   UNL     1      12.402 108.192   4.580  0.00  0.00    -0.029 A 
ATOM     35  C   UNL     1      12.460 107.147   3.442  0.00  0.00    +0.045 C 
ENDROOT
BRANCH  10   9
ATOM      4  C   UNL     1       7.735 108.746   1.739  0.00  0.00    +0.077 A 
ATOM      5  C   UNL     1       7.224 107.717   2.597  0.00  0.00    +0.048 A 
ATOM      6  C   UNL     1       7.988 107.385   3.738  0.00  0.00    +0.116 A 
ATOM      7  N   UNL     1       9.173 108.040   3.992  0.00  0.00    -0.223 NA
ATOM      8  C   UNL     1       9.639 109.027   3.143  0.00  0.00    +0.220 A 
ATOM      9  N   UNL     1      10.824 109.704   3.384  0.00  0.00    -0.283 N 
ATOM     36  H   UNL     1      11.137 110.421   2.729  0.00  0.00    +0.155 HD
ATOM     37  N   UNL     1       8.928 109.361   2.046  0.00  0.00    -0.214 NA
BRANCH   4   3
ATOM      1  C   UNL     1       6.112 111.015  -1.004  0.00  0.00    +0.020 A 
ATOM      2  C   UNL     1       6.786 110.618   0.211  0.00  0.00    +0.013 A 
ATOM      3  C   UNL     1       7.041 109.212   0.497  0.00  0.00    +0.019 A 
ATOM     38  C   UNL     1       6.598 108.224  -0.475  0.00  0.00    +0.120 A 
ATOM     39  N   UNL     1       5.950 108.635  -1.636  0.00  0.00    -0.263 NA
ATOM     40  C   UNL     1       5.698 109.986  -1.921  0.00  0.00    +0.111 A 
ENDBRANCH   4   3
ENDBRANCH  10   9
BRANCH  12  13
ATOM     13  N   UNL     1      12.388 110.969   7.934  0.00  0.00    -0.281 N 
ATOM     14  C   UNL     1      12.856 112.272   7.989  0.00  0.00    +0.248 C 
ATOM     30  O   UNL     1      13.526 112.803   7.116  0.00  0.00    -0.270 OA
ATOM     31  H   UNL     1      12.013 110.591   8.804  0.00  0.00    +0.155 HD
BRANCH  14  15
ATOM     15  C   UNL     1      12.546 113.100   9.194  0.00  0.00    +0.037 A 
ATOM     16  C   UNL     1      13.489 113.201  10.310  0.00  0.00    +0.013 A 
ATOM     17  C   UNL     1      13.158 113.993  11.468  0.00  0.00    +0.005 A 
ATOM     18  C   UNL     1      11.877 114.693  11.514  0.00  0.00    -0.033 A 
ATOM     28  C   UNL     1      10.962 114.581  10.390  0.00  0.00    +0.005 A 
ATOM     29  C   UNL     1      11.282 113.804   9.254  0.00  0.00    +0.013 A 
BRANCH  18  19
ATOM     19  C   UNL     1      11.432 115.544  12.718  0.00  0.00    +0.119 C 
BRANCH  19  20
ATOM     20  N   UNL     1       9.968 115.605  13.008  0.00  0.00    -0.302 NA
ATOM     21  C   UNL     1       9.373 116.976  12.679  0.00  0.00    +0.066 C 
ATOM     22  C   UNL     1       7.837 117.015  12.967  0.00  0.00    -0.064 C 
ATOM     23  N   UNL     1       7.587 116.654  14.433  0.00  0.00    +0.379 N 
ATOM     24  C   UNL     1       6.149 116.746  14.722  0.00  0.00    -0.096 C 
ATOM     25  H   UNL     1       8.108 117.414  15.061  0.00  0.00    -0.082 HD
ATOM     26  C   UNL     1       8.178 115.293  14.770  0.00  0.00    -0.064 C 
ATOM     27  C   UNL     1       9.699 115.256  14.452  0.00  0.00    +0.066 C 
ENDBRANCH  19  20
ENDBRANCH  18  19
ENDBRANCH  14  15
ENDBRANCH  12  13
TORSDOF 6
ENDMDL
MODEL 2
REMARK VINA RESULT:      -8.8      1.594      2.278
REMARK  Name = C:\Users\Docking\Desktop\test protocol\1iep_ligandH.pdb
REMARK  8 active torsions:
REMARK  status: ('A' for Active; 'I' for Inactive)
REMARK    1  A    between atoms: _5  and  _11
REMARK    2  A    between atoms: _19  and  _21
REMARK    3  A    between atoms: _22  and  _66
REMARK    4  A    between atoms: _27  and  _30
REMARK    5  A    between atoms: _32  and  _33
REMARK    6  A    between atoms: _38  and  _43
REMARK    7  A    between atoms: _43  and  _46
REMARK    8  A    between atoms: _53  and  _55
REMARK                            x       y       z     vdW  Elec       q    Type
REMARK                         _______ _______ _______ _____ _____    ______ ____
ROOT
ATOM     10  C   UNL     1      11.636 109.378   4.503  0.00  0.00    +0.038 A 
ATOM     11  C   UNL     1      11.583 110.297   5.582  0.00  0.00    +0.047 A 
ATOM     12  C   UNL     1      12.340 110.067   6.803  0.00  0.00    +0.035 A 
ATOM     32  C   UNL     1      13.142 108.892   6.890  0.00  0.00    +0.024 A 
ATOM     33  C   UNL     1      13.207 107.948   5.802  0.00  0.00    +0.007 A 
ATOM     34  C   UNL     1      12.461 108.168   4.596  0.00  0.00    -0.029 A 
ATOM     35  C   UNL     1      12.563 107.118   3.465  0.00  0.00    +0.045 C 
ENDROOT
BRANCH  10   9
ATOM      4  C   UNL     1       7.814 108.696   1.681  0.00  0.00    +0.077 A 
ATOM      5  C   UNL     1       7.272 107.696   2.556  0.00  0.00    +0.048 A 
ATOM      6  C   UNL     1       8.012 107.382   3.718  0.00  0.00    +0.116 A 
ATOM      7  N   UNL     1       9.202 108.025   3.976  0.00  0.00    -0.223 NA
ATOM      8  C   UNL     1       9.697 108.983   3.110  0.00  0.00    +0.220 A 
ATOM      9  N   UNL     1      10.889 109.649   3.354  0.00  0.00    -0.283 N 
ATOM     36  H   UNL     1      11.224 110.344   2.687  0.00  0.00    +0.155 HD
ATOM     37  N   UNL     1       9.011 109.300   1.993  0.00  0.00    -0.214 NA
BRANCH   4   3
ATOM      1  C   UNL     1       6.167 110.907  -1.094  0.00  0.00    +0.020 A 
ATOM      2  C   UNL     1       6.809 110.531   0.144  0.00  0.00    +0.013 A 
ATOM      3  C   UNL     1       7.148 109.139   0.415  0.00  0.00    +0.019 A 
ATOM     38  C   UNL     1       6.821 108.145  -0.596  0.00  0.00    +0.120 A 
ATOM     39  N   UNL     1       6.201 108.536  -1.778  0.00  0.00    -0.263 NA
ATOM     40  C   UNL     1       5.869 109.872  -2.050  0.00  0.00    +0.111 A 
ENDBRANCH   4   3
ENDBRANCH  10   9
BRANCH  12  13
ATOM     13  N   UNL     1      12.319 110.959   7.935  0.00  0.00    -0.281 N 
ATOM     14  C   UNL     1      12.745 112.276   7.989  0.00  0.00    +0.248 C 
ATOM     30  O   UNL     1      13.411 112.823   7.123  0.00  0.00    -0.270 OA
ATOM     31  H   UNL     1      11.944 110.574   8.802  0.00  0.00    +0.155 HD
BRANCH  14  15
ATOM     15  C   UNL     1      12.394 113.100   9.186  0.00  0.00    +0.037 A 
ATOM     16  C   UNL     1      13.269 113.146  10.360  0.00  0.00    +0.013 A 
ATOM     17  C   UNL     1      12.898 113.936  11.508  0.00  0.00    +0.005 A 
ATOM     18  C   UNL     1      11.646 114.688  11.486  0.00  0.00    -0.033 A 
ATOM     28  C   UNL     1      10.800 114.629  10.305  0.00  0.00    +0.005 A 
ATOM     29  C   UNL     1      11.159 113.855   9.179  0.00  0.00    +0.013 A 
BRANCH  18  19
ATOM     19  C   UNL     1      11.161 115.540  12.673  0.00  0.00    +0.119 C 
BRANCH  19  20
ATOM     20  N   UNL     1      12.060 115.631  13.862  0.00  0.00    -0.302 NA
ATOM     21  C   UNL     1      11.688 114.614  14.944  0.00  0.00    +0.066 C 
ATOM     22  C   UNL     1      12.654 114.708  16.170  0.00  0.00    -0.064 C 
ATOM     23  N   UNL     1      12.623 116.131  16.731  0.00  0.00    +0.379 N 
ATOM     24  C   UNL     1      13.485 116.208  17.920  0.00  0.00    -0.096 C 
ATOM     25  H   UNL     1      11.578 116.343  17.057  0.00  0.00    -0.082 HD
ATOM     26  C   UNL     1      12.989 117.150  15.661  0.00  0.00    -0.064 C 
ATOM     27  C   UNL     1      12.042 117.027  14.435  0.00  0.00    +0.066 C 
ENDBRANCH  19  20
ENDBRANCH  18  19
ENDBRANCH  14  15
ENDBRANCH  12  13
TORSDOF 6
ENDMDL
MODEL 3
REMARK VINA RESULT:      -8.8      1.901     12.011
REMARK  Name = C:\Users\Docking\Desktop\test protocol\1iep_ligandH.pdb
REMARK  8 active torsions:
REMARK  status: ('A' for Active; 'I' for Inactive)
REMARK    1  A    between atoms: _5  and  _11
REMARK    2  A    between atoms: _19  and  _21
REMARK    3  A    between atoms: _22  and  _66
REMARK    4  A    between atoms: _27  and  _30
REMARK    5  A    between atoms: _32  and  _33
REMARK    6  A    between atoms: _38  and  _43
REMARK    7  A    between atoms: _43  and  _46
REMARK    8  A    between atoms: _53  and  _55
REMARK                            x       y       z     vdW  Elec       q    Type
REMARK                         _______ _______ _______ _____ _____    ______ ____
ROOT
ATOM     10  C   UNL     1      12.872 116.043  10.684  0.00  0.00    +0.038 A 
ATOM     11  C   UNL     1      12.751 114.946   9.793  0.00  0.00    +0.047 A 
ATOM     12  C   UNL     1      13.923 114.346   9.173  0.00  0.00    +0.035 A 
ATOM     32  C   UNL     1      15.204 114.888   9.486  0.00  0.00    +0.024 A 
ATOM     33  C   UNL     1      15.345 116.003  10.389  0.00  0.00    +0.007 A 
ATOM     34  C   UNL     1      14.193 116.600  11.001  0.00  0.00    -0.029 A 
ATOM     35  C   UNL     1      14.404 117.798  11.956  0.00  0.00    +0.045 C 
ENDROOT
BRANCH  10   9
ATOM      4  C   UNL     1       9.538 116.222  14.132  0.00  0.00    +0.077 A 
ATOM      5  C   UNL     1      10.139 115.136  14.852  0.00  0.00    +0.048 A 
ATOM      6  C   UNL     1      11.302 114.555  14.297  0.00  0.00    +0.116 A 
ATOM      7  N   UNL     1      11.816 115.032  13.111  0.00  0.00    -0.223 NA
ATOM      8  C   UNL     1      11.210 116.079  12.441  0.00  0.00    +0.220 A 
ATOM      9  N   UNL     1      11.714 116.579  11.250  0.00  0.00    -0.283 N 
ATOM     36  H   UNL     1      11.234 117.348  10.783  0.00  0.00    +0.155 HD
ATOM     37  N   UNL     1      10.098 116.650  12.949  0.00  0.00    -0.214 NA
BRANCH   4   3
ATOM      1  C   UNL     1       5.805 117.219  14.743  0.00  0.00    +0.020 A 
ATOM      2  C   UNL     1       6.960 116.487  14.274  0.00  0.00    +0.013 A 
ATOM      3  C   UNL     1       8.308 116.941  14.591  0.00  0.00    +0.019 A 
ATOM     38  C   UNL     1       8.454 118.148  15.390  0.00  0.00    +0.120 A 
ATOM     39  N   UNL     1       7.324 118.833  15.826  0.00  0.00    -0.263 NA
ATOM     40  C   UNL     1       6.022 118.406  15.526  0.00  0.00    +0.111 A 
ENDBRANCH   4   3
ENDBRANCH  10   9
BRANCH  12  13
ATOM     13  N   UNL     1      13.861 113.237   8.255  0.00  0.00    -0.281 N 
ATOM     14  C   UNL     1      13.099 112.085   8.361  0.00  0.00    +0.248 C 
ATOM     30  O   UNL     1      12.512 111.736   9.374  0.00  0.00    -0.270 OA
ATOM     31  H   UNL     1      14.450 113.309   7.426  0.00  0.00    +0.155 HD
BRANCH  14  15
ATOM     15  C   UNL     1      12.983 111.183   7.175  0.00  0.00    +0.037 A 
ATOM     16  C   UNL     1      13.070 111.709   5.810  0.00  0.00    +0.013 A 
ATOM     17  C   UNL     1      12.939 110.820   4.683  0.00  0.00    +0.005 A 
ATOM     18  C   UNL     1      12.720 109.394   4.917  0.00  0.00    -0.033 A 
ATOM     28  C   UNL     1      12.643 108.899   6.281  0.00  0.00    +0.005 A 
ATOM     29  C   UNL     1      12.771 109.768   7.388  0.00  0.00    +0.013 A 
BRANCH  18  19
ATOM     19  C   UNL     1      12.548 108.376   3.774  0.00  0.00    +0.119 C 
BRANCH  19  20
ATOM     20  N   UNL     1      11.267 108.419   3.007  0.00  0.00    -0.302 NA
ATOM     21  C   UNL     1      11.212 109.612   2.048  0.00  0.00    +0.066 C 
ATOM     22  C   UNL     1       9.875 109.629   1.238  0.00  0.00    -0.064 C 
ATOM     23  N   UNL     1       8.693 109.660   2.209  0.00  0.00    +0.379 N 
ATOM     24  C   UNL     1       7.436 109.735   1.450  0.00  0.00    -0.096 C 
ATOM     25  H   UNL     1       8.779 110.592   2.815  0.00  0.00    -0.082 HD
ATOM     26  C   UNL     1       8.742 108.479   3.168  0.00  0.00    -0.064 C 
ATOM     27  C   UNL     1      10.087 108.455   3.947  0.00  0.00    +0.066 C 
ENDBRANCH  19  20
ENDBRANCH  18  19
ENDBRANCH  14  15
ENDBRANCH  12  13
TORSDOF 6
ENDMDL
MODEL 4
REMARK VINA RESULT:      -8.8      2.361      3.046
REMARK  Name = C:\Users\Docking\Desktop\test protocol\1iep_ligandH.pdb
REMARK  8 active torsions:
REMARK  status: ('A' for Active; 'I' for Inactive)
REMARK    1  A    between atoms: _5  and  _11
REMARK    2  A    between atoms: _19  and  _21
REMARK    3  A    between atoms: _22  and  _66
REMARK    4  A    between atoms: _27  and  _30
REMARK    5  A    between atoms: _32  and  _33
REMARK    6  A    between atoms: _38  and  _43
REMARK    7  A    between atoms: _43  and  _46
REMARK    8  A    between atoms: _53  and  _55
REMARK                            x       y       z     vdW  Elec       q    Type
REMARK                         _______ _______ _______ _____ _____    ______ ____
ROOT
ATOM     10  C   UNL     1      10.711 110.204   3.313  0.00  0.00    +0.038 A 
ATOM     11  C   UNL     1      10.720 110.781   4.609  0.00  0.00    +0.047 A 
ATOM     12  C   UNL     1      11.940 110.838   5.399  0.00  0.00    +0.035 A 
ATOM     32  C   UNL     1      13.134 110.299   4.837  0.00  0.00    +0.024 A 
ATOM     33  C   UNL     1      13.143 109.707   3.523  0.00  0.00    +0.007 A 
ATOM     34  C   UNL     1      11.942 109.646   2.740  0.00  0.00    -0.029 A 
ATOM     35  C   UNL     1      12.008 108.995   1.339  0.00  0.00    +0.045 C 
ENDROOT
BRANCH  10   9
ATOM      4  C   UNL     1       6.487 108.211   2.209  0.00  0.00    +0.077 A 
ATOM      5  C   UNL     1       6.699 107.118   3.113  0.00  0.00    +0.048 A 
ATOM      6  C   UNL     1       7.912 107.102   3.838  0.00  0.00    +0.116 A 
ATOM      7  N   UNL     1       8.836 108.109   3.664  0.00  0.00    -0.223 NA
ATOM      8  C   UNL     1       8.600 109.149   2.783  0.00  0.00    +0.220 A 
ATOM      9  N   UNL     1       9.511 110.177   2.598  0.00  0.00    -0.283 N 
ATOM     36  H   UNL     1       9.304 110.921   1.934  0.00  0.00    +0.155 HD
ATOM     37  N   UNL     1       7.450 109.186   2.078  0.00  0.00    -0.214 NA
BRANCH   4   3
ATOM      1  C   UNL     1       2.865 109.106   1.032  0.00  0.00    +0.020 A 
ATOM      2  C   UNL     1       4.028 108.976   1.880  0.00  0.00    +0.013 A 
ATOM      3  C   UNL     1       5.254 108.370   1.375  0.00  0.00    +0.019 A 
ATOM     38  C   UNL     1       5.270 107.904  -0.003  0.00  0.00    +0.120 A 
ATOM     39  N   UNL     1       4.134 108.041  -0.796  0.00  0.00    -0.263 NA
ATOM     40  C   UNL     1       2.949 108.621  -0.320  0.00  0.00    +0.111 A 
ENDBRANCH   4   3
ENDBRANCH  10   9
BRANCH  12  13
ATOM     13  N   UNL     1      12.008 111.404   6.723  0.00  0.00    -0.281 N 
ATOM     14  C   UNL     1      12.739 112.505   7.142  0.00  0.00    +0.248 C 
ATOM     30  O   UNL     1      13.616 113.043   6.483  0.00  0.00    -0.270 OA
ATOM     31  H   UNL     1      11.451 110.938   7.438  0.00  0.00    +0.155 HD
BRANCH  14  15
ATOM     15  C   UNL     1      12.465 113.081   8.493  0.00  0.00    +0.037 A 
ATOM     16  C   UNL     1      13.420 112.926   9.594  0.00  0.00    +0.013 A 
ATOM     17  C   UNL     1      13.123 113.477  10.892  0.00  0.00    +0.005 A 
ATOM     18  C   UNL     1      11.865 114.191  11.097  0.00  0.00    -0.033 A 
ATOM     28  C   UNL     1      10.938 114.335   9.986  0.00  0.00    +0.005 A 
ATOM     29  C   UNL     1      11.225 113.795   8.713  0.00  0.00    +0.013 A 
BRANCH  18  19
ATOM     19  C   UNL     1      11.456 114.793  12.454  0.00  0.00    +0.119 C 
BRANCH  19  20
ATOM     20  N   UNL     1      12.480 114.786  13.541  0.00  0.00    -0.302 NA
ATOM     21  C   UNL     1      12.469 113.475  14.332  0.00  0.00    +0.066 C 
ATOM     22  C   UNL     1      13.561 113.476  15.451  0.00  0.00    -0.064 C 
ATOM     23  N   UNL     1      13.335 114.670  16.379  0.00  0.00    +0.379 N 
ATOM     24  C   UNL     1      14.325 114.642  17.466  0.00  0.00    -0.096 C 
ATOM     25  H   UNL     1      12.326 114.555  16.838  0.00  0.00    -0.082 HD
ATOM     26  C   UNL     1      13.342 115.978  15.601  0.00  0.00    -0.064 C 
ATOM     27  C   UNL     1      12.273 115.955  14.472  0.00  0.00    +0.066 C 
ENDBRANCH  19  20
ENDBRANCH  18  19
ENDBRANCH  14  15
ENDBRANCH  12  13
TORSDOF 6
ENDMDL
MODEL 5
REMARK VINA RESULT:      -8.7      1.617     11.827
REMARK  Name = C:\Users\Docking\Desktop\test protocol\1iep_ligandH.pdb
REMARK  8 active torsions:
REMARK  status: ('A' for Active; 'I' for Inactive)
REMARK    1  A    between atoms: _5  and  _11
REMARK    2  A    between atoms: _19  and  _21
REMARK    3  A    between atoms: _22  and  _66
REMARK    4  A    between atoms: _27  and  _30
REMARK    5  A    between atoms: _32  and  _33
REMARK    6  A    between atoms: _38  and  _43
REMARK    7  A    between atoms: _43  and  _46
REMARK    8  A    between atoms: _53  and  _55
REMARK                            x       y       z     vdW  Elec       q    Type
REMARK                         _______ _______ _______ _____ _____    ______ ____
ROOT
ATOM     10  C   UNL     1      11.901 113.776  10.659  0.00  0.00    +0.038 A 
ATOM     11  C   UNL     1      11.510 113.123   9.462  0.00  0.00    +0.047 A 
ATOM     12  C   UNL     1      12.500 112.629   8.517  0.00  0.00    +0.035 A 
ATOM     32  C   UNL     1      13.879 112.813   8.825  0.00  0.00    +0.024 A 
ATOM     33  C   UNL     1      14.294 113.475  10.037  0.00  0.00    +0.007 A 
ATOM     34  C   UNL     1      13.322 113.967  10.971  0.00  0.00    -0.029 A 
ATOM     35  C   UNL     1      13.824 114.674  12.252  0.00  0.00    +0.045 C 
ENDROOT
BRANCH  10   9
ATOM      4  C   UNL     1       8.707 117.059  12.092  0.00  0.00    +0.077 A 
ATOM      5  C   UNL     1       9.064 117.956  11.030  0.00  0.00    +0.048 A 
ATOM      6  C   UNL     1      10.079 117.537  10.141  0.00  0.00    +0.116 A 
ATOM      7  N   UNL     1      10.685 116.311  10.311  0.00  0.00    -0.223 NA
ATOM      8  C   UNL     1      10.318 115.471  11.346  0.00  0.00    +0.220 A 
ATOM      9  N   UNL     1      10.909 114.230  11.530  0.00  0.00    -0.283 N 
ATOM     36  H   UNL     1      10.615 113.643  12.311  0.00  0.00    +0.155 HD
ATOM     37  N   UNL     1       9.352 115.848  12.209  0.00  0.00    -0.214 NA
BRANCH   4   3
ATOM      1  C   UNL     1       6.046 116.675  14.933  0.00  0.00    +0.020 A 
ATOM      2  C   UNL     1       7.063 116.334  13.966  0.00  0.00    +0.013 A 
ATOM      3  C   UNL     1       7.650 117.358  13.110  0.00  0.00    +0.019 A 
ATOM     38  C   UNL     1       7.183 118.727  13.260  0.00  0.00    +0.120 A 
ATOM     39  N   UNL     1       6.201 119.026  14.199  0.00  0.00    -0.263 NA
ATOM     40  C   UNL     1       5.627 118.049  15.027  0.00  0.00    +0.111 A 
ENDBRANCH   4   3
ENDBRANCH  10   9
BRANCH  12  13
ATOM     13  N   UNL     1      12.163 111.966   7.282  0.00  0.00    -0.281 N 
ATOM     14  C   UNL     1      12.383 110.642   6.938  0.00  0.00    +0.248 C 
ATOM     30  O   UNL     1      13.100 109.875   7.564  0.00  0.00    -0.270 OA
ATOM     31  H   UNL     1      11.707 112.543   6.575  0.00  0.00    +0.155 HD
BRANCH  14  15
ATOM     15  C   UNL     1      11.723 110.095   5.714  0.00  0.00    +0.037 A 
ATOM     16  C   UNL     1      11.979 108.725   5.260  0.00  0.00    +0.013 A 
ATOM     17  C   UNL     1      11.342 108.228   4.067  0.00  0.00    +0.005 A 
ATOM     18  C   UNL     1      10.441 109.101   3.318  0.00  0.00    -0.033 A 
ATOM     28  C   UNL     1      10.201 110.454   3.793  0.00  0.00    +0.005 A 
ATOM     29  C   UNL     1      10.824 110.945   4.962  0.00  0.00    +0.013 A 
BRANCH  18  19
ATOM     19  C   UNL     1       9.735 108.661   2.022  0.00  0.00    +0.119 C 
BRANCH  19  20
ATOM     20  N   UNL     1       8.246 108.769   1.984  0.00  0.00    -0.302 NA
ATOM     21  C   UNL     1       7.565 107.478   2.446  0.00  0.00    +0.066 C 
ATOM     22  C   UNL     1       6.008 107.616   2.421  0.00  0.00    -0.064 C 
ATOM     23  N   UNL     1       5.554 107.993   1.010  0.00  0.00    +0.379 N 
ATOM     24  C   UNL     1       4.086 108.067   0.970  0.00  0.00    -0.096 C 
ATOM     25  H   UNL     1       5.871 107.174   0.323  0.00  0.00    -0.082 HD
ATOM     26  C   UNL     1       6.229 109.274   0.542  0.00  0.00    -0.064 C 
ATOM     27  C   UNL     1       7.776 109.137   0.598  0.00  0.00    +0.066 C 
ENDBRANCH  19  20
ENDBRANCH  18  19
ENDBRANCH  14  15
ENDBRANCH  12  13
TORSDOF 6
ENDMDL
