MODEL 1
REMARK VINA RESULT:      -8.9      0.000      0.000
REMARK  Name = C:\Users\Docking\Desktop\test protocol\1iep_ligandH.pdb
REMARK  8 active torsions:
REMARK  status: ('A' for Active; 'I' for Inactive)
REMARK    1  A    between atoms: _5  and  _11
REMARK    2  A    between atoms: _19  and  _21
REMARK    3  A    between atoms: _22  and  _66
REMARK    4  A    between atoms: _27  and  _30
REMARK    5  A    between atoms: _32  and  _33
REMARK    6  A    between atoms: _38  and  _43
REMARK    7  A    between atoms: _43  and  _46
REMARK    8  A    between atoms: _53  and  _55
REMARK                            x       y       z     vdW  Elec       q    Type
REMARK                         _______ _______ _______ _____ _____    ______ ____
ROOT
ATOM     10  C   UNL     1      16.418  16.815  -6.570  0.00  0.00    +0.038 A 
ATOM     11  C   UNL     1      16.005  15.530  -6.136  0.00  0.00    +0.047 A 
ATOM     12  C   UNL     1      14.831  15.361  -5.294  0.00  0.00    +0.035 A 
ATOM     32  C   UNL     1      14.099  16.524  -4.914  0.00  0.00    +0.024 A 
ATOM     33  C   UNL     1      14.505  17.838  -5.345  0.00  0.00    +0.007 A 
ATOM     34  C   UNL     1      15.664  18.011  -6.174  0.00  0.00    -0.029 A 
ATOM     35  C   UNL     1      16.057  19.444  -6.601  0.00  0.00    +0.045 C 
ENDROOT
BRANCH  10   9
ATOM      4  C   UNL     1      18.670  16.362 -10.784  0.00  0.00    +0.077 A 
ATOM      5  C   UNL     1      17.493  15.849 -11.425  0.00  0.00    +0.048 A 
ATOM      6  C   UNL     1      16.331  15.711 -10.633  0.00  0.00    +0.116 A 
ATOM      7  N   UNL     1      16.355  16.062  -9.301  0.00  0.00    -0.223 NA
ATOM      8  C   UNL     1      17.507  16.552  -8.713  0.00  0.00    +0.220 A 
ATOM      9  N   UNL     1      17.553  16.919  -7.377  0.00  0.00    -0.283 N 
ATOM     36  H   UNL     1      18.424  17.269  -6.980  0.00  0.00    +0.155 HD
ATOM     37  N   UNL     1      18.631  16.692  -9.448  0.00  0.00    -0.214 NA
BRANCH   4   3
ATOM      1  C   UNL     1      21.357  16.994 -13.555  0.00  0.00    +0.020 A 
ATOM      2  C   UNL     1      20.072  16.800 -12.924  0.00  0.00    +0.013 A 
ATOM      3  C   UNL     1      19.974  16.568 -11.488  0.00  0.00    +0.019 A 
ATOM     38  C   UNL     1      21.206  16.540 -10.714  0.00  0.00    +0.120 A 
ATOM     39  N   UNL     1      22.429  16.729 -11.349  0.00  0.00    -0.263 NA
ATOM     40  C   UNL     1      22.535  16.950 -12.730  0.00  0.00    +0.111 A 
ENDBRANCH   4   3
ENDBRANCH  10   9
BRANCH  12  13
ATOM     13  N   UNL     1      14.368  14.082  -4.816  0.00  0.00    -0.281 N 
ATOM     14  C   UNL     1      13.990  12.979  -5.565  0.00  0.00    +0.248 C 
ATOM     30  O   UNL     1      13.788  12.998  -6.770  0.00  0.00    -0.270 OA
ATOM     31  H   UNL     1      14.312  13.976  -3.803  0.00  0.00    +0.155 HD
BRANCH  14  15
ATOM     15  C   UNL     1      13.793  11.669  -4.872  0.00  0.00    +0.037 A 
ATOM     16  C   UNL     1      13.721  10.415  -5.626  0.00  0.00    +0.013 A 
ATOM     17  C   UNL     1      13.514   9.167  -4.934  0.00  0.00    +0.005 A 
ATOM     18  C   UNL     1      13.379   9.168  -3.480  0.00  0.00    -0.033 A 
ATOM     28  C   UNL     1      13.460  10.426  -2.757  0.00  0.00    +0.005 A 
ATOM     29  C   UNL     1      13.662  11.651  -3.431  0.00  0.00    +0.013 A 
BRANCH  18  19
ATOM     19  C   UNL     1      13.134   7.886  -2.661  0.00  0.00    +0.119 C 
BRANCH  19  20
ATOM     20  N   UNL     1      12.045   6.976  -3.126  0.00  0.00    -0.302 NA
ATOM     21  C   UNL     1      10.658   7.490  -2.728  0.00  0.00    +0.066 C 
ATOM     22  C   UNL     1       9.530   6.537  -3.241  0.00  0.00    -0.064 C 
ATOM     23  N   UNL     1       9.764   5.130  -2.690  0.00  0.00    +0.379 N 
ATOM     24  C   UNL     1       8.673   4.245  -3.123  0.00  0.00    -0.096 C 
ATOM     25  H   UNL     1       9.728   5.192  -1.577  0.00  0.00    -0.082 HD
ATOM     26  C   UNL     1      11.142   4.612  -3.078  0.00  0.00    -0.064 C 
ATOM     27  C   UNL     1      12.255   5.581  -2.589  0.00  0.00    +0.066 C 
ENDBRANCH  19  20
ENDBRANCH  18  19
ENDBRANCH  14  15
ENDBRANCH  12  13
TORSDOF 6
ENDMDL
MODEL 2
REMARK VINA RESULT:      -8.5      3.020      5.211
REMARK  Name = C:\Users\Docking\Desktop\test protocol\1iep_ligandH.pdb
REMARK  8 active torsions:
REMARK  status: ('A' for Active; 'I' for Inactive)
REMARK    1  A    between atoms: _5  and  _11
REMARK    2  A    between atoms: _19  and  _21
REMARK    3  A    between atoms: _22  and  _66
REMARK    4  A    between atoms: _27  and  _30
REMARK    5  A    between atoms: _32  and  _33
REMARK    6  A    between atoms: _38  and  _43
REMARK    7  A    between atoms: _43  and  _46
REMARK    8  A    between atoms: _53  and  _55
REMARK                            x       y       z     vdW  Elec       q    Type
REMARK                         _______ _______ _______ _____ _____    ______ ____
ROOT
ATOM     10  C   UNL     1      16.014  16.851  -7.323  0.00  0.00    +0.038 A 
ATOM     11  C   UNL     1      15.834  15.777  -6.414  0.00  0.00    +0.047 A 
ATOM     12  C   UNL     1      15.004  14.633  -6.756  0.00  0.00    +0.035 A 
ATOM     32  C   UNL     1      14.374  14.613  -8.034  0.00  0.00    +0.024 A 
ATOM     33  C   UNL     1      14.545  15.696  -8.970  0.00  0.00    +0.007 A 
ATOM     34  C   UNL     1      15.361  16.829  -8.638  0.00  0.00    -0.029 A 
ATOM     35  C   UNL     1      15.505  17.964  -9.678  0.00  0.00    +0.045 C 
ENDROOT
BRANCH  10   9
ATOM      4  C   UNL     1      16.791  20.902  -4.870  0.00  0.00    +0.077 A 
ATOM      5  C   UNL     1      15.466  20.894  -4.321  0.00  0.00    +0.048 A 
ATOM      6  C   UNL     1      14.613  19.833  -4.700  0.00  0.00    +0.116 A 
ATOM      7  N   UNL     1      15.063  18.859  -5.565  0.00  0.00    -0.223 NA
ATOM      8  C   UNL     1      16.346  18.898  -6.078  0.00  0.00    +0.220 A 
ATOM      9  N   UNL     1      16.822  17.925  -6.943  0.00  0.00    -0.283 N 
ATOM     36  H   UNL     1      17.773  17.993  -7.305  0.00  0.00    +0.155 HD
ATOM     37  N   UNL     1      17.180  19.901  -5.732  0.00  0.00    -0.214 NA
BRANCH   4   3
ATOM      1  C   UNL     1      18.814  23.728  -3.074  0.00  0.00    +0.020 A 
ATOM      2  C   UNL     1      17.807  22.722  -3.323  0.00  0.00    +0.013 A 
ATOM      3  C   UNL     1      17.810  21.955  -4.562  0.00  0.00    +0.019 A 
ATOM     38  C   UNL     1      18.856  22.231  -5.536  0.00  0.00    +0.120 A 
ATOM     39  N   UNL     1      19.812  23.206  -5.269  0.00  0.00    -0.263 NA
ATOM     40  C   UNL     1      19.817  23.952  -4.081  0.00  0.00    +0.111 A 
ENDBRANCH   4   3
ENDBRANCH  10   9
BRANCH  12  13
ATOM     13  N   UNL     1      14.777  13.518  -5.870  0.00  0.00    -0.281 N 
ATOM     14  C   UNL     1      13.634  13.224  -5.146  0.00  0.00    +0.248 C 
ATOM     30  O   UNL     1      12.701  13.997  -4.983  0.00  0.00    -0.270 OA
ATOM     31  H   UNL     1      15.554  12.865  -5.765  0.00  0.00    +0.155 HD
BRANCH  14  15
ATOM     15  C   UNL     1      13.515  11.883  -4.496  0.00  0.00    +0.037 A 
ATOM     16  C   UNL     1      13.249  11.755  -3.061  0.00  0.00    +0.013 A 
ATOM     17  C   UNL     1      13.156  10.450  -2.456  0.00  0.00    +0.005 A 
ATOM     18  C   UNL     1      13.328   9.262  -3.288  0.00  0.00    -0.033 A 
ATOM     28  C   UNL     1      13.586   9.417  -4.710  0.00  0.00    +0.005 A 
ATOM     29  C   UNL     1      13.678  10.695  -5.306  0.00  0.00    +0.013 A 
BRANCH  18  19
ATOM     19  C   UNL     1      13.266   7.830  -2.724  0.00  0.00    +0.119 C 
BRANCH  19  20
ATOM     20  N   UNL     1      12.130   6.968  -3.168  0.00  0.00    -0.302 NA
ATOM     21  C   UNL     1      10.787   7.467  -2.628  0.00  0.00    +0.066 C 
ATOM     22  C   UNL     1       9.606   6.567  -3.120  0.00  0.00    -0.064 C 
ATOM     23  N   UNL     1       9.859   5.120  -2.693  0.00  0.00    +0.379 N 
ATOM     24  C   UNL     1       8.723   4.282  -3.104  0.00  0.00    -0.096 C 
ATOM     25  H   UNL     1       9.909   5.101  -1.579  0.00  0.00    -0.082 HD
ATOM     26  C   UNL     1      11.194   4.618  -3.223  0.00  0.00    -0.064 C 
ATOM     27  C   UNL     1      12.357   5.536  -2.752  0.00  0.00    +0.066 C 
ENDBRANCH  19  20
ENDBRANCH  18  19
ENDBRANCH  14  15
ENDBRANCH  12  13
TORSDOF 6
ENDMDL
MODEL 3
REMARK VINA RESULT:      -8.4      3.514     14.780
REMARK  Name = C:\Users\Docking\Desktop\test protocol\1iep_ligandH.pdb
REMARK  8 active torsions:
REMARK  status: ('A' for Active; 'I' for Inactive)
REMARK    1  A    between atoms: _5  and  _11
REMARK    2  A    between atoms: _19  and  _21
REMARK    3  A    between atoms: _22  and  _66
REMARK    4  A    between atoms: _27  and  _30
REMARK    5  A    between atoms: _32  and  _33
REMARK    6  A    between atoms: _38  and  _43
REMARK    7  A    between atoms: _43  and  _46
REMARK    8  A    between atoms: _53  and  _55
REMARK                            x       y       z     vdW  Elec       q    Type
REMARK                         _______ _______ _______ _____ _____    ______ ____
ROOT
ATOM     10  C   UNL     1      12.257   5.062  -3.293  0.00  0.00    +0.038 A 
ATOM     11  C   UNL     1      12.240   6.443  -3.617  0.00  0.00    +0.047 A 
ATOM     12  C   UNL     1      13.208   7.012  -4.541  0.00  0.00    +0.035 A 
ATOM     32  C   UNL     1      14.179   6.144  -5.121  0.00  0.00    +0.024 A 
ATOM     33  C   UNL     1      14.212   4.738  -4.802  0.00  0.00    +0.007 A 
ATOM     34  C   UNL     1      13.261   4.172  -3.889  0.00  0.00    -0.029 A 
ATOM     35  C   UNL     1      13.347   2.660  -3.579  0.00  0.00    +0.045 C 
ENDROOT
BRANCH  10   9
ATOM      4  C   UNL     1       7.976   3.127  -2.313  0.00  0.00    +0.077 A 
ATOM      5  C   UNL     1       7.595   3.121  -3.696  0.00  0.00    +0.048 A 
ATOM      6  C   UNL     1       8.527   3.632  -4.627  0.00  0.00    +0.116 A 
ATOM      7  N   UNL     1       9.746   4.109  -4.196  0.00  0.00    -0.223 NA
ATOM      8  C   UNL     1      10.081   4.102  -2.854  0.00  0.00    +0.220 A 
ATOM      9  N   UNL     1      11.304   4.570  -2.399  0.00  0.00    -0.283 N 
ATOM     36  H   UNL     1      11.510   4.554  -1.401  0.00  0.00    +0.155 HD
ATOM     37  N   UNL     1       9.207   3.621  -1.945  0.00  0.00    -0.214 NA
BRANCH   4   3
ATOM      1  C   UNL     1       6.712   1.846   1.160  0.00  0.00    +0.020 A 
ATOM      2  C   UNL     1       7.599   2.336   0.131  0.00  0.00    +0.013 A 
ATOM      3  C   UNL     1       7.101   2.618  -1.210  0.00  0.00    +0.019 A 
ATOM     38  C   UNL     1       5.688   2.392  -1.478  0.00  0.00    +0.120 A 
ATOM     39  N   UNL     1       4.858   1.918  -0.467  0.00  0.00    -0.263 NA
ATOM     40  C   UNL     1       5.327   1.642   0.827  0.00  0.00    +0.111 A 
ENDBRANCH   4   3
ENDBRANCH  10   9
BRANCH  12  13
ATOM     13  N   UNL     1      13.244   8.408  -4.901  0.00  0.00    -0.281 N 
ATOM     14  C   UNL     1      13.546   9.489  -4.089  0.00  0.00    +0.248 C 
ATOM     30  O   UNL     1      13.623   9.438  -2.871  0.00  0.00    -0.270 OA
ATOM     31  H   UNL     1      13.020   8.625  -5.872  0.00  0.00    +0.155 HD
BRANCH  14  15
ATOM     15  C   UNL     1      13.782  10.823  -4.721  0.00  0.00    +0.037 A 
ATOM     16  C   UNL     1      13.795  12.051  -3.922  0.00  0.00    +0.013 A 
ATOM     17  C   UNL     1      14.008  13.326  -4.560  0.00  0.00    +0.005 A 
ATOM     18  C   UNL     1      14.212  13.379  -6.005  0.00  0.00    -0.033 A 
ATOM     28  C   UNL     1      14.200  12.145  -6.773  0.00  0.00    +0.005 A 
ATOM     29  C   UNL     1      13.991  10.893  -6.152  0.00  0.00    +0.013 A 
BRANCH  18  19
ATOM     19  C   UNL     1      14.426  14.697  -6.772  0.00  0.00    +0.119 C 
BRANCH  19  20
ATOM     20  N   UNL     1      15.507  15.605  -6.283  0.00  0.00    -0.302 NA
ATOM     21  C   UNL     1      15.005  16.566  -5.203  0.00  0.00    +0.066 C 
ATOM     22  C   UNL     1      16.154  17.493  -4.687  0.00  0.00    -0.064 C 
ATOM     23  N   UNL     1      16.749  18.266  -5.865  0.00  0.00    +0.379 N 
ATOM     24  C   UNL     1      17.791  19.181  -5.375  0.00  0.00    -0.096 C 
ATOM     25  H   UNL     1      15.936  18.885  -6.309  0.00  0.00    -0.082 HD
ATOM     26  C   UNL     1      17.249  17.317  -6.946  0.00  0.00    -0.064 C 
ATOM     27  C   UNL     1      16.107  16.381  -7.430  0.00  0.00    +0.066 C 
ENDBRANCH  19  20
ENDBRANCH  18  19
ENDBRANCH  14  15
ENDBRANCH  12  13
TORSDOF 6
ENDMDL
MODEL 4
REMARK VINA RESULT:      -8.2      3.967     13.503
REMARK  Name = C:\Users\Docking\Desktop\test protocol\1iep_ligandH.pdb
REMARK  8 active torsions:
REMARK  status: ('A' for Active; 'I' for Inactive)
REMARK    1  A    between atoms: _5  and  _11
REMARK    2  A    between atoms: _19  and  _21
REMARK    3  A    between atoms: _22  and  _66
REMARK    4  A    between atoms: _27  and  _30
REMARK    5  A    between atoms: _32  and  _33
REMARK    6  A    between atoms: _38  and  _43
REMARK    7  A    between atoms: _43  and  _46
REMARK    8  A    between atoms: _53  and  _55
REMARK                            x       y       z     vdW  Elec       q    Type
REMARK                         _______ _______ _______ _____ _____    ______ ____
ROOT
ATOM     10  C   UNL     1      12.130   5.343  -2.855  0.00  0.00    +0.038 A 
ATOM     11  C   UNL     1      12.797   6.543  -3.210  0.00  0.00    +0.047 A 
ATOM     12  C   UNL     1      12.064   7.682  -3.741  0.00  0.00    +0.035 A 
ATOM     32  C   UNL     1      10.652   7.565  -3.895  0.00  0.00    +0.024 A 
ATOM     33  C   UNL     1       9.958   6.352  -3.541  0.00  0.00    +0.007 A 
ATOM     34  C   UNL     1      10.676   5.224  -3.019  0.00  0.00    -0.029 A 
ATOM     35  C   UNL     1       9.881   3.946  -2.661  0.00  0.00    +0.045 C 
ENDROOT
BRANCH  10   9
ATOM      4  C   UNL     1      14.885   1.455  -3.434  0.00  0.00    +0.077 A 
ATOM      5  C   UNL     1      14.794   1.531  -4.863  0.00  0.00    +0.048 A 
ATOM      6  C   UNL     1      14.023   2.582  -5.410  0.00  0.00    +0.116 A 
ATOM      7  N   UNL     1      13.394   3.483  -4.579  0.00  0.00    -0.223 NA
ATOM      8  C   UNL     1      13.501   3.380  -3.204  0.00  0.00    +0.220 A 
ATOM      9  N   UNL     1      12.883   4.281  -2.350  0.00  0.00    -0.283 N 
ATOM     36  H   UNL     1      12.980   4.166  -1.341  0.00  0.00    +0.155 HD
ATOM     37  N   UNL     1      14.230   2.385  -2.658  0.00  0.00    -0.214 NA
BRANCH   4   3
ATOM      1  C   UNL     1      17.813  -0.782  -2.122  0.00  0.00    +0.020 A 
ATOM      2  C   UNL     1      17.107   0.249  -2.847  0.00  0.00    +0.013 A 
ATOM      3  C   UNL     1      15.665   0.404  -2.706  0.00  0.00    +0.019 A 
ATOM     38  C   UNL     1      14.961  -0.506  -1.816  0.00  0.00    +0.120 A 
ATOM     39  N   UNL     1      15.667  -1.490  -1.131  0.00  0.00    -0.263 NA
ATOM     40  C   UNL     1      17.055  -1.651  -1.260  0.00  0.00    +0.111 A 
ENDBRANCH   4   3
ENDBRANCH  10   9
BRANCH  12  13
ATOM     13  N   UNL     1      12.688   8.924  -4.127  0.00  0.00    -0.281 N 
ATOM     14  C   UNL     1      13.438   9.184  -5.262  0.00  0.00    +0.248 C 
ATOM     30  O   UNL     1      13.867   8.325  -6.018  0.00  0.00    -0.270 OA
ATOM     31  H   UNL     1      12.561   9.706  -3.484  0.00  0.00    +0.155 HD
BRANCH  14  15
ATOM     15  C   UNL     1      13.771  10.601  -5.598  0.00  0.00    +0.037 A 
ATOM     16  C   UNL     1      13.804  11.640  -4.565  0.00  0.00    +0.013 A 
ATOM     17  C   UNL     1      14.112  13.003  -4.920  0.00  0.00    +0.005 A 
ATOM     18  C   UNL     1      14.390  13.335  -6.315  0.00  0.00    -0.033 A 
ATOM     28  C   UNL     1      14.355  12.284  -7.319  0.00  0.00    +0.005 A 
ATOM     29  C   UNL     1      14.053  10.947  -6.975  0.00  0.00    +0.013 A 
BRANCH  18  19
ATOM     19  C   UNL     1      14.707  14.766  -6.787  0.00  0.00    +0.119 C 
BRANCH  19  20
ATOM     20  N   UNL     1      15.236  15.721  -5.768  0.00  0.00    -0.302 NA
ATOM     21  C   UNL     1      14.230  16.827  -5.439  0.00  0.00    +0.066 C 
ATOM     22  C   UNL     1      14.791  17.804  -4.355  0.00  0.00    -0.064 C 
ATOM     23  N   UNL     1      16.111  18.401  -4.845  0.00  0.00    +0.379 N 
ATOM     24  C   UNL     1      16.612  19.364  -3.853  0.00  0.00    -0.096 C 
ATOM     25  H   UNL     1      15.900  18.962  -5.785  0.00  0.00    -0.082 HD
ATOM     26  C   UNL     1      17.117  17.308  -5.177  0.00  0.00    -0.064 C 
ATOM     27  C   UNL     1      16.538  16.326  -6.233  0.00  0.00    +0.066 C 
ENDBRANCH  19  20
ENDBRANCH  18  19
ENDBRANCH  14  15
ENDBRANCH  12  13
TORSDOF 6
ENDMDL
MODEL 5
REMARK VINA RESULT:      -8.1     20.755     26.176
REMARK  Name = C:\Users\Docking\Desktop\test protocol\1iep_ligandH.pdb
REMARK  8 active torsions:
REMARK  status: ('A' for Active; 'I' for Inactive)
REMARK    1  A    between atoms: _5  and  _11
REMARK    2  A    between atoms: _19  and  _21
REMARK    3  A    between atoms: _22  and  _66
REMARK    4  A    between atoms: _27  and  _30
REMARK    5  A    between atoms: _32  and  _33
REMARK    6  A    between atoms: _38  and  _43
REMARK    7  A    between atoms: _43  and  _46
REMARK    8  A    between atoms: _53  and  _55
REMARK                            x       y       z     vdW  Elec       q    Type
REMARK                         _______ _______ _______ _____ _____    ______ ____
ROOT
ATOM     10  C   UNL     1      19.625  -7.163   3.651  0.00  0.00    +0.038 A 
ATOM     11  C   UNL     1      19.683  -7.764   4.934  0.00  0.00    +0.047 A 
ATOM     12  C   UNL     1      18.496  -8.336   5.552  0.00  0.00    +0.035 A 
ATOM     32  C   UNL     1      17.267  -8.279   4.832  0.00  0.00    +0.024 A 
ATOM     33  C   UNL     1      17.190  -7.671   3.527  0.00  0.00    +0.007 A 
ATOM     34  C   UNL     1      18.357  -7.103   2.914  0.00  0.00    -0.029 A 
ATOM     35  C   UNL     1      18.215  -6.458   1.516  0.00  0.00    +0.045 C 
ENDROOT
BRANCH  10   9
ATOM      4  C   UNL     1      22.641  -3.517   2.846  0.00  0.00    +0.077 A 
ATOM      5  C   UNL     1      21.801  -2.590   3.547  0.00  0.00    +0.048 A 
ATOM      6  C   UNL     1      20.598  -3.089   4.094  0.00  0.00    +0.116 A 
ATOM      7  N   UNL     1      20.270  -4.419   3.945  0.00  0.00    -0.223 NA
ATOM      8  C   UNL     1      21.102  -5.287   3.261  0.00  0.00    +0.220 A 
ATOM      9  N   UNL     1      20.796  -6.630   3.106  0.00  0.00    -0.283 N 
ATOM     36  H   UNL     1      21.432  -7.236   2.589  0.00  0.00    +0.155 HD
ATOM     37  N   UNL     1      22.256  -4.834   2.728  0.00  0.00    -0.214 NA
BRANCH   4   3
ATOM      1  C   UNL     1      26.376  -2.472   2.331  0.00  0.00    +0.020 A 
ATOM      2  C   UNL     1      25.140  -2.829   2.990  0.00  0.00    +0.013 A 
ATOM      3  C   UNL     1      23.946  -3.142   2.215  0.00  0.00    +0.019 A 
ATOM     38  C   UNL     1      24.037  -3.084   0.763  0.00  0.00    +0.120 A 
ATOM     39  N   UNL     1      25.240  -2.736   0.157  0.00  0.00    -0.263 NA
ATOM     40  C   UNL     1      26.395  -2.432   0.893  0.00  0.00    +0.111 A 
ENDBRANCH   4   3
ENDBRANCH  10   9
BRANCH  12  13
ATOM     13  N   UNL     1      18.492  -8.952   6.855  0.00  0.00    -0.281 N 
ATOM     14  C   UNL     1      18.836 -10.253   7.183  0.00  0.00    +0.248 C 
ATOM     30  O   UNL     1      18.998 -11.151   6.370  0.00  0.00    -0.270 OA
ATOM     31  H   UNL     1      18.199  -8.357   7.630  0.00  0.00    +0.155 HD
BRANCH  14  15
ATOM     15  C   UNL     1      19.014 -10.612   8.623  0.00  0.00    +0.037 A 
ATOM     16  C   UNL     1      20.343 -10.861   9.186  0.00  0.00    +0.013 A 
ATOM     17  C   UNL     1      20.485 -11.223  10.574  0.00  0.00    +0.005 A 
ATOM     18  C   UNL     1      19.292 -11.335  11.410  0.00  0.00    -0.033 A 
ATOM     28  C   UNL     1      17.985 -11.076  10.827  0.00  0.00    +0.005 A 
ATOM     29  C   UNL     1      17.843 -10.723   9.467  0.00  0.00    +0.013 A 
BRANCH  18  19
ATOM     19  C   UNL     1      19.346 -11.735  12.896  0.00  0.00    +0.119 C 
BRANCH  19  20
ATOM     20  N   UNL     1      19.350 -13.195  13.211  0.00  0.00    -0.302 NA
ATOM     21  C   UNL     1      20.454 -13.566  14.205  0.00  0.00    +0.066 C 
ATOM     22  C   UNL     1      20.429 -15.093  14.541  0.00  0.00    -0.064 C 
ATOM     23  N   UNL     1      20.570 -15.898  13.248  0.00  0.00    +0.379 N 
ATOM     24  C   UNL     1      20.605 -17.333  13.566  0.00  0.00    -0.096 C 
ATOM     25  H   UNL     1      21.549 -15.630  12.788  0.00  0.00    -0.082 HD
ATOM     26  C   UNL     1      19.477 -15.534  12.253  0.00  0.00    -0.064 C 
ATOM     27  C   UNL     1      19.493 -14.010  11.949  0.00  0.00    +0.066 C 
ENDBRANCH  19  20
ENDBRANCH  18  19
ENDBRANCH  14  15
ENDBRANCH  12  13
TORSDOF 6
ENDMDL
