MODEL 1
REMARK VINA RESULT:     -10.4      0.000      0.000
REMARK  Name = C:\Users\Docking\Desktop\test protocol\1iep_ligandH.pdb
REMARK  8 active torsions:
REMARK  status: ('A' for Active; 'I' for Inactive)
REMARK    1  A    between atoms: _5  and  _11
REMARK    2  A    between atoms: _19  and  _21
REMARK    3  A    between atoms: _22  and  _66
REMARK    4  A    between atoms: _27  and  _30
REMARK    5  A    between atoms: _32  and  _33
REMARK    6  A    between atoms: _38  and  _43
REMARK    7  A    between atoms: _43  and  _46
REMARK    8  A    between atoms: _53  and  _55
REMARK                            x       y       z     vdW  Elec       q    Type
REMARK                         _______ _______ _______ _____ _____    ______ ____
ROOT
ATOM     10  C   UNL     1       2.958   8.760  35.347  0.00  0.00    +0.038 A 
ATOM     11  C   UNL     1       3.722   7.572  35.477  0.00  0.00    +0.047 A 
ATOM     12  C   UNL     1       3.806   6.609  34.390  0.00  0.00    +0.035 A 
ATOM     32  C   UNL     1       3.102   6.889  33.183  0.00  0.00    +0.024 A 
ATOM     33  C   UNL     1       2.320   8.091  33.034  0.00  0.00    +0.007 A 
ATOM     34  C   UNL     1       2.231   9.044  34.104  0.00  0.00    -0.029 A 
ATOM     35  C   UNL     1       1.373  10.313  33.891  0.00  0.00    +0.045 C 
ENDROOT
BRANCH  10   9
ATOM      4  C   UNL     1       5.079  11.461  38.700  0.00  0.00    +0.077 A 
ATOM      5  C   UNL     1       6.390  11.043  38.292  0.00  0.00    +0.048 A 
ATOM      6  C   UNL     1       6.474  10.127  37.220  0.00  0.00    +0.116 A 
ATOM      7  N   UNL     1       5.327   9.669  36.608  0.00  0.00    -0.223 NA
ATOM      8  C   UNL     1       4.078  10.091  37.028  0.00  0.00    +0.220 A 
ATOM      9  N   UNL     1       2.912   9.650  36.423  0.00  0.00    -0.283 N 
ATOM     36  H   UNL     1       2.010   9.979  36.766  0.00  0.00    +0.155 HD
ATOM     37  N   UNL     1       3.971  10.965  38.050  0.00  0.00    -0.214 NA
BRANCH   4   3
ATOM      1  C   UNL     1       3.462  14.214  40.959  0.00  0.00    +0.020 A 
ATOM      2  C   UNL     1       3.659  13.299  39.859  0.00  0.00    +0.013 A 
ATOM      3  C   UNL     1       4.827  12.428  39.815  0.00  0.00    +0.019 A 
ATOM     38  C   UNL     1       5.782  12.507  40.909  0.00  0.00    +0.120 A 
ATOM     39  N   UNL     1       5.567  13.399  41.955  0.00  0.00    -0.263 NA
ATOM     40  C   UNL     1       4.448  14.244  42.007  0.00  0.00    +0.111 A 
ENDBRANCH   4   3
ENDBRANCH  10   9
BRANCH  12  13
ATOM     13  N   UNL     1       4.559   5.381  34.468  0.00  0.00    -0.281 N 
ATOM     14  C   UNL     1       4.097   4.118  34.799  0.00  0.00    +0.248 C 
ATOM     30  O   UNL     1       3.001   3.890  35.290  0.00  0.00    -0.270 OA
ATOM     31  H   UNL     1       5.553   5.453  34.252  0.00  0.00    +0.155 HD
BRANCH  14  15
ATOM     15  C   UNL     1       4.986   2.940  34.565  0.00  0.00    +0.037 A 
ATOM     16  C   UNL     1       5.380   2.054  35.664  0.00  0.00    +0.013 A 
ATOM     17  C   UNL     1       6.252   0.934  35.413  0.00  0.00    +0.005 A 
ATOM     18  C   UNL     1       6.735   0.693  34.056  0.00  0.00    -0.033 A 
ATOM     28  C   UNL     1       6.325   1.584  32.983  0.00  0.00    +0.005 A 
ATOM     29  C   UNL     1       5.471   2.683  33.225  0.00  0.00    +0.013 A 
BRANCH  18  19
ATOM     19  C   UNL     1       7.686  -0.466  33.701  0.00  0.00    +0.119 C 
BRANCH  19  20
ATOM     20  N   UNL     1       8.123  -0.579  32.277  0.00  0.00    -0.302 NA
ATOM     21  C   UNL     1       8.111  -2.030  31.787  0.00  0.00    +0.066 C 
ATOM     22  C   UNL     1       8.550  -2.128  30.289  0.00  0.00    -0.064 C 
ATOM     23  N   UNL     1       9.941  -1.512  30.127  0.00  0.00    +0.379 N 
ATOM     24  C   UNL     1      10.380  -1.655  28.731  0.00  0.00    -0.096 C 
ATOM     25  H   UNL     1      10.645  -2.096  30.765  0.00  0.00    -0.082 HD
ATOM     26  C   UNL     1       9.962  -0.071  30.615  0.00  0.00    -0.064 C 
ATOM     27  C   UNL     1       9.497   0.019  32.095  0.00  0.00    +0.066 C 
ENDBRANCH  19  20
ENDBRANCH  18  19
ENDBRANCH  14  15
ENDBRANCH  12  13
TORSDOF 6
ENDMDL
MODEL 2
REMARK VINA RESULT:     -10.1      2.297     13.314
REMARK  Name = C:\Users\Docking\Desktop\test protocol\1iep_ligandH.pdb
REMARK  8 active torsions:
REMARK  status: ('A' for Active; 'I' for Inactive)
REMARK    1  A    between atoms: _5  and  _11
REMARK    2  A    between atoms: _19  and  _21
REMARK    3  A    between atoms: _22  and  _66
REMARK    4  A    between atoms: _27  and  _30
REMARK    5  A    between atoms: _32  and  _33
REMARK    6  A    between atoms: _38  and  _43
REMARK    7  A    between atoms: _43  and  _46
REMARK    8  A    between atoms: _53  and  _55
REMARK                            x       y       z     vdW  Elec       q    Type
REMARK                         _______ _______ _______ _____ _____    ______ ____
ROOT
ATOM     10  C   UNL     1       9.448   1.012  35.449  0.00  0.00    +0.038 A 
ATOM     11  C   UNL     1       8.767   2.256  35.409  0.00  0.00    +0.047 A 
ATOM     12  C   UNL     1       7.911   2.681  36.505  0.00  0.00    +0.035 A 
ATOM     32  C   UNL     1       7.772   1.815  37.629  0.00  0.00    +0.024 A 
ATOM     33  C   UNL     1       8.456   0.547  37.686  0.00  0.00    +0.007 A 
ATOM     34  C   UNL     1       9.300   0.121  36.606  0.00  0.00    -0.029 A 
ATOM     35  C   UNL     1      10.004  -1.251  36.718  0.00  0.00    +0.045 C 
ENDROOT
BRANCH  10   9
ATOM      4  C   UNL     1      10.066  -0.697  31.006  0.00  0.00    +0.077 A 
ATOM      5  C   UNL     1       8.660  -0.920  30.833  0.00  0.00    +0.048 A 
ATOM      6  C   UNL     1       7.812  -0.589  31.914  0.00  0.00    +0.116 A 
ATOM      7  N   UNL     1       8.342  -0.073  33.076  0.00  0.00    -0.223 NA
ATOM      8  C   UNL     1       9.704   0.129  33.211  0.00  0.00    +0.220 A 
ATOM      9  N   UNL     1      10.257   0.654  34.368  0.00  0.00    -0.283 N 
ATOM     36  H   UNL     1      11.267   0.781  34.431  0.00  0.00    +0.155 HD
ATOM     37  N   UNL     1      10.534  -0.181  32.194  0.00  0.00    -0.214 NA
BRANCH   4   3
ATOM      1  C   UNL     1      13.443  -0.943  29.047  0.00  0.00    +0.020 A 
ATOM      2  C   UNL     1      12.495  -0.633  30.093  0.00  0.00    +0.013 A 
ATOM      3  C   UNL     1      11.090  -0.993  29.954  0.00  0.00    +0.019 A 
ATOM     38  C   UNL     1      10.673  -1.672  28.737  0.00  0.00    +0.120 A 
ATOM     39  N   UNL     1      11.607  -1.956  27.746  0.00  0.00    -0.263 NA
ATOM     40  C   UNL     1      12.962  -1.613  27.868  0.00  0.00    +0.111 A 
ENDBRANCH   4   3
ENDBRANCH  10   9
BRANCH  12  13
ATOM     13  N   UNL     1       7.188   3.928  36.516  0.00  0.00    -0.281 N 
ATOM     14  C   UNL     1       6.083   4.280  35.758  0.00  0.00    +0.248 C 
ATOM     30  O   UNL     1       5.676   3.647  34.795  0.00  0.00    -0.270 OA
ATOM     31  H   UNL     1       7.533   4.639  37.162  0.00  0.00    +0.155 HD
BRANCH  14  15
ATOM     15  C   UNL     1       5.330   5.521  36.112  0.00  0.00    +0.037 A 
ATOM     16  C   UNL     1       4.908   6.473  35.081  0.00  0.00    +0.013 A 
ATOM     17  C   UNL     1       4.198   7.672  35.451  0.00  0.00    +0.005 A 
ATOM     18  C   UNL     1       3.904   7.924  36.860  0.00  0.00    -0.033 A 
ATOM     28  C   UNL     1       4.330   6.960  37.861  0.00  0.00    +0.005 A 
ATOM     29  C   UNL     1       5.027   5.785  37.502  0.00  0.00    +0.013 A 
BRANCH  18  19
ATOM     19  C   UNL     1       3.169   9.187  37.348  0.00  0.00    +0.119 C 
BRANCH  19  20
ATOM     20  N   UNL     1       3.972  10.197  38.100  0.00  0.00    -0.302 NA
ATOM     21  C   UNL     1       3.265  11.554  38.172  0.00  0.00    +0.066 C 
ATOM     22  C   UNL     1       4.108  12.592  38.982  0.00  0.00    -0.064 C 
ATOM     23  N   UNL     1       5.489  12.735  38.340  0.00  0.00    +0.379 N 
ATOM     24  C   UNL     1       6.264  13.753  39.064  0.00  0.00    -0.096 C 
ATOM     25  H   UNL     1       5.341  13.100  37.297  0.00  0.00    -0.082 HD
ATOM     26  C   UNL     1       6.198  11.390  38.261  0.00  0.00    -0.064 C 
ATOM     27  C   UNL     1       5.338  10.357  37.480  0.00  0.00    +0.066 C 
ENDBRANCH  19  20
ENDBRANCH  18  19
ENDBRANCH  14  15
ENDBRANCH  12  13
TORSDOF 6
ENDMDL
MODEL 3
REMARK VINA RESULT:     -10.1      1.752      2.515
REMARK  Name = C:\Users\Docking\Desktop\test protocol\1iep_ligandH.pdb
REMARK  8 active torsions:
REMARK  status: ('A' for Active; 'I' for Inactive)
REMARK    1  A    between atoms: _5  and  _11
REMARK    2  A    between atoms: _19  and  _21
REMARK    3  A    between atoms: _22  and  _66
REMARK    4  A    between atoms: _27  and  _30
REMARK    5  A    between atoms: _32  and  _33
REMARK    6  A    between atoms: _38  and  _43
REMARK    7  A    between atoms: _43  and  _46
REMARK    8  A    between atoms: _53  and  _55
REMARK                            x       y       z     vdW  Elec       q    Type
REMARK                         _______ _______ _______ _____ _____    ______ ____
ROOT
ATOM     10  C   UNL     1       5.247   8.012  33.720  0.00  0.00    +0.038 A 
ATOM     11  C   UNL     1       5.996   6.828  33.944  0.00  0.00    +0.047 A 
ATOM     12  C   UNL     1       5.807   5.649  33.114  0.00  0.00    +0.035 A 
ATOM     32  C   UNL     1       4.849   5.711  32.061  0.00  0.00    +0.024 A 
ATOM     33  C   UNL     1       4.078   6.905  31.819  0.00  0.00    +0.007 A 
ATOM     34  C   UNL     1       4.258   8.070  32.636  0.00  0.00    -0.029 A 
ATOM     35  C   UNL     1       3.400   9.321  32.335  0.00  0.00    +0.045 C 
ENDROOT
BRANCH  10   9
ATOM      4  C   UNL     1       4.155  10.747  37.510  0.00  0.00    +0.077 A 
ATOM      5  C   UNL     1       3.032   9.924  37.854  0.00  0.00    +0.048 A 
ATOM      6  C   UNL     1       2.765   8.811  37.026  0.00  0.00    +0.116 A 
ATOM      7  N   UNL     1       3.568   8.549  35.938  0.00  0.00    -0.223 NA
ATOM      8  C   UNL     1       4.643   9.363  35.633  0.00  0.00    +0.220 A 
ATOM      9  N   UNL     1       5.469   9.114  34.547  0.00  0.00    -0.283 N 
ATOM     36  H   UNL     1       6.247   9.743  34.351  0.00  0.00    +0.155 HD
ATOM     37  N   UNL     1       4.918  10.434  36.407  0.00  0.00    -0.214 NA
BRANCH   4   3
ATOM      1  C   UNL     1       6.204  13.783  38.884  0.00  0.00    +0.020 A 
ATOM      2  C   UNL     1       5.854  12.616  38.106  0.00  0.00    +0.013 A 
ATOM      3  C   UNL     1       4.568  11.957  38.289  0.00  0.00    +0.019 A 
ATOM     38  C   UNL     1       3.650  12.507  39.275  0.00  0.00    +0.120 A 
ATOM     39  N   UNL     1       4.014  13.630  40.011  0.00  0.00    -0.263 NA
ATOM     40  C   UNL     1       5.250  14.272  39.844  0.00  0.00    +0.111 A 
ENDBRANCH   4   3
ENDBRANCH  10   9
BRANCH  12  13
ATOM     13  N   UNL     1       6.533   4.417  33.300  0.00  0.00    -0.281 N 
ATOM     14  C   UNL     1       6.221   3.364  34.145  0.00  0.00    +0.248 C 
ATOM     30  O   UNL     1       5.382   3.415  35.031  0.00  0.00    -0.270 OA
ATOM     31  H   UNL     1       7.379   4.308  32.741  0.00  0.00    +0.155 HD
BRANCH  14  15
ATOM     15  C   UNL     1       6.959   2.074  33.993  0.00  0.00    +0.037 A 
ATOM     16  C   UNL     1       8.135   1.769  34.812  0.00  0.00    +0.013 A 
ATOM     17  C   UNL     1       8.839   0.524  34.633  0.00  0.00    +0.005 A 
ATOM     18  C   UNL     1       8.367  -0.428  33.630  0.00  0.00    -0.033 A 
ATOM     28  C   UNL     1       7.195  -0.103  32.835  0.00  0.00    +0.005 A 
ATOM     29  C   UNL     1       6.503   1.117  33.007  0.00  0.00    +0.013 A 
BRANCH  18  19
ATOM     19  C   UNL     1       9.068  -1.771  33.357  0.00  0.00    +0.119 C 
BRANCH  19  20
ATOM     20  N   UNL     1       9.697  -1.953  32.015  0.00  0.00    -0.302 NA
ATOM     21  C   UNL     1      10.654  -0.809  31.669  0.00  0.00    +0.066 C 
ATOM     22  C   UNL     1      11.320  -1.027  30.271  0.00  0.00    -0.064 C 
ATOM     23  N   UNL     1      10.231  -1.163  29.206  0.00  0.00    +0.379 N 
ATOM     24  C   UNL     1      10.855  -1.310  27.883  0.00  0.00    -0.096 C 
ATOM     25  H   UNL     1       9.644  -0.216  29.200  0.00  0.00    -0.082 HD
ATOM     26  C   UNL     1       9.274  -2.298  29.544  0.00  0.00    -0.064 C 
ATOM     27  C   UNL     1       8.640  -2.086  30.947  0.00  0.00    +0.066 C 
ENDBRANCH  19  20
ENDBRANCH  18  19
ENDBRANCH  14  15
ENDBRANCH  12  13
TORSDOF 6
ENDMDL
MODEL 4
REMARK VINA RESULT:      -9.9      3.631     13.934
REMARK  Name = C:\Users\Docking\Desktop\test protocol\1iep_ligandH.pdb
REMARK  8 active torsions:
REMARK  status: ('A' for Active; 'I' for Inactive)
REMARK    1  A    between atoms: _5  and  _11
REMARK    2  A    between atoms: _19  and  _21
REMARK    3  A    between atoms: _22  and  _66
REMARK    4  A    between atoms: _27  and  _30
REMARK    5  A    between atoms: _32  and  _33
REMARK    6  A    between atoms: _38  and  _43
REMARK    7  A    between atoms: _43  and  _46
REMARK    8  A    between atoms: _53  and  _55
REMARK                            x       y       z     vdW  Elec       q    Type
REMARK                         _______ _______ _______ _____ _____    ______ ____
ROOT
ATOM     10  C   UNL     1      10.364   1.292  35.683  0.00  0.00    +0.038 A 
ATOM     11  C   UNL     1      10.180   2.694  35.798  0.00  0.00    +0.047 A 
ATOM     12  C   UNL     1       9.495   3.271  36.945  0.00  0.00    +0.035 A 
ATOM     32  C   UNL     1       9.013   2.391  37.957  0.00  0.00    +0.024 A 
ATOM     33  C   UNL     1       9.190   0.964  37.855  0.00  0.00    +0.007 A 
ATOM     34  C   UNL     1       9.863   0.389  36.726  0.00  0.00    -0.029 A 
ATOM     35  C   UNL     1      10.019  -1.149  36.666  0.00  0.00    +0.045 C 
ENDROOT
BRANCH  10   9
ATOM      4  C   UNL     1      10.416  -0.313  31.160  0.00  0.00    +0.077 A 
ATOM      5  C   UNL     1       8.995  -0.169  31.030  0.00  0.00    +0.048 A 
ATOM      6  C   UNL     1       8.286   0.315  32.153  0.00  0.00    +0.116 A 
ATOM      7  N   UNL     1       8.960   0.628  33.314  0.00  0.00    -0.223 NA
ATOM      8  C   UNL     1      10.331   0.476  33.406  0.00  0.00    +0.220 A 
ATOM      9  N   UNL     1      11.029   0.792  34.561  0.00  0.00    -0.283 N 
ATOM     36  H   UNL     1      12.039   0.658  34.592  0.00  0.00    +0.155 HD
ATOM     37  N   UNL     1      11.030   0.014  32.349  0.00  0.00    -0.214 NA
BRANCH   4   3
ATOM      1  C   UNL     1      13.557  -1.093  28.964  0.00  0.00    +0.020 A 
ATOM      2  C   UNL     1      12.745  -0.593  30.049  0.00  0.00    +0.013 A 
ATOM      3  C   UNL     1      11.304  -0.810  30.062  0.00  0.00    +0.019 A 
ATOM     38  C   UNL     1      10.711  -1.543  28.953  0.00  0.00    +0.120 A 
ATOM     39  N   UNL     1      11.518  -2.012  27.921  0.00  0.00    -0.263 NA
ATOM     40  C   UNL     1      12.906  -1.808  27.897  0.00  0.00    +0.111 A 
ENDBRANCH   4   3
ENDBRANCH  10   9
BRANCH  12  13
ATOM     13  N   UNL     1       9.272   4.686  37.112  0.00  0.00    -0.281 N 
ATOM     14  C   UNL     1       8.075   5.376  37.014  0.00  0.00    +0.248 C 
ATOM     30  O   UNL     1       7.043   4.910  36.555  0.00  0.00    -0.270 OA
ATOM     31  H   UNL     1      10.096   5.246  37.328  0.00  0.00    +0.155 HD
BRANCH  14  15
ATOM     15  C   UNL     1       8.020   6.795  37.481  0.00  0.00    +0.037 A 
ATOM     16  C   UNL     1       7.968   7.907  36.528  0.00  0.00    +0.013 A 
ATOM     17  C   UNL     1       7.933   9.267  37.005  0.00  0.00    +0.005 A 
ATOM     18  C   UNL     1       7.947   9.522  38.443  0.00  0.00    -0.033 A 
ATOM     28  C   UNL     1       7.994   8.400  39.366  0.00  0.00    +0.005 A 
ATOM     29  C   UNL     1       8.029   7.066  38.903  0.00  0.00    +0.013 A 
BRANCH  18  19
ATOM     19  C   UNL     1       7.934  10.942  39.041  0.00  0.00    +0.119 C 
BRANCH  19  20
ATOM     20  N   UNL     1       6.639  11.437  39.597  0.00  0.00    -0.302 NA
ATOM     21  C   UNL     1       5.891  12.330  38.603  0.00  0.00    +0.066 C 
ATOM     22  C   UNL     1       4.529  12.821  39.192  0.00  0.00    -0.064 C 
ATOM     23  N   UNL     1       4.782  13.565  40.504  0.00  0.00    +0.379 N 
ATOM     24  C   UNL     1       3.509  14.078  41.031  0.00  0.00    -0.096 C 
ATOM     25  H   UNL     1       5.431  14.441  40.276  0.00  0.00    -0.082 HD
ATOM     26  C   UNL     1       5.528  12.685  41.498  0.00  0.00    -0.064 C 
ATOM     27  C   UNL     1       6.866  12.178  40.891  0.00  0.00    +0.066 C 
ENDBRANCH  19  20
ENDBRANCH  18  19
ENDBRANCH  14  15
ENDBRANCH  12  13
TORSDOF 6
ENDMDL
MODEL 5
REMARK VINA RESULT:      -9.9      3.002      4.109
REMARK  Name = C:\Users\Docking\Desktop\test protocol\1iep_ligandH.pdb
REMARK  8 active torsions:
REMARK  status: ('A' for Active; 'I' for Inactive)
REMARK    1  A    between atoms: _5  and  _11
REMARK    2  A    between atoms: _19  and  _21
REMARK    3  A    between atoms: _22  and  _66
REMARK    4  A    between atoms: _27  and  _30
REMARK    5  A    between atoms: _32  and  _33
REMARK    6  A    between atoms: _38  and  _43
REMARK    7  A    between atoms: _43  and  _46
REMARK    8  A    between atoms: _53  and  _55
REMARK                            x       y       z     vdW  Elec       q    Type
REMARK                         _______ _______ _______ _____ _____    ______ ____
ROOT
ATOM     10  C   UNL     1       5.412   7.068  33.339  0.00  0.00    +0.038 A 
ATOM     11  C   UNL     1       6.175   5.908  33.629  0.00  0.00    +0.047 A 
ATOM     12  C   UNL     1       6.064   4.710  32.812  0.00  0.00    +0.035 A 
ATOM     32  C   UNL     1       5.167   4.729  31.704  0.00  0.00    +0.024 A 
ATOM     33  C   UNL     1       4.383   5.899  31.395  0.00  0.00    +0.007 A 
ATOM     34  C   UNL     1       4.486   7.083  32.199  0.00  0.00    -0.029 A 
ATOM     35  C   UNL     1       3.616   8.305  31.826  0.00  0.00    +0.045 C 
ENDROOT
BRANCH  10   9
ATOM      4  C   UNL     1       4.250   9.671  37.200  0.00  0.00    +0.077 A 
ATOM      5  C   UNL     1       3.249   8.728  37.608  0.00  0.00    +0.048 A 
ATOM      6  C   UNL     1       3.059   7.590  36.793  0.00  0.00    +0.116 A 
ATOM      7  N   UNL     1       3.819   7.418  35.657  0.00  0.00    -0.223 NA
ATOM      8  C   UNL     1       4.776   8.347  35.291  0.00  0.00    +0.220 A 
ATOM      9  N   UNL     1       5.558   8.190  34.157  0.00  0.00    -0.283 N 
ATOM     36  H   UNL     1       6.247   8.902  33.918  0.00  0.00    +0.155 HD
ATOM     37  N   UNL     1       4.975   9.443  36.052  0.00  0.00    -0.214 NA
BRANCH   4   3
ATOM      1  C   UNL     1       3.914  12.938  39.325  0.00  0.00    +0.020 A 
ATOM      2  C   UNL     1       3.551  11.740  38.604  0.00  0.00    +0.013 A 
ATOM      3  C   UNL     1       4.570  10.921  37.959  0.00  0.00    +0.019 A 
ATOM     38  C   UNL     1       5.958  11.346  38.065  0.00  0.00    +0.120 A 
ATOM     39  N   UNL     1       6.277  12.505  38.764  0.00  0.00    -0.263 NA
ATOM     40  C   UNL     1       5.305  13.302  39.388  0.00  0.00    +0.111 A 
ENDBRANCH   4   3
ENDBRANCH  10   9
BRANCH  12  13
ATOM     13  N   UNL     1       6.807   3.500  33.063  0.00  0.00    -0.281 N 
ATOM     14  C   UNL     1       6.315   2.214  33.214  0.00  0.00    +0.248 C 
ATOM     30  O   UNL     1       5.135   1.940  33.370  0.00  0.00    -0.270 OA
ATOM     31  H   UNL     1       7.819   3.605  33.138  0.00  0.00    +0.155 HD
BRANCH  14  15
ATOM     15  C   UNL     1       7.275   1.069  33.206  0.00  0.00    +0.037 A 
ATOM     16  C   UNL     1       7.575   0.338  31.972  0.00  0.00    +0.013 A 
ATOM     17  C   UNL     1       8.492  -0.775  31.995  0.00  0.00    +0.005 A 
ATOM     18  C   UNL     1       9.116  -1.162  33.258  0.00  0.00    -0.033 A 
ATOM     28  C   UNL     1       8.804  -0.416  34.466  0.00  0.00    +0.005 A 
ATOM     29  C   UNL     1       7.905   0.674  34.448  0.00  0.00    +0.013 A 
BRANCH  18  19
ATOM     19  C   UNL     1      10.090  -2.349  33.380  0.00  0.00    +0.119 C 
BRANCH  19  20
ATOM     20  N   UNL     1      11.125  -2.277  34.455  0.00  0.00    -0.302 NA
ATOM     21  C   UNL     1      12.324  -1.419  34.041  0.00  0.00    +0.066 C 
ATOM     22  C   UNL     1      13.386  -1.336  35.185  0.00  0.00    -0.064 C 
ATOM     23  N   UNL     1      13.836  -2.748  35.563  0.00  0.00    +0.379 N 
ATOM     24  C   UNL     1      14.877  -2.670  36.598  0.00  0.00    -0.096 C 
ATOM     25  H   UNL     1      14.292  -3.211  34.657  0.00  0.00    -0.082 HD
ATOM     26  C   UNL     1      12.649  -3.609  35.973  0.00  0.00    -0.064 C 
ATOM     27  C   UNL     1      11.586  -3.661  34.841  0.00  0.00    +0.066 C 
ENDBRANCH  19  20
ENDBRANCH  18  19
ENDBRANCH  14  15
ENDBRANCH  12  13
TORSDOF 6
ENDMDL
