MODEL 1
REMARK VINA RESULT:      -7.6      0.000      0.000
REMARK  Name = C:\Users\Docking\Desktop\test protocol\1iep_ligandH.pdb
REMARK  8 active torsions:
REMARK  status: ('A' for Active; 'I' for Inactive)
REMARK    1  A    between atoms: _5  and  _11
REMARK    2  A    between atoms: _19  and  _21
REMARK    3  A    between atoms: _22  and  _66
REMARK    4  A    between atoms: _27  and  _30
REMARK    5  A    between atoms: _32  and  _33
REMARK    6  A    between atoms: _38  and  _43
REMARK    7  A    between atoms: _43  and  _46
REMARK    8  A    between atoms: _53  and  _55
REMARK                            x       y       z     vdW  Elec       q    Type
REMARK                         _______ _______ _______ _____ _____    ______ ____
ROOT
ATOM     10  C   UNL     1      53.565  47.517  99.221  0.00  0.00    +0.038 A 
ATOM     11  C   UNL     1      52.821  46.341  98.945  0.00  0.00    +0.047 A 
ATOM     12  C   UNL     1      52.010  46.228  97.743  0.00  0.00    +0.035 A 
ATOM     32  C   UNL     1      51.981  47.331  96.841  0.00  0.00    +0.024 A 
ATOM     33  C   UNL     1      52.730  48.535  97.106  0.00  0.00    +0.007 A 
ATOM     34  C   UNL     1      53.530  48.653  98.292  0.00  0.00    -0.029 A 
ATOM     35  C   UNL     1      54.308  49.969  98.528  0.00  0.00    +0.045 C 
ENDROOT
BRANCH  10   9
ATOM      4  C   UNL     1      57.426  46.334 101.815  0.00  0.00    +0.077 A 
ATOM      5  C   UNL     1      57.957  45.517 100.761  0.00  0.00    +0.048 A 
ATOM      6  C   UNL     1      57.202  45.422  99.571  0.00  0.00    +0.116 A 
ATOM      7  N   UNL     1      56.007  46.098  99.453  0.00  0.00    -0.223 NA
ATOM      8  C   UNL     1      55.523  46.876 100.489  0.00  0.00    +0.220 A 
ATOM      9  N   UNL     1      54.327  47.571 100.390  0.00  0.00    -0.283 N 
ATOM     36  H   UNL     1      54.001  48.128 101.179  0.00  0.00    +0.155 HD
ATOM     37  N   UNL     1      56.224  46.982 101.637  0.00  0.00    -0.214 NA
BRANCH   4   3
ATOM      1  C   UNL     1      59.970  46.095 104.777  0.00  0.00    +0.020 A 
ATOM      2  C   UNL     1      59.351  45.864 103.492  0.00  0.00    +0.013 A 
ATOM      3  C   UNL     1      58.109  46.536 103.132  0.00  0.00    +0.019 A 
ATOM     38  C   UNL     1      57.514  47.443 104.102  0.00  0.00    +0.120 A 
ATOM     39  N   UNL     1      58.132  47.644 105.332  0.00  0.00    -0.263 NA
ATOM     40  C   UNL     1      59.326  47.002 105.690  0.00  0.00    +0.111 A 
ENDBRANCH   4   3
ENDBRANCH  10   9
BRANCH  12  13
ATOM     13  N   UNL     1      51.227  45.062  97.414  0.00  0.00    -0.281 N 
ATOM     14  C   UNL     1      51.650  43.902  96.786  0.00  0.00    +0.248 C 
ATOM     30  O   UNL     1      52.723  43.777  96.216  0.00  0.00    -0.270 OA
ATOM     31  H   UNL     1      50.242  45.097  97.677  0.00  0.00    +0.155 HD
BRANCH  14  15
ATOM     15  C   UNL     1      50.742  42.715  96.776  0.00  0.00    +0.037 A 
ATOM     16  C   UNL     1      49.377  42.805  96.252  0.00  0.00    +0.013 A 
ATOM     17  C   UNL     1      48.517  41.649  96.270  0.00  0.00    +0.005 A 
ATOM     18  C   UNL     1      49.021  40.390  96.815  0.00  0.00    -0.033 A 
ATOM     28  C   UNL     1      50.381  40.327  97.324  0.00  0.00    +0.005 A 
ATOM     29  C   UNL     1      51.226  41.459  97.308  0.00  0.00    +0.013 A 
BRANCH  18  19
ATOM     19  C   UNL     1      48.166  39.111  96.894  0.00  0.00    +0.119 C 
BRANCH  19  20
ATOM     20  N   UNL     1      48.353  38.237  98.089  0.00  0.00    -0.302 NA
ATOM     21  C   UNL     1      48.492  36.761  97.705  0.00  0.00    +0.066 C 
ATOM     22  C   UNL     1      48.709  35.863  98.967  0.00  0.00    -0.064 C 
ATOM     23  N   UNL     1      47.545  36.062  99.939  0.00  0.00    +0.379 N 
ATOM     24  C   UNL     1      47.717  35.176 101.099  0.00  0.00    -0.096 C 
ATOM     25  H   UNL     1      46.611  35.756  99.414  0.00  0.00    -0.082 HD
ATOM     26  C   UNL     1      47.399  37.528 100.323  0.00  0.00    -0.064 C 
ATOM     27  C   UNL     1      47.212  38.415  99.061  0.00  0.00    +0.066 C 
ENDBRANCH  19  20
ENDBRANCH  18  19
ENDBRANCH  14  15
ENDBRANCH  12  13
TORSDOF 6
ENDMDL
MODEL 2
REMARK VINA RESULT:      -7.5     27.043     33.693
REMARK  Name = C:\Users\Docking\Desktop\test protocol\1iep_ligandH.pdb
REMARK  8 active torsions:
REMARK  status: ('A' for Active; 'I' for Inactive)
REMARK    1  A    between atoms: _5  and  _11
REMARK    2  A    between atoms: _19  and  _21
REMARK    3  A    between atoms: _22  and  _66
REMARK    4  A    between atoms: _27  and  _30
REMARK    5  A    between atoms: _32  and  _33
REMARK    6  A    between atoms: _38  and  _43
REMARK    7  A    between atoms: _43  and  _46
REMARK    8  A    between atoms: _53  and  _55
REMARK                            x       y       z     vdW  Elec       q    Type
REMARK                         _______ _______ _______ _____ _____    ______ ____
ROOT
ATOM     10  C   UNL     1      58.091  71.238 106.365  0.00  0.00    +0.038 A 
ATOM     11  C   UNL     1      57.962  72.647 106.457  0.00  0.00    +0.047 A 
ATOM     12  C   UNL     1      57.945  73.319 107.748  0.00  0.00    +0.035 A 
ATOM     32  C   UNL     1      58.065  72.523 108.924  0.00  0.00    +0.024 A 
ATOM     33  C   UNL     1      58.196  71.090 108.849  0.00  0.00    +0.007 A 
ATOM     34  C   UNL     1      58.211  70.422 107.579  0.00  0.00    -0.029 A 
ATOM     35  C   UNL     1      58.347  68.881 107.559  0.00  0.00    +0.045 C 
ENDROOT
BRANCH  10   9
ATOM      4  C   UNL     1      60.386  69.440 102.552  0.00  0.00    +0.077 A 
ATOM      5  C   UNL     1      61.673  69.730 103.116  0.00  0.00    +0.048 A 
ATOM      6  C   UNL     1      61.700  70.348 104.386  0.00  0.00    +0.116 A 
ATOM      7  N   UNL     1      60.523  70.650 105.035  0.00  0.00    -0.223 NA
ATOM      8  C   UNL     1      59.298  70.359 104.462  0.00  0.00    +0.220 A 
ATOM      9  N   UNL     1      58.101  70.646 105.100  0.00  0.00    -0.283 N 
ATOM     36  H   UNL     1      57.219  70.422 104.641  0.00  0.00    +0.155 HD
ATOM     37  N   UNL     1      59.245  69.769 103.249  0.00  0.00    -0.214 NA
BRANCH   4   3
ATOM      1  C   UNL     1      58.955  67.259  99.637  0.00  0.00    +0.020 A 
ATOM      2  C   UNL     1      59.098  67.864 100.941  0.00  0.00    +0.013 A 
ATOM      3  C   UNL     1      60.192  68.786 101.219  0.00  0.00    +0.019 A 
ATOM     38  C   UNL     1      61.131  69.078 100.147  0.00  0.00    +0.120 A 
ATOM     39  N   UNL     1      60.970  68.479  98.902  0.00  0.00    -0.263 NA
ATOM     40  C   UNL     1      59.922  67.589  98.623  0.00  0.00    +0.111 A 
ENDBRANCH   4   3
ENDBRANCH  10   9
BRANCH  12  13
ATOM     13  N   UNL     1      57.808  74.745 107.904  0.00  0.00    -0.281 N 
ATOM     14  C   UNL     1      58.814  75.690 108.022  0.00  0.00    +0.248 C 
ATOM     30  O   UNL     1      59.990  75.425 108.228  0.00  0.00    -0.270 OA
ATOM     31  H   UNL     1      56.853  75.103 107.930  0.00  0.00    +0.155 HD
BRANCH  14  15
ATOM     15  C   UNL     1      58.463  77.138 107.911  0.00  0.00    +0.037 A 
ATOM     16  C   UNL     1      58.492  78.019 109.082  0.00  0.00    +0.013 A 
ATOM     17  C   UNL     1      58.132  79.409 108.950  0.00  0.00    +0.005 A 
ATOM     18  C   UNL     1      57.740  79.926 107.641  0.00  0.00    -0.033 A 
ATOM     28  C   UNL     1      57.724  79.031 106.496  0.00  0.00    +0.005 A 
ATOM     29  C   UNL     1      58.075  77.668 106.621  0.00  0.00    +0.013 A 
BRANCH  18  19
ATOM     19  C   UNL     1      57.319  81.390 107.412  0.00  0.00    +0.119 C 
BRANCH  19  20
ATOM     20  N   UNL     1      56.093  81.629 106.594  0.00  0.00    -0.302 NA
ATOM     21  C   UNL     1      56.393  82.447 105.335  0.00  0.00    +0.066 C 
ATOM     22  C   UNL     1      55.104  82.668 104.479  0.00  0.00    -0.064 C 
ATOM     23  N   UNL     1      54.040  83.361 105.334  0.00  0.00    +0.379 N 
ATOM     24  C   UNL     1      52.847  83.623 104.516  0.00  0.00    -0.096 C 
ATOM     25  H   UNL     1      54.453  84.345 105.655  0.00  0.00    -0.082 HD
ATOM     26  C   UNL     1      53.738  82.555 106.589  0.00  0.00    -0.064 C 
ATOM     27  C   UNL     1      55.031  82.315 107.418  0.00  0.00    +0.066 C 
ENDBRANCH  19  20
ENDBRANCH  18  19
ENDBRANCH  14  15
ENDBRANCH  12  13
TORSDOF 6
ENDMDL
MODEL 3
REMARK VINA RESULT:      -7.5     25.242     31.888
REMARK  Name = C:\Users\Docking\Desktop\test protocol\1iep_ligandH.pdb
REMARK  8 active torsions:
REMARK  status: ('A' for Active; 'I' for Inactive)
REMARK    1  A    between atoms: _5  and  _11
REMARK    2  A    between atoms: _19  and  _21
REMARK    3  A    between atoms: _22  and  _66
REMARK    4  A    between atoms: _27  and  _30
REMARK    5  A    between atoms: _32  and  _33
REMARK    6  A    between atoms: _38  and  _43
REMARK    7  A    between atoms: _43  and  _46
REMARK    8  A    between atoms: _53  and  _55
REMARK                            x       y       z     vdW  Elec       q    Type
REMARK                         _______ _______ _______ _____ _____    ______ ____
ROOT
ATOM     10  C   UNL     1      58.325  69.496 102.432  0.00  0.00    +0.038 A 
ATOM     11  C   UNL     1      58.578  70.842 102.803  0.00  0.00    +0.047 A 
ATOM     12  C   UNL     1      58.481  71.272 104.189  0.00  0.00    +0.035 A 
ATOM     32  C   UNL     1      58.126  70.304 105.173  0.00  0.00    +0.024 A 
ATOM     33  C   UNL     1      57.864  68.932 104.814  0.00  0.00    +0.007 A 
ATOM     34  C   UNL     1      57.956  68.503 103.448  0.00  0.00    -0.029 A 
ATOM     35  C   UNL     1      57.658  67.021 103.120  0.00  0.00    +0.045 C 
ENDROOT
BRANCH  10   9
ATOM      4  C   UNL     1      60.904  68.310  98.562  0.00  0.00    +0.077 A 
ATOM      5  C   UNL     1      62.142  68.441  99.274  0.00  0.00    +0.048 A 
ATOM      6  C   UNL     1      62.072  68.822 100.633  0.00  0.00    +0.116 A 
ATOM      7  N   UNL     1      60.850  69.052 101.225  0.00  0.00    -0.223 NA
ATOM      8  C   UNL     1      59.674  68.919 100.509  0.00  0.00    +0.220 A 
ATOM      9  N   UNL     1      58.433  69.138 101.087  0.00  0.00    -0.283 N 
ATOM     36  H   UNL     1      57.589  69.036 100.523  0.00  0.00    +0.155 HD
ATOM     37  N   UNL     1      59.714  68.558  99.210  0.00  0.00    -0.214 NA
BRANCH   4   3
ATOM      1  C   UNL     1      59.711  67.962  94.853  0.00  0.00    +0.020 A 
ATOM      2  C   UNL     1      59.753  68.377  96.236  0.00  0.00    +0.013 A 
ATOM      3  C   UNL     1      60.813  67.912  97.122  0.00  0.00    +0.019 A 
ATOM     38  C   UNL     1      61.824  67.022  96.571  0.00  0.00    +0.120 A 
ATOM     39  N   UNL     1      61.757  66.638  95.236  0.00  0.00    -0.263 NA
ATOM     40  C   UNL     1      60.741  67.078  94.375  0.00  0.00    +0.111 A 
ENDBRANCH   4   3
ENDBRANCH  10   9
BRANCH  12  13
ATOM     13  N   UNL     1      58.718  72.626 104.624  0.00  0.00    -0.281 N 
ATOM     14  C   UNL     1      59.849  73.400 104.419  0.00  0.00    +0.248 C 
ATOM     30  O   UNL     1      60.918  72.968 104.013  0.00  0.00    -0.270 OA
ATOM     31  H   UNL     1      57.961  73.067 105.145  0.00  0.00    +0.155 HD
BRANCH  14  15
ATOM     15  C   UNL     1      59.788  74.862 104.723  0.00  0.00    +0.037 A 
ATOM     16  C   UNL     1      60.879  75.763 104.345  0.00  0.00    +0.013 A 
ATOM     17  C   UNL     1      60.803  77.166 104.666  0.00  0.00    +0.005 A 
ATOM     18  C   UNL     1      59.628  77.677 105.368  0.00  0.00    -0.033 A 
ATOM     28  C   UNL     1      58.557  76.762 105.726  0.00  0.00    +0.005 A 
ATOM     29  C   UNL     1      58.629  75.386 105.415  0.00  0.00    +0.013 A 
BRANCH  18  19
ATOM     19  C   UNL     1      59.471  79.156 105.769  0.00  0.00    +0.119 C 
BRANCH  19  20
ATOM     20  N   UNL     1      59.660  79.497 107.210  0.00  0.00    -0.302 NA
ATOM     21  C   UNL     1      60.676  78.575 107.891  0.00  0.00    +0.066 C 
ATOM     22  C   UNL     1      60.878  78.961 109.392  0.00  0.00    -0.064 C 
ATOM     23  N   UNL     1      59.531  78.909 110.115  0.00  0.00    +0.379 N 
ATOM     24  C   UNL     1      59.727  79.215 111.540  0.00  0.00    -0.096 C 
ATOM     25  H   UNL     1      59.149  77.865 110.042  0.00  0.00    -0.082 HD
ATOM     26  C   UNL     1      58.514  79.821 109.444  0.00  0.00    -0.064 C 
ATOM     27  C   UNL     1      58.342  79.448 107.945  0.00  0.00    +0.066 C 
ENDBRANCH  19  20
ENDBRANCH  18  19
ENDBRANCH  14  15
ENDBRANCH  12  13
TORSDOF 6
ENDMDL
MODEL 4
REMARK VINA RESULT:      -7.5     28.760     33.105
REMARK  Name = C:\Users\Docking\Desktop\test protocol\1iep_ligandH.pdb
REMARK  8 active torsions:
REMARK  status: ('A' for Active; 'I' for Inactive)
REMARK    1  A    between atoms: _5  and  _11
REMARK    2  A    between atoms: _19  and  _21
REMARK    3  A    between atoms: _22  and  _66
REMARK    4  A    between atoms: _27  and  _30
REMARK    5  A    between atoms: _32  and  _33
REMARK    6  A    between atoms: _38  and  _43
REMARK    7  A    between atoms: _43  and  _46
REMARK    8  A    between atoms: _53  and  _55
REMARK                            x       y       z     vdW  Elec       q    Type
REMARK                         _______ _______ _______ _____ _____    ______ ____
ROOT
ATOM     10  C   UNL     1      45.066  68.928 118.666  0.00  0.00    +0.038 A 
ATOM     11  C   UNL     1      46.427  68.720 118.328  0.00  0.00    +0.047 A 
ATOM     12  C   UNL     1      47.101  67.472 118.651  0.00  0.00    +0.035 A 
ATOM     32  C   UNL     1      46.356  66.455 119.317  0.00  0.00    +0.024 A 
ATOM     33  C   UNL     1      44.972  66.650 119.670  0.00  0.00    +0.007 A 
ATOM     34  C   UNL     1      44.303  67.880 119.356  0.00  0.00    -0.029 A 
ATOM     35  C   UNL     1      42.820  68.036 119.763  0.00  0.00    +0.045 C 
ENDROOT
BRANCH  10   9
ATOM      4  C   UNL     1      42.733  71.800 115.609  0.00  0.00    +0.077 A 
ATOM      5  C   UNL     1      42.727  70.800 114.581  0.00  0.00    +0.048 A 
ATOM      6  C   UNL     1      43.341  69.562 114.877  0.00  0.00    +0.116 A 
ATOM      7  N   UNL     1      43.915  69.351 116.112  0.00  0.00    -0.223 NA
ATOM      8  C   UNL     1      43.905  70.338 117.080  0.00  0.00    +0.220 A 
ATOM      9  N   UNL     1      44.469  70.146 118.332  0.00  0.00    -0.283 N 
ATOM     36  H   UNL     1      44.448  70.901 119.016  0.00  0.00    +0.155 HD
ATOM     37  N   UNL     1      43.326  71.530 116.822  0.00  0.00    -0.214 NA
BRANCH   4   3
ATOM      1  C   UNL     1      40.148  74.699 115.151  0.00  0.00    +0.020 A 
ATOM      2  C   UNL     1      40.687  73.368 115.301  0.00  0.00    +0.013 A 
ATOM      3  C   UNL     1      42.122  73.158 115.449  0.00  0.00    +0.019 A 
ATOM     38  C   UNL     1      42.990  74.325 115.442  0.00  0.00    +0.120 A 
ATOM     39  N   UNL     1      42.442  75.596 115.294  0.00  0.00    -0.263 NA
ATOM     40  C   UNL     1      41.063  75.810 115.148  0.00  0.00    +0.111 A 
ENDBRANCH   4   3
ENDBRANCH  10   9
BRANCH  12  13
ATOM     13  N   UNL     1      48.484  67.207 118.339  0.00  0.00    -0.281 N 
ATOM     14  C   UNL     1      48.991  66.332 117.392  0.00  0.00    +0.248 C 
ATOM     30  O   UNL     1      48.331  65.482 116.813  0.00  0.00    -0.270 OA
ATOM     31  H   UNL     1      49.172  67.728 118.882  0.00  0.00    +0.155 HD
BRANCH  14  15
ATOM     15  C   UNL     1      50.444  66.401 117.049  0.00  0.00    +0.037 A 
ATOM     16  C   UNL     1      50.894  66.457 115.656  0.00  0.00    +0.013 A 
ATOM     17  C   UNL     1      52.302  66.507 115.353  0.00  0.00    +0.005 A 
ATOM     18  C   UNL     1      53.271  66.502 116.447  0.00  0.00    -0.033 A 
ATOM     28  C   UNL     1      52.797  66.452 117.819  0.00  0.00    +0.005 A 
ATOM     29  C   UNL     1      51.417  66.402 118.121  0.00  0.00    +0.013 A 
BRANCH  18  19
ATOM     19  C   UNL     1      54.793  66.531 116.215  0.00  0.00    +0.119 C 
BRANCH  19  20
ATOM     20  N   UNL     1      55.522  67.773 116.614  0.00  0.00    -0.302 NA
ATOM     21  C   UNL     1      54.997  69.008 115.876  0.00  0.00    +0.066 C 
ATOM     22  C   UNL     1      55.755  70.301 116.322  0.00  0.00    -0.064 C 
ATOM     23  N   UNL     1      57.254  70.120 116.077  0.00  0.00    +0.379 N 
ATOM     24  C   UNL     1      57.963  71.356 116.441  0.00  0.00    -0.096 C 
ATOM     25  H   UNL     1      57.401  69.955 114.984  0.00  0.00    -0.082 HD
ATOM     26  C   UNL     1      57.784  68.892 116.805  0.00  0.00    -0.064 C 
ATOM     27  C   UNL     1      57.004  67.617 116.377  0.00  0.00    +0.066 C 
ENDBRANCH  19  20
ENDBRANCH  18  19
ENDBRANCH  14  15
ENDBRANCH  12  13
TORSDOF 6
ENDMDL
MODEL 5
REMARK VINA RESULT:      -7.5     28.664     31.110
REMARK  Name = C:\Users\Docking\Desktop\test protocol\1iep_ligandH.pdb
REMARK  8 active torsions:
REMARK  status: ('A' for Active; 'I' for Inactive)
REMARK    1  A    between atoms: _5  and  _11
REMARK    2  A    between atoms: _19  and  _21
REMARK    3  A    between atoms: _22  and  _66
REMARK    4  A    between atoms: _27  and  _30
REMARK    5  A    between atoms: _32  and  _33
REMARK    6  A    between atoms: _38  and  _43
REMARK    7  A    between atoms: _43  and  _46
REMARK    8  A    between atoms: _53  and  _55
REMARK                            x       y       z     vdW  Elec       q    Type
REMARK                         _______ _______ _______ _____ _____    ______ ____
ROOT
ATOM     10  C   UNL     1      28.087  50.084 115.537  0.00  0.00    +0.038 A 
ATOM     11  C   UNL     1      27.932  51.321 114.861  0.00  0.00    +0.047 A 
ATOM     12  C   UNL     1      26.796  52.189 115.131  0.00  0.00    +0.035 A 
ATOM     32  C   UNL     1      25.837  51.766 116.097  0.00  0.00    +0.024 A 
ATOM     33  C   UNL     1      25.979  50.511 116.793  0.00  0.00    +0.007 A 
ATOM     34  C   UNL     1      27.096  49.650 116.529  0.00  0.00    -0.029 A 
ATOM     35  C   UNL     1      27.193  48.312 117.300  0.00  0.00    +0.045 C 
ENDROOT
BRANCH  10   9
ATOM      4  C   UNL     1      32.674  48.817 116.163  0.00  0.00    +0.077 A 
ATOM      5  C   UNL     1      32.884  49.839 117.147  0.00  0.00    +0.048 A 
ATOM      6  C   UNL     1      31.788  50.675 117.459  0.00  0.00    +0.116 A 
ATOM      7  N   UNL     1      30.577  50.492 116.827  0.00  0.00    -0.223 NA
ATOM      8  C   UNL     1      30.408  49.498 115.881  0.00  0.00    +0.220 A 
ATOM      9  N   UNL     1      29.197  49.291 115.239  0.00  0.00    -0.283 N 
ATOM     36  H   UNL     1      29.116  48.551 114.542  0.00  0.00    +0.155 HD
ATOM     37  N   UNL     1      31.440  48.688 115.565  0.00  0.00    -0.214 NA
BRANCH   4   3
ATOM      1  C   UNL     1      36.133  47.230 115.261  0.00  0.00    +0.020 A 
ATOM      2  C   UNL     1      35.150  48.198 115.688  0.00  0.00    +0.013 A 
ATOM      3  C   UNL     1      33.734  47.853 115.729  0.00  0.00    +0.019 A 
ATOM     38  C   UNL     1      33.344  46.509 115.329  0.00  0.00    +0.120 A 
ATOM     39  N   UNL     1      34.314  45.599 114.921  0.00  0.00    -0.263 NA
ATOM     40  C   UNL     1      35.679  45.920 114.876  0.00  0.00    +0.111 A 
ENDBRANCH   4   3
ENDBRANCH  10   9
BRANCH  12  13
ATOM     13  N   UNL     1      26.581  53.452 114.470  0.00  0.00    -0.281 N 
ATOM     14  C   UNL     1      27.193  54.667 114.735  0.00  0.00    +0.248 C 
ATOM     30  O   UNL     1      27.866  54.899 115.729  0.00  0.00    -0.270 OA
ATOM     31  H   UNL     1      25.895  53.451 113.715  0.00  0.00    +0.155 HD
BRANCH  14  15
ATOM     15  C   UNL     1      27.020  55.789 113.764  0.00  0.00    +0.037 A 
ATOM     16  C   UNL     1      27.943  56.927 113.746  0.00  0.00    +0.013 A 
ATOM     17  C   UNL     1      27.743  58.005 112.810  0.00  0.00    +0.005 A 
ATOM     18  C   UNL     1      26.615  57.950 111.883  0.00  0.00    -0.033 A 
ATOM     28  C   UNL     1      25.718  56.807 111.920  0.00  0.00    +0.005 A 
ATOM     29  C   UNL     1      25.910  55.749 112.836  0.00  0.00    +0.013 A 
BRANCH  18  19
ATOM     19  C   UNL     1      26.314  59.065 110.865  0.00  0.00    +0.119 C 
BRANCH  19  20
ATOM     20  N   UNL     1      25.404  58.727 109.730  0.00  0.00    -0.302 NA
ATOM     21  C   UNL     1      26.102  58.862 108.374  0.00  0.00    +0.066 C 
ATOM     22  C   UNL     1      25.142  58.484 107.199  0.00  0.00    -0.064 C 
ATOM     23  N   UNL     1      23.896  59.368 107.257  0.00  0.00    +0.379 N 
ATOM     24  C   UNL     1      23.018  59.054 106.120  0.00  0.00    -0.096 C 
ATOM     25  H   UNL     1      24.227  60.427 107.147  0.00  0.00    -0.082 HD
ATOM     26  C   UNL     1      23.197  59.242 108.603  0.00  0.00    -0.064 C 
ATOM     27  C   UNL     1      24.168  59.592 109.766  0.00  0.00    +0.066 C 
ENDBRANCH  19  20
ENDBRANCH  18  19
ENDBRANCH  14  15
ENDBRANCH  12  13
TORSDOF 6
ENDMDL
