MODEL 1
REMARK VINA RESULT:      -9.4      0.000      0.000
REMARK  Name = C:\Users\Docking\Desktop\test protocol\1iep_ligandH.pdb
REMARK  8 active torsions:
REMARK  status: ('A' for Active; 'I' for Inactive)
REMARK    1  A    between atoms: _5  and  _11
REMARK    2  A    between atoms: _19  and  _21
REMARK    3  A    between atoms: _22  and  _66
REMARK    4  A    between atoms: _27  and  _30
REMARK    5  A    between atoms: _32  and  _33
REMARK    6  A    between atoms: _38  and  _43
REMARK    7  A    between atoms: _43  and  _46
REMARK    8  A    between atoms: _53  and  _55
REMARK                            x       y       z     vdW  Elec       q    Type
REMARK                         _______ _______ _______ _____ _____    ______ ____
ROOT
ATOM     10  C   UNL     1      75.044  43.178  22.597  0.00  0.00    +0.038 A 
ATOM     11  C   UNL     1      76.033  43.569  21.658  0.00  0.00    +0.047 A 
ATOM     12  C   UNL     1      76.737  44.835  21.791  0.00  0.00    +0.035 A 
ATOM     32  C   UNL     1      76.411  45.677  22.895  0.00  0.00    +0.024 A 
ATOM     33  C   UNL     1      75.409  45.294  23.858  0.00  0.00    +0.007 A 
ATOM     34  C   UNL     1      74.709  44.048  23.730  0.00  0.00    -0.029 A 
ATOM     35  C   UNL     1      73.639  43.693  24.788  0.00  0.00    +0.045 C 
ENDROOT
BRANCH  10   9
ATOM      4  C   UNL     1      71.598  40.446  20.673  0.00  0.00    +0.077 A 
ATOM      5  C   UNL     1      71.018  41.562  19.982  0.00  0.00    +0.048 A 
ATOM      6  C   UNL     1      71.632  42.822  20.154  0.00  0.00    +0.116 A 
ATOM      7  N   UNL     1      72.744  42.947  20.959  0.00  0.00    -0.223 NA
ATOM      8  C   UNL     1      73.277  41.851  21.612  0.00  0.00    +0.220 A 
ATOM      9  N   UNL     1      74.399  41.951  22.420  0.00  0.00    -0.283 N 
ATOM     36  H   UNL     1      74.757  41.121  22.891  0.00  0.00    +0.155 HD
ATOM     37  N   UNL     1      72.708  40.636  21.465  0.00  0.00    -0.214 NA
BRANCH   4   3
ATOM      1  C   UNL     1      70.556  36.923  19.332  0.00  0.00    +0.020 A 
ATOM      2  C   UNL     1      71.083  38.267  19.359  0.00  0.00    +0.013 A 
ATOM      3  C   UNL     1      71.065  39.050  20.589  0.00  0.00    +0.019 A 
ATOM     38  C   UNL     1      70.502  38.437  21.783  0.00  0.00    +0.120 A 
ATOM     39  N   UNL     1      70.001  37.140  21.726  0.00  0.00    -0.263 NA
ATOM     40  C   UNL     1      70.011  36.379  20.548  0.00  0.00    +0.111 A 
ENDBRANCH   4   3
ENDBRANCH  10   9
BRANCH  12  13
ATOM     13  N   UNL     1      77.744  45.290  20.865  0.00  0.00    -0.281 N 
ATOM     14  C   UNL     1      77.667  45.348  19.483  0.00  0.00    +0.248 C 
ATOM     30  O   UNL     1      76.792  44.814  18.817  0.00  0.00    -0.270 OA
ATOM     31  H   UNL     1      78.621  45.607  21.278  0.00  0.00    +0.155 HD
BRANCH  14  15
ATOM     15  C   UNL     1      78.721  46.094  18.731  0.00  0.00    +0.037 A 
ATOM     16  C   UNL     1      78.374  47.193  17.826  0.00  0.00    +0.013 A 
ATOM     17  C   UNL     1      79.409  47.886  17.100  0.00  0.00    +0.005 A 
ATOM     18  C   UNL     1      80.802  47.482  17.278  0.00  0.00    -0.033 A 
ATOM     28  C   UNL     1      81.118  46.392  18.186  0.00  0.00    +0.005 A 
ATOM     29  C   UNL     1      80.106  45.710  18.899  0.00  0.00    +0.013 A 
BRANCH  18  19
ATOM     19  C   UNL     1      81.969  48.150  16.528  0.00  0.00    +0.119 C 
BRANCH  19  20
ATOM     20  N   UNL     1      82.956  47.252  15.858  0.00  0.00    -0.302 NA
ATOM     21  C   UNL     1      84.298  47.222  16.594  0.00  0.00    +0.066 C 
ATOM     22  C   UNL     1      85.311  46.260  15.893  0.00  0.00    -0.064 C 
ATOM     23  N   UNL     1      85.501  46.695  14.439  0.00  0.00    +0.379 N 
ATOM     24  C   UNL     1      86.496  45.827  13.793  0.00  0.00    -0.096 C 
ATOM     25  H   UNL     1      85.910  47.732  14.447  0.00  0.00    -0.082 HD
ATOM     26  C   UNL     1      84.170  46.729  13.700  0.00  0.00    -0.064 C 
ATOM     27  C   UNL     1      83.161  47.666  14.422  0.00  0.00    +0.066 C 
ENDBRANCH  19  20
ENDBRANCH  18  19
ENDBRANCH  14  15
ENDBRANCH  12  13
TORSDOF 6
ENDMDL
MODEL 2
REMARK VINA RESULT:      -8.9      8.951     12.450
REMARK  Name = C:\Users\Docking\Desktop\test protocol\1iep_ligandH.pdb
REMARK  8 active torsions:
REMARK  status: ('A' for Active; 'I' for Inactive)
REMARK    1  A    between atoms: _5  and  _11
REMARK    2  A    between atoms: _19  and  _21
REMARK    3  A    between atoms: _22  and  _66
REMARK    4  A    between atoms: _27  and  _30
REMARK    5  A    between atoms: _32  and  _33
REMARK    6  A    between atoms: _38  and  _43
REMARK    7  A    between atoms: _43  and  _46
REMARK    8  A    between atoms: _53  and  _55
REMARK                            x       y       z     vdW  Elec       q    Type
REMARK                         _______ _______ _______ _____ _____    ______ ____
ROOT
ATOM     10  C   UNL     1      70.483  39.685  21.129  0.00  0.00    +0.038 A 
ATOM     11  C   UNL     1      69.846  40.505  22.096  0.00  0.00    +0.047 A 
ATOM     12  C   UNL     1      70.584  41.532  22.815  0.00  0.00    +0.035 A 
ATOM     32  C   UNL     1      71.969  41.698  22.523  0.00  0.00    +0.024 A 
ATOM     33  C   UNL     1      72.632  40.873  21.544  0.00  0.00    +0.007 A 
ATOM     34  C   UNL     1      71.910  39.857  20.833  0.00  0.00    -0.029 A 
ATOM     35  C   UNL     1      72.674  38.997  19.800  0.00  0.00    +0.045 C 
ENDROOT
BRANCH  10   9
ATOM      4  C   UNL     1      68.757  35.227  20.705  0.00  0.00    +0.077 A 
ATOM      5  C   UNL     1      69.442  34.786  21.886  0.00  0.00    +0.048 A 
ATOM      6  C   UNL     1      70.234  35.736  22.570  0.00  0.00    +0.116 A 
ATOM      7  N   UNL     1      70.327  37.027  22.098  0.00  0.00    -0.223 NA
ATOM      8  C   UNL     1      69.654  37.419  20.955  0.00  0.00    +0.220 A 
ATOM      9  N   UNL     1      69.726  38.715  20.468  0.00  0.00    -0.283 N 
ATOM     36  H   UNL     1      69.221  38.963  19.617  0.00  0.00    +0.155 HD
ATOM     37  N   UNL     1      68.893  36.531  20.284  0.00  0.00    -0.214 NA
BRANCH   4   3
ATOM      1  C   UNL     1      65.776  33.873  18.566  0.00  0.00    +0.020 A 
ATOM      2  C   UNL     1      66.584  34.767  19.362  0.00  0.00    +0.013 A 
ATOM      3  C   UNL     1      67.880  34.341  19.876  0.00  0.00    +0.019 A 
ATOM     38  C   UNL     1      68.333  32.995  19.562  0.00  0.00    +0.120 A 
ATOM     39  N   UNL     1      67.532  32.155  18.793  0.00  0.00    -0.263 NA
ATOM     40  C   UNL     1      66.282  32.553  18.295  0.00  0.00    +0.111 A 
ENDBRANCH   4   3
ENDBRANCH  10   9
BRANCH  12  13
ATOM     13  N   UNL     1      69.993  42.389  23.813  0.00  0.00    -0.281 N 
ATOM     14  C   UNL     1      69.837  42.138  25.166  0.00  0.00    +0.248 C 
ATOM     30  O   UNL     1      69.990  41.044  25.689  0.00  0.00    -0.270 OA
ATOM     31  H   UNL     1      69.647  43.289  23.481  0.00  0.00    +0.155 HD
BRANCH  14  15
ATOM     15  C   UNL     1      69.439  43.262  26.068  0.00  0.00    +0.037 A 
ATOM     16  C   UNL     1      70.363  44.358  26.369  0.00  0.00    +0.013 A 
ATOM     17  C   UNL     1      69.960  45.421  27.255  0.00  0.00    +0.005 A 
ATOM     18  C   UNL     1      68.624  45.393  27.845  0.00  0.00    -0.033 A 
ATOM     28  C   UNL     1      67.725  44.296  27.526  0.00  0.00    +0.005 A 
ATOM     29  C   UNL     1      68.117  43.252  26.658  0.00  0.00    +0.013 A 
BRANCH  18  19
ATOM     19  C   UNL     1      68.116  46.474  28.818  0.00  0.00    +0.119 C 
BRANCH  19  20
ATOM     20  N   UNL     1      67.711  47.787  28.231  0.00  0.00    -0.302 NA
ATOM     21  C   UNL     1      67.263  47.650  26.773  0.00  0.00    +0.066 C 
ATOM     22  C   UNL     1      66.822  49.028  26.182  0.00  0.00    -0.064 C 
ATOM     23  N   UNL     1      67.975  50.025  26.303  0.00  0.00    +0.379 N 
ATOM     24  C   UNL     1      67.583  51.305  25.696  0.00  0.00    -0.096 C 
ATOM     25  H   UNL     1      68.834  49.621  25.717  0.00  0.00    -0.082 HD
ATOM     26  C   UNL     1      68.429  50.165  27.749  0.00  0.00    -0.064 C 
ATOM     27  C   UNL     1      68.838  48.785  28.336  0.00  0.00    +0.066 C 
ENDBRANCH  19  20
ENDBRANCH  18  19
ENDBRANCH  14  15
ENDBRANCH  12  13
TORSDOF 6
ENDMDL
MODEL 3
REMARK VINA RESULT:      -8.8      1.807     12.480
REMARK  Name = C:\Users\Docking\Desktop\test protocol\1iep_ligandH.pdb
REMARK  8 active torsions:
REMARK  status: ('A' for Active; 'I' for Inactive)
REMARK    1  A    between atoms: _5  and  _11
REMARK    2  A    between atoms: _19  and  _21
REMARK    3  A    between atoms: _22  and  _66
REMARK    4  A    between atoms: _27  and  _30
REMARK    5  A    between atoms: _32  and  _33
REMARK    6  A    between atoms: _38  and  _43
REMARK    7  A    between atoms: _43  and  _46
REMARK    8  A    between atoms: _53  and  _55
REMARK                            x       y       z     vdW  Elec       q    Type
REMARK                         _______ _______ _______ _____ _____    ______ ____
ROOT
ATOM     10  C   UNL     1      80.082  45.894  20.056  0.00  0.00    +0.038 A 
ATOM     11  C   UNL     1      78.819  45.268  19.904  0.00  0.00    +0.047 A 
ATOM     12  C   UNL     1      77.805  45.354  20.944  0.00  0.00    +0.035 A 
ATOM     32  C   UNL     1      78.112  46.089  22.126  0.00  0.00    +0.024 A 
ATOM     33  C   UNL     1      79.391  46.732  22.298  0.00  0.00    +0.007 A 
ATOM     34  C   UNL     1      80.395  46.648  21.277  0.00  0.00    -0.029 A 
ATOM     35  C   UNL     1      81.752  47.350  21.518  0.00  0.00    +0.045 C 
ENDROOT
BRANCH  10   9
ATOM      4  C   UNL     1      82.254  47.545  16.108  0.00  0.00    +0.077 A 
ATOM      5  C   UNL     1      81.438  48.725  16.080  0.00  0.00    +0.048 A 
ATOM      6  C   UNL     1      80.466  48.865  17.096  0.00  0.00    +0.116 A 
ATOM      7  N   UNL     1      80.329  47.892  18.062  0.00  0.00    -0.223 NA
ATOM      8  C   UNL     1      81.132  46.766  18.059  0.00  0.00    +0.220 A 
ATOM      9  N   UNL     1      81.017  45.779  19.026  0.00  0.00    -0.283 N 
ATOM     36  H   UNL     1      81.623  44.960  18.984  0.00  0.00    +0.155 HD
ATOM     37  N   UNL     1      82.067  46.608  17.099  0.00  0.00    -0.214 NA
BRANCH   4   3
ATOM      1  C   UNL     1      84.389  47.507  12.830  0.00  0.00    +0.020 A 
ATOM      2  C   UNL     1      83.328  47.819  13.760  0.00  0.00    +0.013 A 
ATOM      3  C   UNL     1      83.327  47.255  15.105  0.00  0.00    +0.019 A 
ATOM     38  C   UNL     1      84.423  46.374  15.479  0.00  0.00    +0.120 A 
ATOM     39  N   UNL     1      85.430  46.091  14.562  0.00  0.00    -0.263 NA
ATOM     40  C   UNL     1      85.440  46.625  13.265  0.00  0.00    +0.111 A 
ENDBRANCH   4   3
ENDBRANCH  10   9
BRANCH  12  13
ATOM     13  N   UNL     1      76.508  44.732  20.849  0.00  0.00    -0.281 N 
ATOM     14  C   UNL     1      76.206  43.458  20.396  0.00  0.00    +0.248 C 
ATOM     30  O   UNL     1      76.988  42.732  19.801  0.00  0.00    -0.270 OA
ATOM     31  H   UNL     1      75.716  45.300  21.151  0.00  0.00    +0.155 HD
BRANCH  14  15
ATOM     15  C   UNL     1      74.831  42.918  20.625  0.00  0.00    +0.037 A 
ATOM     16  C   UNL     1      73.732  43.222  19.705  0.00  0.00    +0.013 A 
ATOM     17  C   UNL     1      72.412  42.702  19.959  0.00  0.00    +0.005 A 
ATOM     18  C   UNL     1      72.184  41.870  21.138  0.00  0.00    -0.033 A 
ATOM     28  C   UNL     1      73.293  41.580  22.032  0.00  0.00    +0.005 A 
ATOM     29  C   UNL     1      74.588  42.089  21.787  0.00  0.00    +0.013 A 
BRANCH  18  19
ATOM     19  C   UNL     1      70.803  41.291  21.499  0.00  0.00    +0.119 C 
BRANCH  19  20
ATOM     20  N   UNL     1      70.444  39.965  20.912  0.00  0.00    -0.302 NA
ATOM     21  C   UNL     1      70.375  38.866  21.977  0.00  0.00    +0.066 C 
ATOM     22  C   UNL     1      69.976  37.491  21.349  0.00  0.00    -0.064 C 
ATOM     23  N   UNL     1      70.979  37.122  20.255  0.00  0.00    +0.379 N 
ATOM     24  C   UNL     1      70.640  35.802  19.703  0.00  0.00    -0.096 C 
ATOM     25  H   UNL     1      71.984  37.042  20.731  0.00  0.00    -0.082 HD
ATOM     26  C   UNL     1      71.056  38.211  19.194  0.00  0.00    -0.064 C 
ATOM     27  C   UNL     1      71.424  39.580  19.832  0.00  0.00    +0.066 C 
ENDBRANCH  19  20
ENDBRANCH  18  19
ENDBRANCH  14  15
ENDBRANCH  12  13
TORSDOF 6
ENDMDL
MODEL 4
REMARK VINA RESULT:      -8.6      1.857     13.030
REMARK  Name = C:\Users\Docking\Desktop\test protocol\1iep_ligandH.pdb
REMARK  8 active torsions:
REMARK  status: ('A' for Active; 'I' for Inactive)
REMARK    1  A    between atoms: _5  and  _11
REMARK    2  A    between atoms: _19  and  _21
REMARK    3  A    between atoms: _22  and  _66
REMARK    4  A    between atoms: _27  and  _30
REMARK    5  A    between atoms: _32  and  _33
REMARK    6  A    between atoms: _38  and  _43
REMARK    7  A    between atoms: _43  and  _46
REMARK    8  A    between atoms: _53  and  _55
REMARK                            x       y       z     vdW  Elec       q    Type
REMARK                         _______ _______ _______ _____ _____    ______ ____
ROOT
ATOM     10  C   UNL     1      80.559  48.084  17.519  0.00  0.00    +0.038 A 
ATOM     11  C   UNL     1      79.475  47.203  17.767  0.00  0.00    +0.047 A 
ATOM     12  C   UNL     1      78.872  47.105  19.087  0.00  0.00    +0.035 A 
ATOM     32  C   UNL     1      79.395  47.921  20.132  0.00  0.00    +0.024 A 
ATOM     33  C   UNL     1      80.497  48.821  19.898  0.00  0.00    +0.007 A 
ATOM     34  C   UNL     1      81.098  48.920  18.598  0.00  0.00    -0.029 A 
ATOM     35  C   UNL     1      82.281  49.897  18.406  0.00  0.00    +0.045 C 
ENDROOT
BRANCH  10   9
ATOM      4  C   UNL     1      84.030  47.128  14.345  0.00  0.00    +0.077 A 
ATOM      5  C   UNL     1      84.845  46.492  15.339  0.00  0.00    +0.048 A 
ATOM      6  C   UNL     1      84.338  46.438  16.656  0.00  0.00    +0.116 A 
ATOM      7  N   UNL     1      83.106  46.982  16.947  0.00  0.00    -0.223 NA
ATOM      8  C   UNL     1      82.346  47.590  15.965  0.00  0.00    +0.220 A 
ATOM      9  N   UNL     1      81.100  48.137  16.233  0.00  0.00    -0.283 N 
ATOM     36  H   UNL     1      80.574  48.584  15.483  0.00  0.00    +0.155 HD
ATOM     37  N   UNL     1      82.808  47.656  14.699  0.00  0.00    -0.214 NA
BRANCH   4   3
ATOM      1  C   UNL     1      85.095  48.619  10.889  0.00  0.00    +0.020 A 
ATOM      2  C   UNL     1      84.716  48.545  12.281  0.00  0.00    +0.013 A 
ATOM      3  C   UNL     1      84.426  47.261  12.907  0.00  0.00    +0.019 A 
ATOM     38  C   UNL     1      84.531  46.061  12.091  0.00  0.00    +0.120 A 
ATOM     39  N   UNL     1      84.897  46.163  10.752  0.00  0.00    -0.263 NA
ATOM     40  C   UNL     1      85.177  47.393  10.138  0.00  0.00    +0.111 A 
ENDBRANCH   4   3
ENDBRANCH  10   9
BRANCH  12  13
ATOM     13  N   UNL     1      77.775  46.223  19.400  0.00  0.00    -0.281 N 
ATOM     14  C   UNL     1      77.834  44.896  19.792  0.00  0.00    +0.248 C 
ATOM     30  O   UNL     1      78.837  44.200  19.727  0.00  0.00    -0.270 OA
ATOM     31  H   UNL     1      76.841  46.626  19.323  0.00  0.00    +0.155 HD
BRANCH  14  15
ATOM     15  C   UNL     1      76.598  44.243  20.320  0.00  0.00    +0.037 A 
ATOM     16  C   UNL     1      76.628  42.879  20.854  0.00  0.00    +0.013 A 
ATOM     17  C   UNL     1      75.418  42.266  21.341  0.00  0.00    +0.005 A 
ATOM     18  C   UNL     1      74.166  43.019  21.298  0.00  0.00    -0.033 A 
ATOM     28  C   UNL     1      74.166  44.372  20.768  0.00  0.00    +0.005 A 
ATOM     29  C   UNL     1      75.350  44.976  20.289  0.00  0.00    +0.013 A 
BRANCH  18  19
ATOM     19  C   UNL     1      72.823  42.437  21.777  0.00  0.00    +0.119 C 
BRANCH  19  20
ATOM     20  N   UNL     1      72.525  41.018  21.417  0.00  0.00    -0.302 NA
ATOM     21  C   UNL     1      72.352  40.833  19.906  0.00  0.00    +0.066 C 
ATOM     22  C   UNL     1      72.064  39.340  19.545  0.00  0.00    -0.064 C 
ATOM     23  N   UNL     1      70.817  38.868  20.295  0.00  0.00    +0.379 N 
ATOM     24  C   UNL     1      70.509  37.482  19.913  0.00  0.00    -0.096 C 
ATOM     25  H   UNL     1      69.964  39.507  19.967  0.00  0.00    -0.082 HD
ATOM     26  C   UNL     1      70.979  39.051  21.797  0.00  0.00    -0.064 C 
ATOM     27  C   UNL     1      71.295  40.534  22.143  0.00  0.00    +0.066 C 
ENDBRANCH  19  20
ENDBRANCH  18  19
ENDBRANCH  14  15
ENDBRANCH  12  13
TORSDOF 6
ENDMDL
MODEL 5
REMARK VINA RESULT:      -8.3      3.475     12.863
REMARK  Name = C:\Users\Docking\Desktop\test protocol\1iep_ligandH.pdb
REMARK  8 active torsions:
REMARK  status: ('A' for Active; 'I' for Inactive)
REMARK    1  A    between atoms: _5  and  _11
REMARK    2  A    between atoms: _19  and  _21
REMARK    3  A    between atoms: _22  and  _66
REMARK    4  A    between atoms: _27  and  _30
REMARK    5  A    between atoms: _32  and  _33
REMARK    6  A    between atoms: _38  and  _43
REMARK    7  A    between atoms: _43  and  _46
REMARK    8  A    between atoms: _53  and  _55
REMARK                            x       y       z     vdW  Elec       q    Type
REMARK                         _______ _______ _______ _____ _____    ______ ____
ROOT
ATOM     10  C   UNL     1      80.143  46.994  18.524  0.00  0.00    +0.038 A 
ATOM     11  C   UNL     1      79.175  46.066  18.983  0.00  0.00    +0.047 A 
ATOM     12  C   UNL     1      77.809  46.093  18.484  0.00  0.00    +0.035 A 
ATOM     32  C   UNL     1      77.464  47.079  17.514  0.00  0.00    +0.024 A 
ATOM     33  C   UNL     1      78.436  48.031  17.036  0.00  0.00    +0.007 A 
ATOM     34  C   UNL     1      79.784  48.010  17.527  0.00  0.00    -0.029 A 
ATOM     35  C   UNL     1      80.782  49.060  16.984  0.00  0.00    +0.045 C 
ENDROOT
BRANCH  10   9
ATOM      4  C   UNL     1      83.449  48.062  21.835  0.00  0.00    +0.077 A 
ATOM      5  C   UNL     1      82.521  48.852  22.592  0.00  0.00    +0.048 A 
ATOM      6  C   UNL     1      81.205  48.964  22.091  0.00  0.00    +0.116 A 
ATOM      7  N   UNL     1      80.854  48.329  20.920  0.00  0.00    -0.223 NA
ATOM      8  C   UNL     1      81.773  47.576  20.213  0.00  0.00    +0.220 A 
ATOM      9  N   UNL     1      81.440  46.922  19.037  0.00  0.00    -0.283 N 
ATOM     36  H   UNL     1      82.149  46.382  18.542  0.00  0.00    +0.155 HD
ATOM     37  N   UNL     1      83.037  47.454  20.670  0.00  0.00    -0.214 NA
BRANCH   4   3
ATOM      1  C   UNL     1      87.073  48.632  23.194  0.00  0.00    +0.020 A 
ATOM      2  C   UNL     1      85.701  48.893  22.823  0.00  0.00    +0.013 A 
ATOM      3  C   UNL     1      84.875  47.845  22.237  0.00  0.00    +0.019 A 
ATOM     38  C   UNL     1      85.472  46.533  22.038  0.00  0.00    +0.120 A 
ATOM     39  N   UNL     1      86.796  46.311  22.403  0.00  0.00    -0.263 NA
ATOM     40  C   UNL     1      87.601  47.313  22.967  0.00  0.00    +0.111 A 
ENDBRANCH   4   3
ENDBRANCH  10   9
BRANCH  12  13
ATOM     13  N   UNL     1      76.780  45.181  18.920  0.00  0.00    -0.281 N 
ATOM     14  C   UNL     1      76.937  43.905  19.434  0.00  0.00    +0.248 C 
ATOM     30  O   UNL     1      77.979  43.268  19.398  0.00  0.00    -0.270 OA
ATOM     31  H   UNL     1      75.821  45.518  18.839  0.00  0.00    +0.155 HD
BRANCH  14  15
ATOM     15  C   UNL     1      75.761  43.232  20.067  0.00  0.00    +0.037 A 
ATOM     16  C   UNL     1      75.919  42.005  20.852  0.00  0.00    +0.013 A 
ATOM     17  C   UNL     1      74.767  41.368  21.437  0.00  0.00    +0.005 A 
ATOM     18  C   UNL     1      73.445  41.958  21.241  0.00  0.00    -0.033 A 
ATOM     28  C   UNL     1      73.317  43.179  20.462  0.00  0.00    +0.005 A 
ATOM     29  C   UNL     1      74.445  43.806  19.886  0.00  0.00    +0.013 A 
BRANCH  18  19
ATOM     19  C   UNL     1      72.157  41.334  21.811  0.00  0.00    +0.119 C 
BRANCH  19  20
ATOM     20  N   UNL     1      71.840  39.932  21.408  0.00  0.00    -0.302 NA
ATOM     21  C   UNL     1      71.609  39.806  19.899  0.00  0.00    +0.066 C 
ATOM     22  C   UNL     1      71.301  38.328  19.491  0.00  0.00    -0.064 C 
ATOM     23  N   UNL     1      70.081  37.832  20.269  0.00  0.00    +0.379 N 
ATOM     24  C   UNL     1      69.753  36.463  19.846  0.00  0.00    -0.096 C 
ATOM     25  H   UNL     1      69.219  38.485  19.998  0.00  0.00    -0.082 HD
ATOM     26  C   UNL     1      70.301  37.956  21.770  0.00  0.00    -0.064 C 
ATOM     27  C   UNL     1      70.635  39.423  22.160  0.00  0.00    +0.066 C 
ENDBRANCH  19  20
ENDBRANCH  18  19
ENDBRANCH  14  15
ENDBRANCH  12  13
TORSDOF 6
ENDMDL
