MODEL 1
REMARK VINA RESULT:      -7.6      0.000      0.000
REMARK  Name = C:\Users\Docking\Desktop\test protocol\1iep_ligandH.pdb
REMARK  8 active torsions:
REMARK  status: ('A' for Active; 'I' for Inactive)
REMARK    1  A    between atoms: _5  and  _11
REMARK    2  A    between atoms: _19  and  _21
REMARK    3  A    between atoms: _22  and  _66
REMARK    4  A    between atoms: _27  and  _30
REMARK    5  A    between atoms: _32  and  _33
REMARK    6  A    between atoms: _38  and  _43
REMARK    7  A    between atoms: _43  and  _46
REMARK    8  A    between atoms: _53  and  _55
REMARK                            x       y       z     vdW  Elec       q    Type
REMARK                         _______ _______ _______ _____ _____    ______ ____
ROOT
ATOM     10  C   UNL     1      42.051   6.617  -5.111  0.00  0.00    +0.038 A 
ATOM     11  C   UNL     1      42.623   5.427  -4.593  0.00  0.00    +0.047 A 
ATOM     12  C   UNL     1      43.166   4.407  -5.476  0.00  0.00    +0.035 A 
ATOM     32  C   UNL     1      43.111   4.632  -6.882  0.00  0.00    +0.024 A 
ATOM     33  C   UNL     1      42.532   5.835  -7.426  0.00  0.00    +0.007 A 
ATOM     34  C   UNL     1      41.993   6.844  -6.560  0.00  0.00    -0.029 A 
ATOM     35  C   UNL     1      41.378   8.112  -7.198  0.00  0.00    +0.045 C 
ENDROOT
BRANCH  10   9
ATOM      4  C   UNL     1      42.541  10.501  -2.334  0.00  0.00    +0.077 A 
ATOM      5  C   UNL     1      43.928  10.641  -2.672  0.00  0.00    +0.048 A 
ATOM      6  C   UNL     1      44.479   9.688  -3.558  0.00  0.00    +0.116 A 
ATOM      7  N   UNL     1      43.692   8.676  -4.062  0.00  0.00    -0.223 NA
ATOM      8  C   UNL     1      42.358   8.569  -3.715  0.00  0.00    +0.220 A 
ATOM      9  N   UNL     1      41.546   7.564  -4.217  0.00  0.00    -0.283 N 
ATOM     36  H   UNL     1      40.568   7.515  -3.930  0.00  0.00    +0.155 HD
ATOM     37  N   UNL     1      41.808   9.466  -2.869  0.00  0.00    -0.214 NA
BRANCH   4   3
ATOM      1  C   UNL     1      39.718  12.546  -0.558  0.00  0.00    +0.020 A 
ATOM      2  C   UNL     1      40.372  11.637  -1.471  0.00  0.00    +0.013 A 
ATOM      3  C   UNL     1      41.813  11.431  -1.413  0.00  0.00    +0.019 A 
ATOM     38  C   UNL     1      42.570  12.166  -0.411  0.00  0.00    +0.120 A 
ATOM     39  N   UNL     1      41.914  13.036   0.454  0.00  0.00    -0.263 NA
ATOM     40  C   UNL     1      40.527  13.243   0.406  0.00  0.00    +0.111 A 
ENDBRANCH   4   3
ENDBRANCH  10   9
BRANCH  12  13
ATOM     13  N   UNL     1      43.752   3.175  -5.008  0.00  0.00    -0.281 N 
ATOM     14  C   UNL     1      44.231   2.888  -3.741  0.00  0.00    +0.248 C 
ATOM     30  O   UNL     1      44.425   3.723  -2.869  0.00  0.00    -0.270 OA
ATOM     31  H   UNL     1      43.821   2.424  -5.695  0.00  0.00    +0.155 HD
BRANCH  14  15
ATOM     15  C   UNL     1      44.556   1.470  -3.396  0.00  0.00    +0.037 A 
ATOM     16  C   UNL     1      44.884   0.491  -4.435  0.00  0.00    +0.013 A 
ATOM     17  C   UNL     1      45.176  -0.874  -4.077  0.00  0.00    +0.005 A 
ATOM     18  C   UNL     1      45.144  -1.268  -2.670  0.00  0.00    -0.033 A 
ATOM     28  C   UNL     1      44.821  -0.275  -1.659  0.00  0.00    +0.005 A 
ATOM     29  C   UNL     1      44.533   1.064  -2.007  0.00  0.00    +0.013 A 
BRANCH  18  19
ATOM     19  C   UNL     1      45.422  -2.707  -2.198  0.00  0.00    +0.119 C 
BRANCH  19  20
ATOM     20  N   UNL     1      45.157  -3.809  -3.170  0.00  0.00    -0.302 NA
ATOM     21  C   UNL     1      44.293  -4.917  -2.560  0.00  0.00    +0.066 C 
ATOM     22  C   UNL     1      44.006  -6.051  -3.598  0.00  0.00    -0.064 C 
ATOM     23  N   UNL     1      45.332  -6.617  -4.110  0.00  0.00    +0.379 N 
ATOM     24  C   UNL     1      45.065  -7.722  -5.042  0.00  0.00    -0.096 C 
ATOM     25  H   UNL     1      45.880  -7.037  -3.235  0.00  0.00    -0.082 HD
ATOM     26  C   UNL     1      46.197  -5.521  -4.715  0.00  0.00    -0.064 C 
ATOM     27  C   UNL     1      46.452  -4.386  -3.685  0.00  0.00    +0.066 C 
ENDBRANCH  19  20
ENDBRANCH  18  19
ENDBRANCH  14  15
ENDBRANCH  12  13
TORSDOF 6
ENDMDL
MODEL 2
REMARK VINA RESULT:      -7.5      3.640      6.868
REMARK  Name = C:\Users\Docking\Desktop\test protocol\1iep_ligandH.pdb
REMARK  8 active torsions:
REMARK  status: ('A' for Active; 'I' for Inactive)
REMARK    1  A    between atoms: _5  and  _11
REMARK    2  A    between atoms: _19  and  _21
REMARK    3  A    between atoms: _22  and  _66
REMARK    4  A    between atoms: _27  and  _30
REMARK    5  A    between atoms: _32  and  _33
REMARK    6  A    between atoms: _38  and  _43
REMARK    7  A    between atoms: _43  and  _46
REMARK    8  A    between atoms: _53  and  _55
REMARK                            x       y       z     vdW  Elec       q    Type
REMARK                         _______ _______ _______ _____ _____    ______ ____
ROOT
ATOM     10  C   UNL     1      42.401  11.796  -0.078  0.00  0.00    +0.038 A 
ATOM     11  C   UNL     1      42.674  10.530  -0.656  0.00  0.00    +0.047 A 
ATOM     12  C   UNL     1      41.644   9.790  -1.368  0.00  0.00    +0.035 A 
ATOM     32  C   UNL     1      40.347  10.370  -1.475  0.00  0.00    +0.024 A 
ATOM     33  C   UNL     1      40.052  11.656  -0.892  0.00  0.00    +0.007 A 
ATOM     34  C   UNL     1      41.063  12.389  -0.187  0.00  0.00    -0.029 A 
ATOM     35  C   UNL     1      40.689  13.760   0.423  0.00  0.00    +0.045 C 
ENDROOT
BRANCH  10   9
ATOM      4  C   UNL     1      46.881  13.500   0.186  0.00  0.00    +0.077 A 
ATOM      5  C   UNL     1      47.212  12.996  -1.116  0.00  0.00    +0.048 A 
ATOM      6  C   UNL     1      46.204  12.298  -1.818  0.00  0.00    +0.116 A 
ATOM      7  N   UNL     1      44.960  12.123  -1.250  0.00  0.00    -0.223 NA
ATOM      8  C   UNL     1      44.674  12.620   0.008  0.00  0.00    +0.220 A 
ATOM      9  N   UNL     1      43.428  12.462   0.595  0.00  0.00    -0.283 N 
ATOM     36  H   UNL     1      43.259  12.838   1.528  0.00  0.00    +0.155 HD
ATOM     37  N   UNL     1      45.620  13.289   0.699  0.00  0.00    -0.214 NA
BRANCH   4   3
ATOM      1  C   UNL     1      49.354  16.223   1.515  0.00  0.00    +0.020 A 
ATOM      2  C   UNL     1      48.435  15.527   0.644  0.00  0.00    +0.013 A 
ATOM      3  C   UNL     1      47.838  14.262   1.049  0.00  0.00    +0.019 A 
ATOM     38  C   UNL     1      48.193  13.723   2.353  0.00  0.00    +0.120 A 
ATOM     39  N   UNL     1      49.081  14.414   3.171  0.00  0.00    -0.263 NA
ATOM     40  C   UNL     1      49.664  15.632   2.791  0.00  0.00    +0.111 A 
ENDBRANCH   4   3
ENDBRANCH  10   9
BRANCH  12  13
ATOM     13  N   UNL     1      41.861   8.497  -1.968  0.00  0.00    -0.281 N 
ATOM     14  C   UNL     1      42.631   8.191  -3.078  0.00  0.00    +0.248 C 
ATOM     30  O   UNL     1      43.083   9.019  -3.855  0.00  0.00    -0.270 OA
ATOM     31  H   UNL     1      41.388   7.711  -1.521  0.00  0.00    +0.155 HD
BRANCH  14  15
ATOM     15  C   UNL     1      42.931   6.758  -3.377  0.00  0.00    +0.037 A 
ATOM     16  C   UNL     1      44.216   6.157  -3.007  0.00  0.00    +0.013 A 
ATOM     17  C   UNL     1      44.486   4.777  -3.321  0.00  0.00    +0.005 A 
ATOM     18  C   UNL     1      43.468   3.987  -4.010  0.00  0.00    -0.033 A 
ATOM     28  C   UNL     1      42.201   4.606  -4.360  0.00  0.00    +0.005 A 
ATOM     29  C   UNL     1      41.932   5.959  -4.054  0.00  0.00    +0.013 A 
BRANCH  18  19
ATOM     19  C   UNL     1      43.678   2.513  -4.404  0.00  0.00    +0.119 C 
BRANCH  19  20
ATOM     20  N   UNL     1      44.851   1.806  -3.807  0.00  0.00    -0.302 NA
ATOM     21  C   UNL     1      45.418   0.738  -4.747  0.00  0.00    +0.066 C 
ATOM     22  C   UNL     1      46.657   0.025  -4.116  0.00  0.00    -0.064 C 
ATOM     23  N   UNL     1      46.258  -0.592  -2.774  0.00  0.00    +0.379 N 
ATOM     24  C   UNL     1      47.406  -1.314  -2.205  0.00  0.00    -0.096 C 
ATOM     25  H   UNL     1      45.454  -1.338  -2.971  0.00  0.00    -0.082 HD
ATOM     26  C   UNL     1      45.691   0.462  -1.834  0.00  0.00    -0.064 C 
ATOM     27  C   UNL     1      44.478   1.185  -2.483  0.00  0.00    +0.066 C 
ENDBRANCH  19  20
ENDBRANCH  18  19
ENDBRANCH  14  15
ENDBRANCH  12  13
TORSDOF 6
ENDMDL
MODEL 3
REMARK VINA RESULT:      -7.5     24.815     28.496
REMARK  Name = C:\Users\Docking\Desktop\test protocol\1iep_ligandH.pdb
REMARK  8 active torsions:
REMARK  status: ('A' for Active; 'I' for Inactive)
REMARK    1  A    between atoms: _5  and  _11
REMARK    2  A    between atoms: _19  and  _21
REMARK    3  A    between atoms: _22  and  _66
REMARK    4  A    between atoms: _27  and  _30
REMARK    5  A    between atoms: _32  and  _33
REMARK    6  A    between atoms: _38  and  _43
REMARK    7  A    between atoms: _43  and  _46
REMARK    8  A    between atoms: _53  and  _55
REMARK                            x       y       z     vdW  Elec       q    Type
REMARK                         _______ _______ _______ _____ _____    ______ ____
ROOT
ATOM     10  C   UNL     1      35.746  25.414   8.587  0.00  0.00    +0.038 A 
ATOM     11  C   UNL     1      34.687  25.268   9.518  0.00  0.00    +0.047 A 
ATOM     12  C   UNL     1      34.799  24.361  10.650  0.00  0.00    +0.035 A 
ATOM     32  C   UNL     1      36.007  23.620  10.805  0.00  0.00    +0.024 A 
ATOM     33  C   UNL     1      37.094  23.756   9.867  0.00  0.00    +0.007 A 
ATOM     34  C   UNL     1      36.987  24.647   8.747  0.00  0.00    -0.029 A 
ATOM     35  C   UNL     1      38.181  24.747   7.769  0.00  0.00    +0.045 C 
ENDROOT
BRANCH  10   9
ATOM      4  C   UNL     1      34.439  26.410   4.077  0.00  0.00    +0.077 A 
ATOM      5  C   UNL     1      34.073  25.046   3.819  0.00  0.00    +0.048 A 
ATOM      6  C   UNL     1      34.244  24.119   4.871  0.00  0.00    +0.116 A 
ATOM      7  N   UNL     1      34.743  24.535   6.087  0.00  0.00    -0.223 NA
ATOM      8  C   UNL     1      35.087  25.857   6.301  0.00  0.00    +0.220 A 
ATOM      9  N   UNL     1      35.584  26.298   7.518  0.00  0.00    -0.283 N 
ATOM     36  H   UNL     1      35.833  27.280   7.634  0.00  0.00    +0.155 HD
ATOM     37  N   UNL     1      34.936  26.761   5.312  0.00  0.00    -0.214 NA
BRANCH   4   3
ATOM      1  C   UNL     1      34.237  28.366   0.696  0.00  0.00    +0.020 A 
ATOM      2  C   UNL     1      34.363  27.270   1.629  0.00  0.00    +0.013 A 
ATOM      3  C   UNL     1      34.314  27.507   3.066  0.00  0.00    +0.019 A 
ATOM     38  C   UNL     1      34.135  28.875   3.530  0.00  0.00    +0.120 A 
ATOM     39  N   UNL     1      34.017  29.910   2.607  0.00  0.00    -0.263 NA
ATOM     40  C   UNL     1      34.065  29.694   1.222  0.00  0.00    +0.111 A 
ENDBRANCH   4   3
ENDBRANCH  10   9
BRANCH  12  13
ATOM     13  N   UNL     1      33.754  24.166  11.624  0.00  0.00    -0.281 N 
ATOM     14  C   UNL     1      33.533  24.878  12.791  0.00  0.00    +0.248 C 
ATOM     30  O   UNL     1      34.331  25.660  13.285  0.00  0.00    -0.270 OA
ATOM     31  H   UNL     1      33.097  23.410  11.428  0.00  0.00    +0.155 HD
BRANCH  14  15
ATOM     15  C   UNL     1      32.244  24.684  13.522  0.00  0.00    +0.037 A 
ATOM     16  C   UNL     1      31.284  23.657  13.110  0.00  0.00    +0.013 A 
ATOM     17  C   UNL     1      30.040  23.502  13.822  0.00  0.00    +0.005 A 
ATOM     18  C   UNL     1      29.750  24.377  14.956  0.00  0.00    -0.033 A 
ATOM     28  C   UNL     1      30.722  25.384  15.346  0.00  0.00    +0.005 A 
ATOM     29  C   UNL     1      31.942  25.540  14.650  0.00  0.00    +0.013 A 
BRANCH  18  19
ATOM     19  C   UNL     1      28.439  24.297  15.760  0.00  0.00    +0.119 C 
BRANCH  19  20
ATOM     20  N   UNL     1      28.362  23.270  16.842  0.00  0.00    -0.302 NA
ATOM     21  C   UNL     1      29.741  22.942  17.422  0.00  0.00    +0.066 C 
ATOM     22  C   UNL     1      29.639  21.883  18.568  0.00  0.00    -0.064 C 
ATOM     23  N   UNL     1      28.964  20.620  18.032  0.00  0.00    +0.379 N 
ATOM     24  C   UNL     1      28.919  19.601  19.090  0.00  0.00    -0.096 C 
ATOM     25  H   UNL     1      29.598  20.222  17.205  0.00  0.00    -0.082 HD
ATOM     26  C   UNL     1      27.593  20.937  17.450  0.00  0.00    -0.064 C 
ATOM     27  C   UNL     1      27.702  22.012  16.333  0.00  0.00    +0.066 C 
ENDBRANCH  19  20
ENDBRANCH  18  19
ENDBRANCH  14  15
ENDBRANCH  12  13
TORSDOF 6
ENDMDL
MODEL 4
REMARK VINA RESULT:      -7.5     16.354     20.668
REMARK  Name = C:\Users\Docking\Desktop\test protocol\1iep_ligandH.pdb
REMARK  8 active torsions:
REMARK  status: ('A' for Active; 'I' for Inactive)
REMARK    1  A    between atoms: _5  and  _11
REMARK    2  A    between atoms: _19  and  _21
REMARK    3  A    between atoms: _22  and  _66
REMARK    4  A    between atoms: _27  and  _30
REMARK    5  A    between atoms: _32  and  _33
REMARK    6  A    between atoms: _38  and  _43
REMARK    7  A    between atoms: _43  and  _46
REMARK    8  A    between atoms: _53  and  _55
REMARK                            x       y       z     vdW  Elec       q    Type
REMARK                         _______ _______ _______ _____ _____    ______ ____
ROOT
ATOM     10  C   UNL     1      35.111  -9.414   4.997  0.00  0.00    +0.038 A 
ATOM     11  C   UNL     1      34.612  -8.984   3.741  0.00  0.00    +0.047 A 
ATOM     12  C   UNL     1      35.487  -8.862   2.585  0.00  0.00    +0.035 A 
ATOM     32  C   UNL     1      36.865  -9.190   2.743  0.00  0.00    +0.024 A 
ATOM     33  C   UNL     1      37.389  -9.628   4.013  0.00  0.00    +0.007 A 
ATOM     34  C   UNL     1      36.532  -9.748   5.157  0.00  0.00    -0.029 A 
ATOM     35  C   UNL     1      37.150 -10.216   6.495  0.00  0.00    +0.045 C 
ENDROOT
BRANCH  10   9
ATOM      4  C   UNL     1      31.756 -11.744   7.518  0.00  0.00    +0.077 A 
ATOM      5  C   UNL     1      31.746 -12.845   6.598  0.00  0.00    +0.048 A 
ATOM      6  C   UNL     1      32.613 -12.770   5.486  0.00  0.00    +0.116 A 
ATOM      7  N   UNL     1      33.427 -11.670   5.316  0.00  0.00    -0.223 NA
ATOM      8  C   UNL     1      33.411 -10.625   6.220  0.00  0.00    +0.220 A 
ATOM      9  N   UNL     1      34.227  -9.513   6.073  0.00  0.00    -0.283 N 
ATOM     36  H   UNL     1      34.180  -8.760   6.759  0.00  0.00    +0.155 HD
ATOM     37  N   UNL     1      32.591 -10.672   7.290  0.00  0.00    -0.214 NA
BRANCH   4   3
ATOM      1  C   UNL     1      29.011 -12.505  10.199  0.00  0.00    +0.020 A 
ATOM      2  C   UNL     1      29.809 -12.612   8.999  0.00  0.00    +0.013 A 
ATOM      3  C   UNL     1      30.899 -11.678   8.743  0.00  0.00    +0.019 A 
ATOM     38  C   UNL     1      31.157 -10.640   9.730  0.00  0.00    +0.120 A 
ATOM     39  N   UNL     1      30.371 -10.560  10.875  0.00  0.00    -0.263 NA
ATOM     40  C   UNL     1      29.319 -11.452  11.131  0.00  0.00    +0.111 A 
ENDBRANCH   4   3
ENDBRANCH  10   9
BRANCH  12  13
ATOM     13  N   UNL     1      35.038  -8.422   1.287  0.00  0.00    -0.281 N 
ATOM     14  C   UNL     1      34.764  -9.198   0.173  0.00  0.00    +0.248 C 
ATOM     30  O   UNL     1      35.070 -10.376   0.059  0.00  0.00    -0.270 OA
ATOM     31  H   UNL     1      34.907  -7.417   1.177  0.00  0.00    +0.155 HD
BRANCH  14  15
ATOM     15  C   UNL     1      34.062  -8.572  -0.988  0.00  0.00    +0.037 A 
ATOM     16  C   UNL     1      33.606  -9.376  -2.124  0.00  0.00    +0.013 A 
ATOM     17  C   UNL     1      32.946  -8.744  -3.239  0.00  0.00    +0.005 A 
ATOM     18  C   UNL     1      32.738  -7.298  -3.223  0.00  0.00    -0.033 A 
ATOM     28  C   UNL     1      33.196  -6.525  -2.081  0.00  0.00    +0.005 A 
ATOM     29  C   UNL     1      33.844  -7.141  -0.986  0.00  0.00    +0.013 A 
BRANCH  18  19
ATOM     19  C   UNL     1      32.062  -6.537  -4.379  0.00  0.00    +0.119 C 
BRANCH  19  20
ATOM     20  N   UNL     1      31.652  -7.333  -5.574  0.00  0.00    -0.302 NA
ATOM     21  C   UNL     1      32.118  -6.687  -6.882  0.00  0.00    +0.066 C 
ATOM     22  C   UNL     1      31.700  -7.545  -8.120  0.00  0.00    -0.064 C 
ATOM     23  N   UNL     1      30.182  -7.730  -8.120  0.00  0.00    +0.379 N 
ATOM     24  C   UNL     1      29.780  -8.487  -9.314  0.00  0.00    -0.096 C 
ATOM     25  H   UNL     1      29.718  -6.719  -8.187  0.00  0.00    -0.082 HD
ATOM     26  C   UNL     1      29.709  -8.369  -6.821  0.00  0.00    -0.064 C 
ATOM     27  C   UNL     1      30.155  -7.525  -5.595  0.00  0.00    +0.066 C 
ENDBRANCH  19  20
ENDBRANCH  18  19
ENDBRANCH  14  15
ENDBRANCH  12  13
TORSDOF 6
ENDMDL
MODEL 5
REMARK VINA RESULT:      -7.5     15.880     20.070
REMARK  Name = C:\Users\Docking\Desktop\test protocol\1iep_ligandH.pdb
REMARK  8 active torsions:
REMARK  status: ('A' for Active; 'I' for Inactive)
REMARK    1  A    between atoms: _5  and  _11
REMARK    2  A    between atoms: _19  and  _21
REMARK    3  A    between atoms: _22  and  _66
REMARK    4  A    between atoms: _27  and  _30
REMARK    5  A    between atoms: _32  and  _33
REMARK    6  A    between atoms: _38  and  _43
REMARK    7  A    between atoms: _43  and  _46
REMARK    8  A    between atoms: _53  and  _55
REMARK                            x       y       z     vdW  Elec       q    Type
REMARK                         _______ _______ _______ _____ _____    ______ ____
ROOT
ATOM     10  C   UNL     1      35.752 -10.125  -0.387  0.00  0.00    +0.038 A 
ATOM     11  C   UNL     1      35.157 -10.292   0.890  0.00  0.00    +0.047 A 
ATOM     12  C   UNL     1      35.971 -10.505   2.077  0.00  0.00    +0.035 A 
ATOM     32  C   UNL     1      37.388 -10.538   1.928  0.00  0.00    +0.024 A 
ATOM     33  C   UNL     1      38.009 -10.370   0.638  0.00  0.00    +0.007 A 
ATOM     34  C   UNL     1      37.212 -10.163  -0.537  0.00  0.00    -0.029 A 
ATOM     35  C   UNL     1      37.932  -9.997  -1.896  0.00  0.00    +0.045 C 
ENDROOT
BRANCH  10   9
ATOM      4  C   UNL     1      32.687  -7.469  -2.953  0.00  0.00    +0.077 A 
ATOM      5  C   UNL     1      32.718  -6.401  -1.995  0.00  0.00    +0.048 A 
ATOM      6  C   UNL     1      33.530  -6.578  -0.852  0.00  0.00    +0.116 A 
ATOM      7  N   UNL     1      34.253  -7.740  -0.690  0.00  0.00    -0.223 NA
ATOM      8  C   UNL     1      34.199  -8.751  -1.632  0.00  0.00    +0.220 A 
ATOM      9  N   UNL     1      34.923  -9.924  -1.493  0.00  0.00    -0.283 N 
ATOM     36  H   UNL     1      34.851 -10.649  -2.207  0.00  0.00    +0.155 HD
ATOM     37  N   UNL     1      33.430  -8.607  -2.731  0.00  0.00    -0.214 NA
BRANCH   4   3
ATOM      1  C   UNL     1      31.617  -7.027  -6.689  0.00  0.00    +0.020 A 
ATOM      2  C   UNL     1      32.440  -7.048  -5.502  0.00  0.00    +0.013 A 
ATOM      3  C   UNL     1      31.879  -7.430  -4.213  0.00  0.00    +0.019 A 
ATOM     38  C   UNL     1      30.470  -7.788  -4.158  0.00  0.00    +0.120 A 
ATOM     39  N   UNL     1      29.701  -7.757  -5.317  0.00  0.00    -0.263 NA
ATOM     40  C   UNL     1      30.230  -7.390  -6.564  0.00  0.00    +0.111 A 
ENDBRANCH   4   3
ENDBRANCH  10   9
BRANCH  12  13
ATOM     13  N   UNL     1      35.422 -10.689   3.398  0.00  0.00    -0.281 N 
ATOM     14  C   UNL     1      34.994  -9.715   4.286  0.00  0.00    +0.248 C 
ATOM     30  O   UNL     1      35.217  -8.520   4.161  0.00  0.00    -0.270 OA
ATOM     31  H   UNL     1      35.340 -11.654   3.717  0.00  0.00    +0.155 HD
BRANCH  14  15
ATOM     15  C   UNL     1      34.219 -10.131   5.494  0.00  0.00    +0.037 A 
ATOM     16  C   UNL     1      34.879 -10.757   6.642  0.00  0.00    +0.013 A 
ATOM     17  C   UNL     1      34.104 -11.164   7.788  0.00  0.00    +0.005 A 
ATOM     18  C   UNL     1      32.660 -10.944   7.791  0.00  0.00    -0.033 A 
ATOM     28  C   UNL     1      32.032 -10.316   6.640  0.00  0.00    +0.005 A 
ATOM     29  C   UNL     1      32.787  -9.917   5.515  0.00  0.00    +0.013 A 
BRANCH  18  19
ATOM     19  C   UNL     1      31.752 -11.365   8.962  0.00  0.00    +0.119 C 
BRANCH  19  20
ATOM     20  N   UNL     1      31.943 -10.658  10.263  0.00  0.00    -0.302 NA
ATOM     21  C   UNL     1      32.668 -11.532  11.291  0.00  0.00    +0.066 C 
ATOM     22  C   UNL     1      32.879 -10.769  12.639  0.00  0.00    -0.064 C 
ATOM     23  N   UNL     1      31.523 -10.309  13.179  0.00  0.00    +0.379 N 
ATOM     24  C   UNL     1      31.712  -9.642  14.476  0.00  0.00    -0.096 C 
ATOM     25  H   UNL     1      30.903 -11.219  13.354  0.00  0.00    -0.082 HD
ATOM     26  C   UNL     1      30.794  -9.442  12.162  0.00  0.00    -0.064 C 
ATOM     27  C   UNL     1      30.616 -10.200  10.817  0.00  0.00    +0.066 C 
ENDBRANCH  19  20
ENDBRANCH  18  19
ENDBRANCH  14  15
ENDBRANCH  12  13
TORSDOF 6
ENDMDL
