MODEL 1
REMARK VINA RESULT:      -8.0      0.000      0.000
REMARK  Name = C:\Users\Docking\Desktop\test protocol\1iep_ligandH.pdb
REMARK  8 active torsions:
REMARK  status: ('A' for Active; 'I' for Inactive)
REMARK    1  A    between atoms: _5  and  _11
REMARK    2  A    between atoms: _19  and  _21
REMARK    3  A    between atoms: _22  and  _66
REMARK    4  A    between atoms: _27  and  _30
REMARK    5  A    between atoms: _32  and  _33
REMARK    6  A    between atoms: _38  and  _43
REMARK    7  A    between atoms: _43  and  _46
REMARK    8  A    between atoms: _53  and  _55
REMARK                            x       y       z     vdW  Elec       q    Type
REMARK                         _______ _______ _______ _____ _____    ______ ____
ROOT
ATOM     10  C   UNL     1      16.060  41.848  -5.689  0.00  0.00    +0.038 A 
ATOM     11  C   UNL     1      15.293  41.854  -6.882  0.00  0.00    +0.047 A 
ATOM     12  C   UNL     1      15.808  41.269  -8.111  0.00  0.00    +0.035 A 
ATOM     32  C   UNL     1      17.108  40.684  -8.087  0.00  0.00    +0.024 A 
ATOM     33  C   UNL     1      17.902  40.671  -6.883  0.00  0.00    +0.007 A 
ATOM     34  C   UNL     1      17.400  41.248  -5.670  0.00  0.00    -0.029 A 
ATOM     35  C   UNL     1      18.297  41.211  -4.410  0.00  0.00    +0.045 C 
ENDROOT
BRANCH  10   9
ATOM      4  C   UNL     1      13.376  41.640  -1.716  0.00  0.00    +0.077 A 
ATOM      5  C   UNL     1      13.004  40.277  -1.968  0.00  0.00    +0.048 A 
ATOM      6  C   UNL     1      13.519  39.669  -3.134  0.00  0.00    +0.116 A 
ATOM      7  N   UNL     1      14.344  40.379  -3.979  0.00  0.00    -0.223 NA
ATOM      8  C   UNL     1      14.682  41.692  -3.707  0.00  0.00    +0.220 A 
ATOM      9  N   UNL     1      15.516  42.424  -4.539  0.00  0.00    -0.283 N 
ATOM     36  H   UNL     1      15.736  43.392  -4.307  0.00  0.00    +0.155 HD
ATOM     37  N   UNL     1      14.202  42.297  -2.600  0.00  0.00    -0.214 NA
BRANCH   4   3
ATOM      1  C   UNL     1      11.150  43.632   0.809  0.00  0.00    +0.020 A 
ATOM      2  C   UNL     1      11.543  42.883  -0.362  0.00  0.00    +0.013 A 
ATOM      3  C   UNL     1      12.915  42.419  -0.523  0.00  0.00    +0.019 A 
ATOM     38  C   UNL     1      13.872  42.730   0.528  0.00  0.00    +0.120 A 
ATOM     39  N   UNL     1      13.465  43.454   1.644  0.00  0.00    -0.263 NA
ATOM     40  C   UNL     1      12.147  43.908   1.809  0.00  0.00    +0.111 A 
ENDBRANCH   4   3
ENDBRANCH  10   9
BRANCH  12  13
ATOM     13  N   UNL     1      15.079  41.252  -9.354  0.00  0.00    -0.281 N 
ATOM     14  C   UNL     1      13.792  40.793  -9.581  0.00  0.00    +0.248 C 
ATOM     30  O   UNL     1      13.146  40.127  -8.785  0.00  0.00    -0.270 OA
ATOM     31  H   UNL     1      15.572  41.624 -10.167  0.00  0.00    +0.155 HD
BRANCH  14  15
ATOM     15  C   UNL     1      13.132  41.108 -10.884  0.00  0.00    +0.037 A 
ATOM     16  C   UNL     1      13.316  42.407 -11.535  0.00  0.00    +0.013 A 
ATOM     17  C   UNL     1      12.654  42.691 -12.784  0.00  0.00    +0.005 A 
ATOM     18  C   UNL     1      11.802  41.671 -13.391  0.00  0.00    -0.033 A 
ATOM     28  C   UNL     1      11.641  40.388 -12.726  0.00  0.00    +0.005 A 
ATOM     29  C   UNL     1      12.288  40.107 -11.502  0.00  0.00    +0.013 A 
BRANCH  18  19
ATOM     19  C   UNL     1      11.041  41.894 -14.711  0.00  0.00    +0.119 C 
BRANCH  19  20
ATOM     20  N   UNL     1       9.887  42.841 -14.683  0.00  0.00    -0.302 NA
ATOM     21  C   UNL     1       8.564  42.127 -14.394  0.00  0.00    +0.066 C 
ATOM     22  C   UNL     1       7.370  43.136 -14.346  0.00  0.00    -0.064 C 
ATOM     23  N   UNL     1       7.297  43.898 -15.670  0.00  0.00    +0.379 N 
ATOM     24  C   UNL     1       6.141  44.806 -15.650  0.00  0.00    -0.096 C 
ATOM     25  H   UNL     1       7.126  43.151 -16.480  0.00  0.00    -0.082 HD
ATOM     26  C   UNL     1       8.609  44.609 -15.966  0.00  0.00    -0.064 C 
ATOM     27  C   UNL     1       9.793  43.602 -15.983  0.00  0.00    +0.066 C 
ENDBRANCH  19  20
ENDBRANCH  18  19
ENDBRANCH  14  15
ENDBRANCH  12  13
TORSDOF 6
ENDMDL
MODEL 2
REMARK VINA RESULT:      -7.9      1.808      2.742
REMARK  Name = C:\Users\Docking\Desktop\test protocol\1iep_ligandH.pdb
REMARK  8 active torsions:
REMARK  status: ('A' for Active; 'I' for Inactive)
REMARK    1  A    between atoms: _5  and  _11
REMARK    2  A    between atoms: _19  and  _21
REMARK    3  A    between atoms: _22  and  _66
REMARK    4  A    between atoms: _27  and  _30
REMARK    5  A    between atoms: _32  and  _33
REMARK    6  A    between atoms: _38  and  _43
REMARK    7  A    between atoms: _43  and  _46
REMARK    8  A    between atoms: _53  and  _55
REMARK                            x       y       z     vdW  Elec       q    Type
REMARK                         _______ _______ _______ _____ _____    ______ ____
ROOT
ATOM     10  C   UNL     1      16.022  41.893  -5.628  0.00  0.00    +0.038 A 
ATOM     11  C   UNL     1      15.241  41.826  -6.809  0.00  0.00    +0.047 A 
ATOM     12  C   UNL     1      15.768  41.233  -8.028  0.00  0.00    +0.035 A 
ATOM     32  C   UNL     1      17.096  40.715  -8.007  0.00  0.00    +0.024 A 
ATOM     33  C   UNL     1      17.905  40.776  -6.816  0.00  0.00    +0.007 A 
ATOM     34  C   UNL     1      17.391  41.362  -5.611  0.00  0.00    -0.029 A 
ATOM     35  C   UNL     1      18.305  41.406  -4.365  0.00  0.00    +0.045 C 
ENDROOT
BRANCH  10   9
ATOM      4  C   UNL     1      13.333  41.686  -1.657  0.00  0.00    +0.077 A 
ATOM      5  C   UNL     1      12.986  40.314  -1.892  0.00  0.00    +0.048 A 
ATOM      6  C   UNL     1      13.515  39.700  -3.050  0.00  0.00    +0.116 A 
ATOM      7  N   UNL     1      14.329  40.415  -3.902  0.00  0.00    -0.223 NA
ATOM      8  C   UNL     1      14.643  41.737  -3.647  0.00  0.00    +0.220 A 
ATOM      9  N   UNL     1      15.466  42.473  -4.486  0.00  0.00    -0.283 N 
ATOM     36  H   UNL     1      15.667  43.448  -4.266  0.00  0.00    +0.155 HD
ATOM     37  N   UNL     1      14.149  42.347  -2.549  0.00  0.00    -0.214 NA
BRANCH   4   3
ATOM      1  C   UNL     1      11.070  43.685   0.829  0.00  0.00    +0.020 A 
ATOM      2  C   UNL     1      11.479  42.930  -0.333  0.00  0.00    +0.013 A 
ATOM      3  C   UNL     1      12.856  42.472  -0.476  0.00  0.00    +0.019 A 
ATOM     38  C   UNL     1      13.799  42.796   0.583  0.00  0.00    +0.120 A 
ATOM     39  N   UNL     1      13.376  43.526   1.689  0.00  0.00    -0.263 NA
ATOM     40  C   UNL     1      12.055  43.974   1.837  0.00  0.00    +0.111 A 
ENDBRANCH   4   3
ENDBRANCH  10   9
BRANCH  12  13
ATOM     13  N   UNL     1      15.024  41.144  -9.260  0.00  0.00    -0.281 N 
ATOM     14  C   UNL     1      13.742  40.654  -9.447  0.00  0.00    +0.248 C 
ATOM     30  O   UNL     1      13.116  40.018  -8.611  0.00  0.00    -0.270 OA
ATOM     31  H   UNL     1      15.500  41.483 -10.095  0.00  0.00    +0.155 HD
BRANCH  14  15
ATOM     15  C   UNL     1      13.061  40.894 -10.755  0.00  0.00    +0.037 A 
ATOM     16  C   UNL     1      12.048  39.967 -11.266  0.00  0.00    +0.013 A 
ATOM     17  C   UNL     1      11.419  40.213 -12.539  0.00  0.00    +0.005 A 
ATOM     18  C   UNL     1      11.800  41.393 -13.311  0.00  0.00    -0.033 A 
ATOM     28  C   UNL     1      12.804  42.299 -12.778  0.00  0.00    +0.005 A 
ATOM     29  C   UNL     1      13.424  42.061 -11.531  0.00  0.00    +0.013 A 
BRANCH  18  19
ATOM     19  C   UNL     1      11.197  41.723 -14.689  0.00  0.00    +0.119 C 
BRANCH  19  20
ATOM     20  N   UNL     1      11.636  40.887 -15.845  0.00  0.00    -0.302 NA
ATOM     21  C   UNL     1      11.871  41.727 -17.104  0.00  0.00    +0.066 C 
ATOM     22  C   UNL     1      12.352  40.839 -18.298  0.00  0.00    -0.064 C 
ATOM     23  N   UNL     1      11.318  39.743 -18.564  0.00  0.00    +0.379 N 
ATOM     24  C   UNL     1      11.739  38.943 -19.723  0.00  0.00    -0.096 C 
ATOM     25  H   UNL     1      10.357  40.243 -18.828  0.00  0.00    -0.082 HD
ATOM     26  C   UNL     1      11.075  38.906 -17.317  0.00  0.00    -0.064 C 
ATOM     27  C   UNL     1      10.627  39.801 -16.128  0.00  0.00    +0.066 C 
ENDBRANCH  19  20
ENDBRANCH  18  19
ENDBRANCH  14  15
ENDBRANCH  12  13
TORSDOF 6
ENDMDL
MODEL 3
REMARK VINA RESULT:      -7.7     17.484     21.988
REMARK  Name = C:\Users\Docking\Desktop\test protocol\1iep_ligandH.pdb
REMARK  8 active torsions:
REMARK  status: ('A' for Active; 'I' for Inactive)
REMARK    1  A    between atoms: _5  and  _11
REMARK    2  A    between atoms: _19  and  _21
REMARK    3  A    between atoms: _22  and  _66
REMARK    4  A    between atoms: _27  and  _30
REMARK    5  A    between atoms: _32  and  _33
REMARK    6  A    between atoms: _38  and  _43
REMARK    7  A    between atoms: _43  and  _46
REMARK    8  A    between atoms: _53  and  _55
REMARK                            x       y       z     vdW  Elec       q    Type
REMARK                         _______ _______ _______ _____ _____    ______ ____
ROOT
ATOM     10  C   UNL     1       0.521  29.405  -9.409  0.00  0.00    +0.038 A 
ATOM     11  C   UNL     1       0.052  29.823  -8.138  0.00  0.00    +0.047 A 
ATOM     12  C   UNL     1       0.424  31.118  -7.587  0.00  0.00    +0.035 A 
ATOM     32  C   UNL     1       1.272  31.962  -8.361  0.00  0.00    +0.024 A 
ATOM     33  C   UNL     1       1.759  31.552  -9.655  0.00  0.00    +0.007 A 
ATOM     34  C   UNL     1       1.397  30.275 -10.202  0.00  0.00    -0.029 A 
ATOM     35  C   UNL     1       1.953  29.885 -11.591  0.00  0.00    +0.045 C 
ENDROOT
BRANCH  10   9
ATOM      4  C   UNL     1      -2.235  26.591 -12.153  0.00  0.00    +0.077 A 
ATOM      5  C   UNL     1      -2.981  27.709 -12.653  0.00  0.00    +0.048 A 
ATOM      6  C   UNL     1      -2.630  28.991 -12.174  0.00  0.00    +0.116 A 
ATOM      7  N   UNL     1      -1.605  29.132 -11.262  0.00  0.00    -0.223 NA
ATOM      8  C   UNL     1      -0.906  28.033 -10.799  0.00  0.00    +0.220 A 
ATOM      9  N   UNL     1       0.132  28.152  -9.889  0.00  0.00    -0.283 N 
ATOM     36  H   UNL     1       0.618  27.316  -9.566  0.00  0.00    +0.155 HD
ATOM     37  N   UNL     1      -1.224  26.798 -11.241  0.00  0.00    -0.214 NA
BRANCH   4   3
ATOM      1  C   UNL     1      -2.095  22.689 -12.383  0.00  0.00    +0.020 A 
ATOM      2  C   UNL     1      -1.817  24.038 -11.946  0.00  0.00    +0.013 A 
ATOM      3  C   UNL     1      -2.485  25.174 -12.568  0.00  0.00    +0.019 A 
ATOM     38  C   UNL     1      -3.437  24.910 -13.636  0.00  0.00    +0.120 A 
ATOM     39  N   UNL     1      -3.683  23.601 -14.037  0.00  0.00    -0.263 NA
ATOM     40  C   UNL     1      -3.045  22.499 -13.448  0.00  0.00    +0.111 A 
ENDBRANCH   4   3
ENDBRANCH  10   9
BRANCH  12  13
ATOM     13  N   UNL     1      -0.014  31.593  -6.298  0.00  0.00    -0.281 N 
ATOM     14  C   UNL     1      -1.268  32.065  -5.946  0.00  0.00    +0.248 C 
ATOM     30  O   UNL     1      -2.148  32.351  -6.744  0.00  0.00    -0.270 OA
ATOM     31  H   UNL     1       0.685  31.580  -5.556  0.00  0.00    +0.155 HD
BRANCH  14  15
ATOM     15  C   UNL     1      -1.585  32.260  -4.499  0.00  0.00    +0.037 A 
ATOM     16  C   UNL     1      -2.322  33.439  -4.035  0.00  0.00    +0.013 A 
ATOM     17  C   UNL     1      -2.600  33.612  -2.631  0.00  0.00    +0.005 A 
ATOM     18  C   UNL     1      -2.141  32.601  -1.680  0.00  0.00    -0.033 A 
ATOM     28  C   UNL     1      -1.417  31.439  -2.168  0.00  0.00    +0.005 A 
ATOM     29  C   UNL     1      -1.142  31.267  -3.543  0.00  0.00    +0.013 A 
BRANCH  18  19
ATOM     19  C   UNL     1      -2.375  32.714  -0.162  0.00  0.00    +0.119 C 
BRANCH  19  20
ATOM     20  N   UNL     1      -1.453  33.602   0.607  0.00  0.00    -0.302 NA
ATOM     21  C   UNL     1      -1.008  32.963   1.926  0.00  0.00    +0.066 C 
ATOM     22  C   UNL     1      -0.026  33.896   2.707  0.00  0.00    -0.064 C 
ATOM     23  N   UNL     1      -0.700  35.245   2.960  0.00  0.00    +0.379 N 
ATOM     24  C   UNL     1       0.198  36.104   3.744  0.00  0.00    -0.096 C 
ATOM     25  H   UNL     1      -1.611  35.058   3.574  0.00  0.00    -0.082 HD
ATOM     26  C   UNL     1      -1.149  35.886   1.654  0.00  0.00    -0.064 C 
ATOM     27  C   UNL     1      -2.101  34.939   0.871  0.00  0.00    +0.066 C 
ENDBRANCH  19  20
ENDBRANCH  18  19
ENDBRANCH  14  15
ENDBRANCH  12  13
TORSDOF 6
ENDMDL
MODEL 4
REMARK VINA RESULT:      -7.7     15.120     17.821
REMARK  Name = C:\Users\Docking\Desktop\test protocol\1iep_ligandH.pdb
REMARK  8 active torsions:
REMARK  status: ('A' for Active; 'I' for Inactive)
REMARK    1  A    between atoms: _5  and  _11
REMARK    2  A    between atoms: _19  and  _21
REMARK    3  A    between atoms: _22  and  _66
REMARK    4  A    between atoms: _27  and  _30
REMARK    5  A    between atoms: _32  and  _33
REMARK    6  A    between atoms: _38  and  _43
REMARK    7  A    between atoms: _43  and  _46
REMARK    8  A    between atoms: _53  and  _55
REMARK                            x       y       z     vdW  Elec       q    Type
REMARK                         _______ _______ _______ _____ _____    ______ ____
ROOT
ATOM     10  C   UNL     1      -0.520  36.435   2.800  0.00  0.00    +0.038 A 
ATOM     11  C   UNL     1      -0.725  35.700   1.604  0.00  0.00    +0.047 A 
ATOM     12  C   UNL     1      -1.260  34.348   1.634  0.00  0.00    +0.035 A 
ATOM     32  C   UNL     1      -1.578  33.775   2.901  0.00  0.00    +0.024 A 
ATOM     33  C   UNL     1      -1.374  34.507   4.126  0.00  0.00    +0.007 A 
ATOM     34  C   UNL     1      -0.844  35.841   4.102  0.00  0.00    -0.029 A 
ATOM     35  C   UNL     1      -0.640  36.576   5.447  0.00  0.00    +0.045 C 
ENDROOT
BRANCH  10   9
ATOM      4  C   UNL     1      -1.051  41.179   2.300  0.00  0.00    +0.077 A 
ATOM      5  C   UNL     1      -2.476  41.066   2.176  0.00  0.00    +0.048 A 
ATOM      6  C   UNL     1      -3.032  39.768   2.239  0.00  0.00    +0.116 A 
ATOM      7  N   UNL     1      -2.214  38.673   2.414  0.00  0.00    -0.223 NA
ATOM      8  C   UNL     1      -0.844  38.817   2.528  0.00  0.00    +0.220 A 
ATOM      9  N   UNL     1      -0.003  37.730   2.712  0.00  0.00    -0.283 N 
ATOM     36  H   UNL     1       1.003  37.877   2.785  0.00  0.00    +0.155 HD
ATOM     37  N   UNL     1      -0.288  40.045   2.470  0.00  0.00    -0.214 NA
BRANCH   4   3
ATOM      1  C   UNL     1       0.014  44.836   1.413  0.00  0.00    +0.020 A 
ATOM      2  C   UNL     1      -0.731  43.599   1.417  0.00  0.00    +0.013 A 
ATOM      3  C   UNL     1      -0.316  42.482   2.257  0.00  0.00    +0.019 A 
ATOM     38  C   UNL     1       0.867  42.652   3.087  0.00  0.00    +0.120 A 
ATOM     39  N   UNL     1       1.566  43.855   3.061  0.00  0.00    -0.263 NA
ATOM     40  C   UNL     1       1.177  44.936   2.256  0.00  0.00    +0.111 A 
ENDBRANCH   4   3
ENDBRANCH  10   9
BRANCH  12  13
ATOM     13  N   UNL     1      -1.483  33.551   0.454  0.00  0.00    -0.281 N 
ATOM     14  C   UNL     1      -2.231  33.877  -0.666  0.00  0.00    +0.248 C 
ATOM     30  O   UNL     1      -3.001  34.823  -0.730  0.00  0.00    -0.270 OA
ATOM     31  H   UNL     1      -1.034  32.634   0.442  0.00  0.00    +0.155 HD
BRANCH  14  15
ATOM     15  C   UNL     1      -2.117  33.020  -1.885  0.00  0.00    +0.037 A 
ATOM     16  C   UNL     1      -1.597  31.652  -1.807  0.00  0.00    +0.013 A 
ATOM     17  C   UNL     1      -1.482  30.853  -3.001  0.00  0.00    +0.005 A 
ATOM     18  C   UNL     1      -1.891  31.419  -4.284  0.00  0.00    -0.033 A 
ATOM     28  C   UNL     1      -2.409  32.776  -4.332  0.00  0.00    +0.005 A 
ATOM     29  C   UNL     1      -2.522  33.563  -3.164  0.00  0.00    +0.013 A 
BRANCH  18  19
ATOM     19  C   UNL     1      -1.783  30.646  -5.611  0.00  0.00    +0.119 C 
BRANCH  19  20
ATOM     20  N   UNL     1      -0.878  31.207  -6.658  0.00  0.00    -0.302 NA
ATOM     21  C   UNL     1      -1.046  30.497  -8.004  0.00  0.00    +0.066 C 
ATOM     22  C   UNL     1      -0.107  31.111  -9.093  0.00  0.00    -0.064 C 
ATOM     23  N   UNL     1       1.344  31.031  -8.616  0.00  0.00    +0.379 N 
ATOM     24  C   UNL     1       2.234  31.555  -9.662  0.00  0.00    -0.096 C 
ATOM     25  H   UNL     1       1.592  29.954  -8.469  0.00  0.00    -0.082 HD
ATOM     26  C   UNL     1       1.519  31.733  -7.277  0.00  0.00    -0.064 C 
ATOM     27  C   UNL     1       0.561  31.134  -6.209  0.00  0.00    +0.066 C 
ENDBRANCH  19  20
ENDBRANCH  18  19
ENDBRANCH  14  15
ENDBRANCH  12  13
TORSDOF 6
ENDMDL
MODEL 5
REMARK VINA RESULT:      -7.6     14.761     17.524
REMARK  Name = C:\Users\Docking\Desktop\test protocol\1iep_ligandH.pdb
REMARK  8 active torsions:
REMARK  status: ('A' for Active; 'I' for Inactive)
REMARK    1  A    between atoms: _5  and  _11
REMARK    2  A    between atoms: _19  and  _21
REMARK    3  A    between atoms: _22  and  _66
REMARK    4  A    between atoms: _27  and  _30
REMARK    5  A    between atoms: _32  and  _33
REMARK    6  A    between atoms: _38  and  _43
REMARK    7  A    between atoms: _43  and  _46
REMARK    8  A    between atoms: _53  and  _55
REMARK                            x       y       z     vdW  Elec       q    Type
REMARK                         _______ _______ _______ _____ _____    ______ ____
ROOT
ATOM     10  C   UNL     1      -0.189  36.123   3.180  0.00  0.00    +0.038 A 
ATOM     11  C   UNL     1      -0.367  35.460   1.939  0.00  0.00    +0.047 A 
ATOM     12  C   UNL     1      -1.238  34.300   1.824  0.00  0.00    +0.035 A 
ATOM     32  C   UNL     1      -1.914  33.845   2.993  0.00  0.00    +0.024 A 
ATOM     33  C   UNL     1      -1.743  34.506   4.263  0.00  0.00    +0.007 A 
ATOM     34  C   UNL     1      -0.884  35.649   4.383  0.00  0.00    -0.029 A 
ATOM     35  C   UNL     1      -0.733  36.315   5.771  0.00  0.00    +0.045 C 
ENDROOT
BRANCH  10   9
ATOM      4  C   UNL     1       0.603  40.856   3.068  0.00  0.00    +0.077 A 
ATOM      5  C   UNL     1      -0.787  41.143   2.859  0.00  0.00    +0.048 A 
ATOM      6  C   UNL     1      -1.672  40.044   2.779  0.00  0.00    +0.116 A 
ATOM      7  N   UNL     1      -1.191  38.759   2.901  0.00  0.00    -0.223 NA
ATOM      8  C   UNL     1       0.155  38.516   3.100  0.00  0.00    +0.220 A 
ATOM      9  N   UNL     1       0.659  37.232   3.233  0.00  0.00    -0.283 N 
ATOM     36  H   UNL     1       1.660  37.095   3.372  0.00  0.00    +0.155 HD
ATOM     37  N   UNL     1       1.021  39.549   3.178  0.00  0.00    -0.214 NA
BRANCH   4   3
ATOM      1  C   UNL     1       4.059  42.655   3.411  0.00  0.00    +0.020 A 
ATOM      2  C   UNL     1       3.078  41.599   3.309  0.00  0.00    +0.013 A 
ATOM      3  C   UNL     1       1.660  41.910   3.177  0.00  0.00    +0.019 A 
ATOM     38  C   UNL     1       1.266  43.310   3.152  0.00  0.00    +0.120 A 
ATOM     39  N   UNL     1       2.233  44.305   3.253  0.00  0.00    -0.263 NA
ATOM     40  C   UNL     1       3.600  44.018   3.382  0.00  0.00    +0.111 A 
ENDBRANCH   4   3
ENDBRANCH  10   9
BRANCH  12  13
ATOM     13  N   UNL     1      -1.452  33.582   0.593  0.00  0.00    -0.281 N 
ATOM     14  C   UNL     1      -2.283  33.925  -0.461  0.00  0.00    +0.248 C 
ATOM     30  O   UNL     1      -3.135  34.800  -0.412  0.00  0.00    -0.270 OA
ATOM     31  H   UNL     1      -0.927  32.714   0.485  0.00  0.00    +0.155 HD
BRANCH  14  15
ATOM     15  C   UNL     1      -2.159  33.180  -1.751  0.00  0.00    +0.037 A 
ATOM     16  C   UNL     1      -2.586  33.780  -3.018  0.00  0.00    +0.013 A 
ATOM     17  C   UNL     1      -2.471  33.033  -4.246  0.00  0.00    +0.005 A 
ATOM     18  C   UNL     1      -1.926  31.678  -4.211  0.00  0.00    -0.033 A 
ATOM     28  C   UNL     1      -1.506  31.110  -2.941  0.00  0.00    +0.005 A 
ATOM     29  C   UNL     1      -1.618  31.838  -1.736  0.00  0.00    +0.013 A 
BRANCH  18  19
ATOM     19  C   UNL     1      -1.787  30.800  -5.469  0.00  0.00    +0.119 C 
BRANCH  19  20
ATOM     20  N   UNL     1      -0.903  31.305  -6.562  0.00  0.00    -0.302 NA
ATOM     21  C   UNL     1      -1.202  30.629  -7.902  0.00  0.00    +0.066 C 
ATOM     22  C   UNL     1      -0.283  31.186  -9.038  0.00  0.00    -0.064 C 
ATOM     23  N   UNL     1       1.183  30.989  -8.647  0.00  0.00    +0.379 N 
ATOM     24  C   UNL     1       2.049  31.458  -9.738  0.00  0.00    -0.096 C 
ATOM     25  H   UNL     1       1.355  29.894  -8.525  0.00  0.00    -0.082 HD
ATOM     26  C   UNL     1       1.488  31.656  -7.314  0.00  0.00    -0.064 C 
ATOM     27  C   UNL     1       0.549  31.117  -6.198  0.00  0.00    +0.066 C 
ENDBRANCH  19  20
ENDBRANCH  18  19
ENDBRANCH  14  15
ENDBRANCH  12  13
TORSDOF 6
ENDMDL
