MODEL 1
REMARK VINA RESULT:      -9.7      0.000      0.000
REMARK  Name = C:\Users\Docking\Desktop\test protocol\1iep_ligandH.pdb
REMARK  8 active torsions:
REMARK  status: ('A' for Active; 'I' for Inactive)
REMARK    1  A    between atoms: _5  and  _11
REMARK    2  A    between atoms: _19  and  _21
REMARK    3  A    between atoms: _22  and  _66
REMARK    4  A    between atoms: _27  and  _30
REMARK    5  A    between atoms: _32  and  _33
REMARK    6  A    between atoms: _38  and  _43
REMARK    7  A    between atoms: _43  and  _46
REMARK    8  A    between atoms: _53  and  _55
REMARK                            x       y       z     vdW  Elec       q    Type
REMARK                         _______ _______ _______ _____ _____    ______ ____
ROOT
ATOM     10  C   UNL     1      39.101  21.073 190.179  0.00  0.00    +0.038 A 
ATOM     11  C   UNL     1      37.771  20.665 189.898  0.00  0.00    +0.047 A 
ATOM     12  C   UNL     1      37.485  19.708 188.841  0.00  0.00    +0.035 A 
ATOM     32  C   UNL     1      38.578  19.182 188.092  0.00  0.00    +0.024 A 
ATOM     33  C   UNL     1      39.935  19.586 188.363  0.00  0.00    +0.007 A 
ATOM     34  C   UNL     1      40.223  20.532 189.403  0.00  0.00    -0.029 A 
ATOM     35  C   UNL     1      41.697  20.934 189.645  0.00  0.00    +0.045 C 
ENDROOT
BRANCH  10   9
ATOM      4  C   UNL     1      39.819  22.179 194.794  0.00  0.00    +0.077 A 
ATOM      5  C   UNL     1      39.727  20.806 195.199  0.00  0.00    +0.048 A 
ATOM      6  C   UNL     1      39.487  19.846 194.190  0.00  0.00    +0.116 A 
ATOM      7  N   UNL     1      39.351  20.242 192.877  0.00  0.00    -0.223 NA
ATOM      8  C   UNL     1      39.444  21.575 192.520  0.00  0.00    +0.220 A 
ATOM      9  N   UNL     1      39.318  21.995 191.205  0.00  0.00    -0.283 N 
ATOM     36  H   UNL     1      39.385  22.988 190.984  0.00  0.00    +0.155 HD
ATOM     37  N   UNL     1      39.671  22.511 193.466  0.00  0.00    -0.214 NA
BRANCH   4   3
ATOM      1  C   UNL     1      41.588  24.969 196.889  0.00  0.00    +0.020 A 
ATOM      2  C   UNL     1      41.397  23.878 195.961  0.00  0.00    +0.013 A 
ATOM      3  C   UNL     1      40.073  23.308 195.743  0.00  0.00    +0.019 A 
ATOM     38  C   UNL     1      38.955  23.871 196.485  0.00  0.00    +0.120 A 
ATOM     39  N   UNL     1      39.169  24.920 197.373  0.00  0.00    -0.263 NA
ATOM     40  C   UNL     1      40.439  25.475 197.592  0.00  0.00    +0.111 A 
ENDBRANCH   4   3
ENDBRANCH  10   9
BRANCH  12  13
ATOM     13  N   UNL     1      36.155  19.263 188.505  0.00  0.00    -0.281 N 
ATOM     14  C   UNL     1      35.047  20.040 188.209  0.00  0.00    +0.248 C 
ATOM     30  O   UNL     1      34.977  21.246 188.398  0.00  0.00    -0.270 OA
ATOM     31  H   UNL     1      36.013  18.253 188.483  0.00  0.00    +0.155 HD
BRANCH  14  15
ATOM     15  C   UNL     1      33.836  19.380 187.633  0.00  0.00    +0.037 A 
ATOM     16  C   UNL     1      33.915  18.057 187.010  0.00  0.00    +0.013 A 
ATOM     17  C   UNL     1      32.735  17.451 186.447  0.00  0.00    +0.005 A 
ATOM     18  C   UNL     1      31.464  18.168 186.506  0.00  0.00    -0.033 A 
ATOM     28  C   UNL     1      31.412  19.477 187.135  0.00  0.00    +0.005 A 
ATOM     29  C   UNL     1      32.567  20.075 187.687  0.00  0.00    +0.013 A 
BRANCH  18  19
ATOM     19  C   UNL     1      30.158  17.606 185.913  0.00  0.00    +0.119 C 
BRANCH  19  20
ATOM     20  N   UNL     1      28.992  17.467 186.835  0.00  0.00    -0.302 NA
ATOM     21  C   UNL     1      29.263  16.457 187.954  0.00  0.00    +0.066 C 
ATOM     22  C   UNL     1      28.041  16.340 188.923  0.00  0.00    -0.064 C 
ATOM     23  N   UNL     1      26.797  15.944 188.125  0.00  0.00    +0.379 N 
ATOM     24  C   UNL     1      25.660  15.776 189.041  0.00  0.00    -0.096 C 
ATOM     25  H   UNL     1      27.000  14.954 187.653  0.00  0.00    -0.082 HD
ATOM     26  C   UNL     1      26.523  16.941 187.008  0.00  0.00    -0.064 C 
ATOM     27  C   UNL     1      27.754  17.071 186.069  0.00  0.00    +0.066 C 
ENDBRANCH  19  20
ENDBRANCH  18  19
ENDBRANCH  14  15
ENDBRANCH  12  13
TORSDOF 6
ENDMDL
MODEL 2
REMARK VINA RESULT:      -9.1     10.422     17.451
REMARK  Name = C:\Users\Docking\Desktop\test protocol\1iep_ligandH.pdb
REMARK  8 active torsions:
REMARK  status: ('A' for Active; 'I' for Inactive)
REMARK    1  A    between atoms: _5  and  _11
REMARK    2  A    between atoms: _19  and  _21
REMARK    3  A    between atoms: _22  and  _66
REMARK    4  A    between atoms: _27  and  _30
REMARK    5  A    between atoms: _32  and  _33
REMARK    6  A    between atoms: _38  and  _43
REMARK    7  A    between atoms: _43  and  _46
REMARK    8  A    between atoms: _53  and  _55
REMARK                            x       y       z     vdW  Elec       q    Type
REMARK                         _______ _______ _______ _____ _____    ______ ____
ROOT
ATOM     10  C   UNL     1      30.107  16.891 175.140  0.00  0.00    +0.038 A 
ATOM     11  C   UNL     1      30.164  16.505 176.503  0.00  0.00    +0.047 A 
ATOM     12  C   UNL     1      29.838  17.443 177.565  0.00  0.00    +0.035 A 
ATOM     32  C   UNL     1      29.456  18.768 177.203  0.00  0.00    +0.024 A 
ATOM     33  C   UNL     1      29.393  19.178 175.822  0.00  0.00    +0.007 A 
ATOM     34  C   UNL     1      29.716  18.257 174.770  0.00  0.00    -0.029 A 
ATOM     35  C   UNL     1      29.639  18.753 173.307  0.00  0.00    +0.045 C 
ENDROOT
BRANCH  10   9
ATOM      4  C   UNL     1      33.283  14.516 172.435  0.00  0.00    +0.077 A 
ATOM      5  C   UNL     1      34.389  15.232 173.002  0.00  0.00    +0.048 A 
ATOM      6  C   UNL     1      34.098  16.208 173.981  0.00  0.00    +0.116 A 
ATOM      7  N   UNL     1      32.794  16.442 174.358  0.00  0.00    -0.223 NA
ATOM      8  C   UNL     1      31.749  15.735 173.791  0.00  0.00    +0.220 A 
ATOM      9  N   UNL     1      30.430  15.949 174.160  0.00  0.00    -0.283 N 
ATOM     36  H   UNL     1      29.688  15.412 173.713  0.00  0.00    +0.155 HD
ATOM     37  N   UNL     1      32.001  14.799 172.852  0.00  0.00    -0.214 NA
BRANCH   4   3
ATOM      1  C   UNL     1      34.733  11.646 170.208  0.00  0.00    +0.020 A 
ATOM      2  C   UNL     1      34.643  12.662 171.232  0.00  0.00    +0.013 A 
ATOM      3  C   UNL     1      33.429  13.452 171.392  0.00  0.00    +0.019 A 
ATOM     38  C   UNL     1      32.315  13.187 170.494  0.00  0.00    +0.120 A 
ATOM     39  N   UNL     1      32.431  12.203 169.517  0.00  0.00    -0.263 NA
ATOM     40  C   UNL     1      33.595  11.438 169.352  0.00  0.00    +0.111 A 
ENDBRANCH   4   3
ENDBRANCH  10   9
BRANCH  12  13
ATOM     13  N   UNL     1      29.886  17.111 178.968  0.00  0.00    -0.281 N 
ATOM     14  C   UNL     1      31.005  16.877 179.750  0.00  0.00    +0.248 C 
ATOM     30  O   UNL     1      32.133  16.710 179.310  0.00  0.00    -0.270 OA
ATOM     31  H   UNL     1      28.985  17.038 179.441  0.00  0.00    +0.155 HD
BRANCH  14  15
ATOM     15  C   UNL     1      30.846  16.806 181.234  0.00  0.00    +0.037 A 
ATOM     16  C   UNL     1      29.581  16.389 181.844  0.00  0.00    +0.013 A 
ATOM     17  C   UNL     1      29.450  16.345 183.279  0.00  0.00    +0.005 A 
ATOM     18  C   UNL     1      30.588  16.719 184.114  0.00  0.00    -0.033 A 
ATOM     28  C   UNL     1      31.833  17.125 183.483  0.00  0.00    +0.005 A 
ATOM     29  C   UNL     1      31.966  17.169 182.077  0.00  0.00    +0.013 A 
BRANCH  18  19
ATOM     19  C   UNL     1      30.531  16.723 185.653  0.00  0.00    +0.119 C 
BRANCH  19  20
ATOM     20  N   UNL     1      29.201  16.487 186.289  0.00  0.00    -0.302 NA
ATOM     21  C   UNL     1      28.151  17.496 185.815  0.00  0.00    +0.066 C 
ATOM     22  C   UNL     1      26.759  17.221 186.472  0.00  0.00    -0.064 C 
ATOM     23  N   UNL     1      26.901  17.261 187.995  0.00  0.00    +0.379 N 
ATOM     24  C   UNL     1      25.583  17.061 188.615  0.00  0.00    -0.096 C 
ATOM     25  H   UNL     1      27.255  18.281 188.274  0.00  0.00    -0.082 HD
ATOM     26  C   UNL     1      27.945  16.263 188.474  0.00  0.00    -0.064 C 
ATOM     27  C   UNL     1      29.316  16.527 187.793  0.00  0.00    +0.066 C 
ENDBRANCH  19  20
ENDBRANCH  18  19
ENDBRANCH  14  15
ENDBRANCH  12  13
TORSDOF 6
ENDMDL
MODEL 3
REMARK VINA RESULT:      -9.1     12.790     18.114
REMARK  Name = C:\Users\Docking\Desktop\test protocol\1iep_ligandH.pdb
REMARK  8 active torsions:
REMARK  status: ('A' for Active; 'I' for Inactive)
REMARK    1  A    between atoms: _5  and  _11
REMARK    2  A    between atoms: _19  and  _21
REMARK    3  A    between atoms: _22  and  _66
REMARK    4  A    between atoms: _27  and  _30
REMARK    5  A    between atoms: _32  and  _33
REMARK    6  A    between atoms: _38  and  _43
REMARK    7  A    between atoms: _43  and  _46
REMARK    8  A    between atoms: _53  and  _55
REMARK                            x       y       z     vdW  Elec       q    Type
REMARK                         _______ _______ _______ _____ _____    ______ ____
ROOT
ATOM     10  C   UNL     1      29.915  17.435 176.331  0.00  0.00    +0.038 A 
ATOM     11  C   UNL     1      29.860  18.785 175.900  0.00  0.00    +0.047 A 
ATOM     12  C   UNL     1      30.435  19.192 174.627  0.00  0.00    +0.035 A 
ATOM     32  C   UNL     1      31.056  18.197 173.817  0.00  0.00    +0.024 A 
ATOM     33  C   UNL     1      31.122  16.820 174.241  0.00  0.00    +0.007 A 
ATOM     34  C   UNL     1      30.559  16.414 175.497  0.00  0.00    -0.029 A 
ATOM     35  C   UNL     1      30.663  14.925 175.903  0.00  0.00    +0.045 C 
ENDROOT
BRANCH  10   9
ATOM      4  C   UNL     1      30.200  16.712 181.068  0.00  0.00    +0.077 A 
ATOM      5  C   UNL     1      31.605  16.999 181.087  0.00  0.00    +0.048 A 
ATOM      6  C   UNL     1      32.218  17.322 179.855  0.00  0.00    +0.116 A 
ATOM      7  N   UNL     1      31.472  17.352 178.697  0.00  0.00    -0.223 NA
ATOM      8  C   UNL     1      30.119  17.068 178.714  0.00  0.00    +0.220 A 
ATOM      9  N   UNL     1      29.347  17.101 177.563  0.00  0.00    -0.283 N 
ATOM     36  H   UNL     1      28.353  16.877 177.615  0.00  0.00    +0.155 HD
ATOM     37  N   UNL     1      29.510  16.756 179.877  0.00  0.00    -0.214 NA
BRANCH   4   3
ATOM      1  C   UNL     1      27.236  16.021 183.525  0.00  0.00    +0.020 A 
ATOM      2  C   UNL     1      27.952  16.372 182.320  0.00  0.00    +0.013 A 
ATOM      3  C   UNL     1      29.409  16.357 182.288  0.00  0.00    +0.019 A 
ATOM     38  C   UNL     1      30.117  15.979 183.502  0.00  0.00    +0.120 A 
ATOM     39  N   UNL     1      29.401  15.647 184.648  0.00  0.00    -0.263 NA
ATOM     40  C   UNL     1      27.999  15.659 184.691  0.00  0.00    +0.111 A 
ENDBRANCH   4   3
ENDBRANCH  10   9
BRANCH  12  13
ATOM     13  N   UNL     1      30.417  20.549 174.140  0.00  0.00    -0.281 N 
ATOM     14  C   UNL     1      29.592  21.095 173.169  0.00  0.00    +0.248 C 
ATOM     30  O   UNL     1      28.884  20.442 172.417  0.00  0.00    -0.270 OA
ATOM     31  H   UNL     1      31.094  21.185 174.561  0.00  0.00    +0.155 HD
BRANCH  14  15
ATOM     15  C   UNL     1      29.560  22.579 173.001  0.00  0.00    +0.037 A 
ATOM     16  C   UNL     1      30.650  23.292 172.330  0.00  0.00    +0.013 A 
ATOM     17  C   UNL     1      30.602  24.726 172.196  0.00  0.00    +0.005 A 
ATOM     18  C   UNL     1      29.457  25.458 172.733  0.00  0.00    -0.033 A 
ATOM     28  C   UNL     1      28.387  24.725 173.389  0.00  0.00    +0.005 A 
ATOM     29  C   UNL     1      28.431  23.320 173.523  0.00  0.00    +0.013 A 
BRANCH  18  19
ATOM     19  C   UNL     1      29.332  26.991 172.654  0.00  0.00    +0.119 C 
BRANCH  19  20
ATOM     20  N   UNL     1      30.343  27.718 171.828  0.00  0.00    -0.302 NA
ATOM     21  C   UNL     1      30.460  29.191 172.229  0.00  0.00    +0.066 C 
ATOM     22  C   UNL     1      31.537  29.930 171.371  0.00  0.00    -0.064 C 
ATOM     23  N   UNL     1      31.183  29.799 169.889  0.00  0.00    +0.379 N 
ATOM     24  C   UNL     1      32.162  30.542 169.082  0.00  0.00    -0.096 C 
ATOM     25  H   UNL     1      30.187  30.276 169.736  0.00  0.00    -0.082 HD
ATOM     26  C   UNL     1      31.062  28.337 169.482  0.00  0.00    -0.064 C 
ATOM     27  C   UNL     1      30.010  27.604 170.361  0.00  0.00    +0.066 C 
ENDBRANCH  19  20
ENDBRANCH  18  19
ENDBRANCH  14  15
ENDBRANCH  12  13
TORSDOF 6
ENDMDL
MODEL 4
REMARK VINA RESULT:      -8.9      9.553     17.609
REMARK  Name = C:\Users\Docking\Desktop\test protocol\1iep_ligandH.pdb
REMARK  8 active torsions:
REMARK  status: ('A' for Active; 'I' for Inactive)
REMARK    1  A    between atoms: _5  and  _11
REMARK    2  A    between atoms: _19  and  _21
REMARK    3  A    between atoms: _22  and  _66
REMARK    4  A    between atoms: _27  and  _30
REMARK    5  A    between atoms: _32  and  _33
REMARK    6  A    between atoms: _38  and  _43
REMARK    7  A    between atoms: _43  and  _46
REMARK    8  A    between atoms: _53  and  _55
REMARK                            x       y       z     vdW  Elec       q    Type
REMARK                         _______ _______ _______ _____ _____    ______ ____
ROOT
ATOM     10  C   UNL     1      30.428  17.808 178.538  0.00  0.00    +0.038 A 
ATOM     11  C   UNL     1      31.808  17.708 178.850  0.00  0.00    +0.047 A 
ATOM     12  C   UNL     1      32.257  17.096 180.091  0.00  0.00    +0.035 A 
ATOM     32  C   UNL     1      31.272  16.593 180.991  0.00  0.00    +0.024 A 
ATOM     33  C   UNL     1      29.865  16.688 180.691  0.00  0.00    +0.007 A 
ATOM     34  C   UNL     1      29.417  17.292 179.469  0.00  0.00    -0.029 A 
ATOM     35  C   UNL     1      27.896  17.372 179.202  0.00  0.00    +0.045 C 
ENDROOT
BRANCH  10   9
ATOM      4  C   UNL     1      29.864  17.730 173.772  0.00  0.00    +0.077 A 
ATOM      5  C   UNL     1      30.386  16.398 173.673  0.00  0.00    +0.048 A 
ATOM      6  C   UNL     1      30.795  15.770 174.871  0.00  0.00    +0.116 A 
ATOM      7  N   UNL     1      30.685  16.435 176.073  0.00  0.00    -0.223 NA
ATOM      8  C   UNL     1      30.180  17.720 176.134  0.00  0.00    +0.220 A 
ATOM      9  N   UNL     1      30.053  18.405 177.333  0.00  0.00    -0.283 N 
ATOM     36  H   UNL     1      29.682  19.354 177.334  0.00  0.00    +0.155 HD
ATOM     37  N   UNL     1      29.784  18.342 175.004  0.00  0.00    -0.214 NA
BRANCH   4   3
ATOM      1  C   UNL     1      28.522  18.724 170.235  0.00  0.00    +0.020 A 
ATOM      2  C   UNL     1      28.975  17.911 171.341  0.00  0.00    +0.013 A 
ATOM      3  C   UNL     1      29.388  18.525 172.596  0.00  0.00    +0.019 A 
ATOM     38  C   UNL     1      29.330  19.975 172.702  0.00  0.00    +0.120 A 
ATOM     39  N   UNL     1      28.891  20.732 171.620  0.00  0.00    -0.263 NA
ATOM     40  C   UNL     1      28.493  20.152 170.406  0.00  0.00    +0.111 A 
ENDBRANCH   4   3
ENDBRANCH  10   9
BRANCH  12  13
ATOM     13  N   UNL     1      33.644  16.974 180.465  0.00  0.00    -0.281 N 
ATOM     14  C   UNL     1      34.714  16.612 179.662  0.00  0.00    +0.248 C 
ATOM     30  O   UNL     1      34.607  16.130 178.544  0.00  0.00    -0.270 OA
ATOM     31  H   UNL     1      33.864  17.178 181.440  0.00  0.00    +0.155 HD
BRANCH  14  15
ATOM     15  C   UNL     1      36.102  16.801 180.182  0.00  0.00    +0.037 A 
ATOM     16  C   UNL     1      36.377  17.694 181.311  0.00  0.00    +0.013 A 
ATOM     17  C   UNL     1      37.728  17.871 181.781  0.00  0.00    +0.005 A 
ATOM     18  C   UNL     1      38.815  17.152 181.123  0.00  0.00    -0.033 A 
ATOM     28  C   UNL     1      38.514  16.268 180.008  0.00  0.00    +0.005 A 
ATOM     29  C   UNL     1      37.192  16.093 179.544  0.00  0.00    +0.013 A 
BRANCH  18  19
ATOM     19  C   UNL     1      40.290  17.297 181.544  0.00  0.00    +0.119 C 
BRANCH  19  20
ATOM     20  N   UNL     1      40.637  16.939 182.952  0.00  0.00    -0.302 NA
ATOM     21  C   UNL     1      42.146  17.000 183.205  0.00  0.00    +0.066 C 
ATOM     22  C   UNL     1      42.489  16.645 184.688  0.00  0.00    -0.064 C 
ATOM     23  N   UNL     1      41.941  15.255 185.017  0.00  0.00    +0.379 N 
ATOM     24  C   UNL     1      42.312  14.893 186.393  0.00  0.00    -0.096 C 
ATOM     25  H   UNL     1      42.433  14.527 184.331  0.00  0.00    -0.082 HD
ATOM     26  C   UNL     1      40.441  15.184 184.765  0.00  0.00    -0.064 C 
ATOM     27  C   UNL     1      40.108  15.568 183.296  0.00  0.00    +0.066 C 
ENDBRANCH  19  20
ENDBRANCH  18  19
ENDBRANCH  14  15
ENDBRANCH  12  13
TORSDOF 6
ENDMDL
MODEL 5
REMARK VINA RESULT:      -8.7     12.701     18.005
REMARK  Name = C:\Users\Docking\Desktop\test protocol\1iep_ligandH.pdb
REMARK  8 active torsions:
REMARK  status: ('A' for Active; 'I' for Inactive)
REMARK    1  A    between atoms: _5  and  _11
REMARK    2  A    between atoms: _19  and  _21
REMARK    3  A    between atoms: _22  and  _66
REMARK    4  A    between atoms: _27  and  _30
REMARK    5  A    between atoms: _32  and  _33
REMARK    6  A    between atoms: _38  and  _43
REMARK    7  A    between atoms: _43  and  _46
REMARK    8  A    between atoms: _53  and  _55
REMARK                            x       y       z     vdW  Elec       q    Type
REMARK                         _______ _______ _______ _____ _____    ______ ____
ROOT
ATOM     10  C   UNL     1      29.982  17.461 176.140  0.00  0.00    +0.038 A 
ATOM     11  C   UNL     1      30.073  18.821 175.751  0.00  0.00    +0.047 A 
ATOM     12  C   UNL     1      30.656  19.201 174.474  0.00  0.00    +0.035 A 
ATOM     32  C   UNL     1      31.135  18.169 173.616  0.00  0.00    +0.024 A 
ATOM     33  C   UNL     1      31.051  16.780 173.996  0.00  0.00    +0.007 A 
ATOM     34  C   UNL     1      30.480  16.400 175.256  0.00  0.00    -0.029 A 
ATOM     35  C   UNL     1      30.422  14.897 175.615  0.00  0.00    +0.045 C 
ENDROOT
BRANCH  10   9
ATOM      4  C   UNL     1      30.289  16.712 180.871  0.00  0.00    +0.077 A 
ATOM      5  C   UNL     1      31.708  16.925 180.873  0.00  0.00    +0.048 A 
ATOM      6  C   UNL     1      32.321  17.219 179.634  0.00  0.00    +0.116 A 
ATOM      7  N   UNL     1      31.563  17.291 178.486  0.00  0.00    -0.223 NA
ATOM      8  C   UNL     1      30.197  17.078 178.519  0.00  0.00    +0.220 A 
ATOM      9  N   UNL     1      29.413  17.153 177.378  0.00  0.00    -0.283 N 
ATOM     36  H   UNL     1      28.410  16.982 177.443  0.00  0.00    +0.155 HD
ATOM     37  N   UNL     1      29.588  16.794 179.689  0.00  0.00    -0.214 NA
BRANCH   4   3
ATOM      1  C   UNL     1      27.322  16.022 183.326  0.00  0.00    +0.020 A 
ATOM      2  C   UNL     1      28.040  16.332 182.111  0.00  0.00    +0.013 A 
ATOM      3  C   UNL     1      29.496  16.396 182.102  0.00  0.00    +0.019 A 
ATOM     38  C   UNL     1      30.202  16.139 183.348  0.00  0.00    +0.120 A 
ATOM     39  N   UNL     1      29.484  15.844 184.503  0.00  0.00    -0.263 NA
ATOM     40  C   UNL     1      28.082  15.782 184.524  0.00  0.00    +0.111 A 
ENDBRANCH   4   3
ENDBRANCH  10   9
BRANCH  12  13
ATOM     13  N   UNL     1      30.782  20.567 174.028  0.00  0.00    -0.281 N 
ATOM     14  C   UNL     1      31.941  21.252 173.700  0.00  0.00    +0.248 C 
ATOM     30  O   UNL     1      33.071  20.856 173.945  0.00  0.00    -0.270 OA
ATOM     31  H   UNL     1      29.912  21.092 173.945  0.00  0.00    +0.155 HD
BRANCH  14  15
ATOM     15  C   UNL     1      31.827  22.574 173.012  0.00  0.00    +0.037 A 
ATOM     16  C   UNL     1      30.730  23.496 173.314  0.00  0.00    +0.013 A 
ATOM     17  C   UNL     1      30.634  24.758 172.624  0.00  0.00    +0.005 A 
ATOM     18  C   UNL     1      31.642  25.106 171.624  0.00  0.00    -0.033 A 
ATOM     28  C   UNL     1      32.723  24.174 171.348  0.00  0.00    +0.005 A 
ATOM     29  C   UNL     1      32.819  22.936 172.022  0.00  0.00    +0.013 A 
BRANCH  18  19
ATOM     19  C   UNL     1      31.607  26.421 170.824  0.00  0.00    +0.119 C 
BRANCH  19  20
ATOM     20  N   UNL     1      31.352  27.679 171.587  0.00  0.00    -0.302 NA
ATOM     21  C   UNL     1      30.017  28.324 171.202  0.00  0.00    +0.066 C 
ATOM     22  C   UNL     1      29.756  29.627 172.026  0.00  0.00    -0.064 C 
ATOM     23  N   UNL     1      30.912  30.604 171.810  0.00  0.00    +0.379 N 
ATOM     24  C   UNL     1      30.641  31.853 172.537  0.00  0.00    -0.096 C 
ATOM     25  H   UNL     1      30.950  30.847 170.723  0.00  0.00    -0.082 HD
ATOM     26  C   UNL     1      32.243  29.970 172.188  0.00  0.00    -0.064 C 
ATOM     27  C   UNL     1      32.480  28.661 171.385  0.00  0.00    +0.066 C 
ENDBRANCH  19  20
ENDBRANCH  18  19
ENDBRANCH  14  15
ENDBRANCH  12  13
TORSDOF 6
ENDMDL
