MODEL 1
REMARK VINA RESULT:      -9.8      0.000      0.000
REMARK  Name = C:\Users\Docking\Desktop\test protocol\1iep_ligandH.pdb
REMARK  8 active torsions:
REMARK  status: ('A' for Active; 'I' for Inactive)
REMARK    1  A    between atoms: _5  and  _11
REMARK    2  A    between atoms: _19  and  _21
REMARK    3  A    between atoms: _22  and  _66
REMARK    4  A    between atoms: _27  and  _30
REMARK    5  A    between atoms: _32  and  _33
REMARK    6  A    between atoms: _38  and  _43
REMARK    7  A    between atoms: _43  and  _46
REMARK    8  A    between atoms: _53  and  _55
REMARK                            x       y       z     vdW  Elec       q    Type
REMARK                         _______ _______ _______ _____ _____    ______ ____
ROOT
ATOM     10  C   UNL     1      68.708 129.265 114.914  0.00  0.00    +0.038 A 
ATOM     11  C   UNL     1      67.964 129.808 115.993  0.00  0.00    +0.047 A 
ATOM     12  C   UNL     1      68.514 130.861 116.832  0.00  0.00    +0.035 A 
ATOM     32  C   UNL     1      69.825 131.340 116.542  0.00  0.00    +0.024 A 
ATOM     33  C   UNL     1      70.595 130.799 115.450  0.00  0.00    +0.007 A 
ATOM     34  C   UNL     1      70.059 129.758 114.620  0.00  0.00    -0.029 A 
ATOM     35  C   UNL     1      70.932 129.211 113.467  0.00  0.00    +0.045 C 
ENDROOT
BRANCH  10   9
ATOM      4  C   UNL     1      67.388 124.704 114.209  0.00  0.00    +0.077 A 
ATOM      5  C   UNL     1      67.918 124.293 115.477  0.00  0.00    +0.048 A 
ATOM      6  C   UNL     1      68.529 125.284 116.278  0.00  0.00    +0.116 A 
ATOM      7  N   UNL     1      68.598 126.587 115.833  0.00  0.00    -0.223 NA
ATOM      8  C   UNL     1      68.079 126.950 114.604  0.00  0.00    +0.220 A 
ATOM      9  N   UNL     1      68.130 128.255 114.141  0.00  0.00    -0.283 N 
ATOM     36  H   UNL     1      67.742 128.481 113.225  0.00  0.00    +0.155 HD
ATOM     37  N   UNL     1      67.492 126.021 113.820  0.00  0.00    -0.214 NA
BRANCH   4   3
ATOM      1  C   UNL     1      64.736 122.406 112.482  0.00  0.00    +0.020 A 
ATOM      2  C   UNL     1      65.344 123.304 113.437  0.00  0.00    +0.013 A 
ATOM      3  C   UNL     1      66.711 123.774 113.252  0.00  0.00    +0.019 A 
ATOM     38  C   UNL     1      67.441 123.313 112.080  0.00  0.00    +0.120 A 
ATOM     39  N   UNL     1      66.830 122.447 111.179  0.00  0.00    -0.263 NA
ATOM     40  C   UNL     1      65.516 121.987 111.348  0.00  0.00    +0.111 A 
ENDBRANCH   4   3
ENDBRANCH  10   9
BRANCH  12  13
ATOM     13  N   UNL     1      67.809 131.444 117.946  0.00  0.00    -0.281 N 
ATOM     14  C   UNL     1      67.579 130.888 119.194  0.00  0.00    +0.248 C 
ATOM     30  O   UNL     1      67.761 129.712 119.470  0.00  0.00    -0.270 OA
ATOM     31  H   UNL     1      67.435 132.381 117.797  0.00  0.00    +0.155 HD
BRANCH  14  15
ATOM     15  C   UNL     1      67.057 131.762 120.288  0.00  0.00    +0.037 A 
ATOM     16  C   UNL     1      67.049 131.311 121.682  0.00  0.00    +0.013 A 
ATOM     17  C   UNL     1      66.525 132.167 122.716  0.00  0.00    +0.005 A 
ATOM     18  C   UNL     1      66.004 133.485 122.360  0.00  0.00    -0.033 A 
ATOM     28  C   UNL     1      66.028 133.909 120.970  0.00  0.00    +0.005 A 
ATOM     29  C   UNL     1      66.541 133.072 119.953  0.00  0.00    +0.013 A 
BRANCH  18  19
ATOM     19  C   UNL     1      65.405 134.455 123.395  0.00  0.00    +0.119 C 
BRANCH  19  20
ATOM     20  N   UNL     1      65.395 135.907 123.045  0.00  0.00    -0.302 NA
ATOM     21  C   UNL     1      66.699 136.604 123.444  0.00  0.00    +0.066 C 
ATOM     22  C   UNL     1      66.681 138.116 123.050  0.00  0.00    -0.064 C 
ATOM     23  N   UNL     1      65.480 138.797 123.709  0.00  0.00    +0.379 N 
ATOM     24  C   UNL     1      65.492 140.232 123.387  0.00  0.00    -0.096 C 
ATOM     25  H   UNL     1      65.597 138.697 124.813  0.00  0.00    -0.082 HD
ATOM     26  C   UNL     1      64.179 138.109 123.319  0.00  0.00    -0.064 C 
ATOM     27  C   UNL     1      64.219 136.600 123.688  0.00  0.00    +0.066 C 
ENDBRANCH  19  20
ENDBRANCH  18  19
ENDBRANCH  14  15
ENDBRANCH  12  13
TORSDOF 6
ENDMDL
MODEL 2
REMARK VINA RESULT:      -9.7      9.599     16.330
REMARK  Name = C:\Users\Docking\Desktop\test protocol\1iep_ligandH.pdb
REMARK  8 active torsions:
REMARK  status: ('A' for Active; 'I' for Inactive)
REMARK    1  A    between atoms: _5  and  _11
REMARK    2  A    between atoms: _19  and  _21
REMARK    3  A    between atoms: _22  and  _66
REMARK    4  A    between atoms: _27  and  _30
REMARK    5  A    between atoms: _32  and  _33
REMARK    6  A    between atoms: _38  and  _43
REMARK    7  A    between atoms: _43  and  _46
REMARK    8  A    between atoms: _53  and  _55
REMARK                            x       y       z     vdW  Elec       q    Type
REMARK                         _______ _______ _______ _____ _____    ______ ____
ROOT
ATOM     10  C   UNL     1      74.583 138.803 128.017  0.00  0.00    +0.038 A 
ATOM     11  C   UNL     1      73.773 138.039 127.138  0.00  0.00    +0.047 A 
ATOM     12  C   UNL     1      72.621 138.629 126.473  0.00  0.00    +0.035 A 
ATOM     32  C   UNL     1      72.325 140.000 126.725  0.00  0.00    +0.024 A 
ATOM     33  C   UNL     1      73.137 140.791 127.616  0.00  0.00    +0.007 A 
ATOM     34  C   UNL     1      74.273 140.214 128.276  0.00  0.00    -0.029 A 
ATOM     35  C   UNL     1      75.105 141.107 129.226  0.00  0.00    +0.045 C 
ENDROOT
BRANCH  10   9
ATOM      4  C   UNL     1      79.159 137.354 128.036  0.00  0.00    +0.077 A 
ATOM      5  C   UNL     1      79.381 137.844 126.706  0.00  0.00    +0.048 A 
ATOM      6  C   UNL     1      78.290 138.456 126.049  0.00  0.00    +0.116 A 
ATOM      7  N   UNL     1      77.072 138.564 126.684  0.00  0.00    -0.223 NA
ATOM      8  C   UNL     1      76.891 138.080 127.967  0.00  0.00    +0.220 A 
ATOM      9  N   UNL     1      75.677 138.186 128.628  0.00  0.00    -0.283 N 
ATOM     36  H   UNL     1      75.582 137.809 129.570  0.00  0.00    +0.155 HD
ATOM     37  N   UNL     1      77.917 137.490 128.615  0.00  0.00    -0.214 NA
BRANCH   4   3
ATOM      1  C   UNL     1      82.591 135.956 129.287  0.00  0.00    +0.020 A 
ATOM      2  C   UNL     1      81.611 136.612 128.453  0.00  0.00    +0.013 A 
ATOM      3  C   UNL     1      80.214 136.686 128.862  0.00  0.00    +0.019 A 
ATOM     38  C   UNL     1      79.839 136.083 130.132  0.00  0.00    +0.120 A 
ATOM     39  N   UNL     1      80.804 135.457 130.914  0.00  0.00    -0.263 NA
ATOM     40  C   UNL     1      82.151 135.377 130.529  0.00  0.00    +0.111 A 
ENDBRANCH   4   3
ENDBRANCH  10   9
BRANCH  12  13
ATOM     13  N   UNL     1      71.757 137.901 125.577  0.00  0.00    -0.281 N 
ATOM     14  C   UNL     1      70.399 137.662 125.710  0.00  0.00    +0.248 C 
ATOM     30  O   UNL     1      69.760 137.857 126.733  0.00  0.00    -0.270 OA
ATOM     31  H   UNL     1      72.200 137.515 124.744  0.00  0.00    +0.155 HD
BRANCH  14  15
ATOM     15  C   UNL     1      69.644 137.114 124.542  0.00  0.00    +0.037 A 
ATOM     16  C   UNL     1      69.983 137.499 123.170  0.00  0.00    +0.013 A 
ATOM     17  C   UNL     1      69.228 136.968 122.063  0.00  0.00    +0.005 A 
ATOM     18  C   UNL     1      68.127 136.044 122.324  0.00  0.00    -0.033 A 
ATOM     28  C   UNL     1      67.816 135.675 123.695  0.00  0.00    +0.005 A 
ATOM     29  C   UNL     1      68.553 136.194 124.783  0.00  0.00    +0.013 A 
BRANCH  18  19
ATOM     19  C   UNL     1      67.255 135.446 121.205  0.00  0.00    +0.119 C 
BRANCH  19  20
ATOM     20  N   UNL     1      67.634 134.096 120.689  0.00  0.00    -0.302 NA
ATOM     21  C   UNL     1      68.162 134.158 119.253  0.00  0.00    +0.066 C 
ATOM     22  C   UNL     1      68.576 132.741 118.738  0.00  0.00    -0.064 C 
ATOM     23  N   UNL     1      67.377 131.796 118.835  0.00  0.00    +0.379 N 
ATOM     24  C   UNL     1      67.746 130.478 118.297  0.00  0.00    -0.096 C 
ATOM     25  H   UNL     1      66.567 132.210 118.190  0.00  0.00    -0.082 HD
ATOM     26  C   UNL     1      66.844 131.731 120.259  0.00  0.00    -0.064 C 
ATOM     27  C   UNL     1      66.464 133.148 120.772  0.00  0.00    +0.066 C 
ENDBRANCH  19  20
ENDBRANCH  18  19
ENDBRANCH  14  15
ENDBRANCH  12  13
TORSDOF 6
ENDMDL
MODEL 3
REMARK VINA RESULT:      -9.7     11.144     16.190
REMARK  Name = C:\Users\Docking\Desktop\test protocol\1iep_ligandH.pdb
REMARK  8 active torsions:
REMARK  status: ('A' for Active; 'I' for Inactive)
REMARK    1  A    between atoms: _5  and  _11
REMARK    2  A    between atoms: _19  and  _21
REMARK    3  A    between atoms: _22  and  _66
REMARK    4  A    between atoms: _27  and  _30
REMARK    5  A    between atoms: _32  and  _33
REMARK    6  A    between atoms: _38  and  _43
REMARK    7  A    between atoms: _43  and  _46
REMARK    8  A    between atoms: _53  and  _55
REMARK                            x       y       z     vdW  Elec       q    Type
REMARK                         _______ _______ _______ _____ _____    ______ ____
ROOT
ATOM     10  C   UNL     1      71.542 138.610 126.909  0.00  0.00    +0.038 A 
ATOM     11  C   UNL     1      72.853 138.099 127.090  0.00  0.00    +0.047 A 
ATOM     12  C   UNL     1      73.956 138.972 127.461  0.00  0.00    +0.035 A 
ATOM     32  C   UNL     1      73.688 140.360 127.644  0.00  0.00    +0.024 A 
ATOM     33  C   UNL     1      72.362 140.896 127.463  0.00  0.00    +0.007 A 
ATOM     34  C   UNL     1      71.270 140.041 127.095  0.00  0.00    -0.029 A 
ATOM     35  C   UNL     1      69.871 140.672 126.909  0.00  0.00    +0.045 C 
ENDROOT
BRANCH  10   9
ATOM      4  C   UNL     1      68.821 136.384 123.642  0.00  0.00    +0.077 A 
ATOM      5  C   UNL     1      69.472 137.056 122.555  0.00  0.00    +0.048 A 
ATOM      6  C   UNL     1      70.497 137.973 122.880  0.00  0.00    +0.116 A 
ATOM      7  N   UNL     1      70.838 138.192 124.197  0.00  0.00    -0.223 NA
ATOM      8  C   UNL     1      70.189 137.528 125.221  0.00  0.00    +0.220 A 
ATOM      9  N   UNL     1      70.521 137.727 126.553  0.00  0.00    -0.283 N 
ATOM     36  H   UNL     1      70.013 137.224 127.280  0.00  0.00    +0.155 HD
ATOM     37  N   UNL     1      69.205 136.649 124.938  0.00  0.00    -0.214 NA
BRANCH   4   3
ATOM      1  C   UNL     1      66.390 133.368 124.185  0.00  0.00    +0.020 A 
ATOM      2  C   UNL     1      67.466 134.306 124.407  0.00  0.00    +0.013 A 
ATOM      3  C   UNL     1      67.721 135.384 123.460  0.00  0.00    +0.019 A 
ATOM     38  C   UNL     1      66.863 135.486 122.290  0.00  0.00    +0.120 A 
ATOM     39  N   UNL     1      65.836 134.567 122.101  0.00  0.00    -0.263 NA
ATOM     40  C   UNL     1      65.581 133.524 123.005  0.00  0.00    +0.111 A 
ENDBRANCH   4   3
ENDBRANCH  10   9
BRANCH  12  13
ATOM     13  N   UNL     1      75.310 138.512 127.650  0.00  0.00    -0.281 N 
ATOM     14  C   UNL     1      76.198 138.061 126.688  0.00  0.00    +0.248 C 
ATOM     30  O   UNL     1      75.890 137.783 125.538  0.00  0.00    -0.270 OA
ATOM     31  H   UNL     1      75.654 138.519 128.610  0.00  0.00    +0.155 HD
BRANCH  14  15
ATOM     15  C   UNL     1      77.634 137.879 127.059  0.00  0.00    +0.037 A 
ATOM     16  C   UNL     1      78.059 137.852 128.461  0.00  0.00    +0.013 A 
ATOM     17  C   UNL     1      79.453 137.692 128.792  0.00  0.00    +0.005 A 
ATOM     18  C   UNL     1      80.433 137.558 127.717  0.00  0.00    -0.033 A 
ATOM     28  C   UNL     1      79.984 137.583 126.335  0.00  0.00    +0.005 A 
ATOM     29  C   UNL     1      78.618 137.740 126.007  0.00  0.00    +0.013 A 
BRANCH  18  19
ATOM     19  C   UNL     1      81.943 137.405 127.977  0.00  0.00    +0.119 C 
BRANCH  19  20
ATOM     20  N   UNL     1      82.354 136.707 129.232  0.00  0.00    -0.302 NA
ATOM     21  C   UNL     1      83.689 137.231 129.769  0.00  0.00    +0.066 C 
ATOM     22  C   UNL     1      84.093 136.506 131.094  0.00  0.00    -0.064 C 
ATOM     23  N   UNL     1      84.162 134.998 130.847  0.00  0.00    +0.379 N 
ATOM     24  C   UNL     1      84.598 134.319 132.076  0.00  0.00    -0.096 C 
ATOM     25  H   UNL     1      84.939 134.819 130.068  0.00  0.00    -0.082 HD
ATOM     26  C   UNL     1      82.840 134.470 130.310  0.00  0.00    -0.064 C 
ATOM     27  C   UNL     1      82.433 135.217 129.009  0.00  0.00    +0.066 C 
ENDBRANCH  19  20
ENDBRANCH  18  19
ENDBRANCH  14  15
ENDBRANCH  12  13
TORSDOF 6
ENDMDL
MODEL 4
REMARK VINA RESULT:      -9.6      3.177      6.981
REMARK  Name = C:\Users\Docking\Desktop\test protocol\1iep_ligandH.pdb
REMARK  8 active torsions:
REMARK  status: ('A' for Active; 'I' for Inactive)
REMARK    1  A    between atoms: _5  and  _11
REMARK    2  A    between atoms: _19  and  _21
REMARK    3  A    between atoms: _22  and  _66
REMARK    4  A    between atoms: _27  and  _30
REMARK    5  A    between atoms: _32  and  _33
REMARK    6  A    between atoms: _38  and  _43
REMARK    7  A    between atoms: _43  and  _46
REMARK    8  A    between atoms: _53  and  _55
REMARK                            x       y       z     vdW  Elec       q    Type
REMARK                         _______ _______ _______ _____ _____    ______ ____
ROOT
ATOM     10  C   UNL     1      67.604 122.354 113.422  0.00  0.00    +0.038 A 
ATOM     11  C   UNL     1      67.658 123.550 114.183  0.00  0.00    +0.047 A 
ATOM     12  C   UNL     1      68.622 124.594 113.876  0.00  0.00    +0.035 A 
ATOM     32  C   UNL     1      69.516 124.389 112.785  0.00  0.00    +0.024 A 
ATOM     33  C   UNL     1      69.477 123.180 112.002  0.00  0.00    +0.007 A 
ATOM     34  C   UNL     1      68.529 122.144 112.301  0.00  0.00    -0.029 A 
ATOM     35  C   UNL     1      68.536 120.866 111.432  0.00  0.00    +0.045 C 
ENDROOT
BRANCH  10   9
ATOM      4  C   UNL     1      63.270 120.337 112.990  0.00  0.00    +0.077 A 
ATOM      5  C   UNL     1      62.846 121.314 112.029  0.00  0.00    +0.048 A 
ATOM      6  C   UNL     1      63.771 122.323 111.678  0.00  0.00    +0.116 A 
ATOM      7  N   UNL     1      65.024 122.344 112.252  0.00  0.00    -0.223 NA
ATOM      8  C   UNL     1      65.400 121.387 113.177  0.00  0.00    +0.220 A 
ATOM      9  N   UNL     1      66.658 121.384 113.760  0.00  0.00    -0.283 N 
ATOM     36  H   UNL     1      66.895 120.665 114.444  0.00  0.00    +0.155 HD
ATOM     37  N   UNL     1      64.535 120.414 113.529  0.00  0.00    -0.214 NA
BRANCH   4   3
ATOM      1  C   UNL     1      60.540 117.541 113.149  0.00  0.00    +0.020 A 
ATOM      2  C   UNL     1      61.343 118.632 112.648  0.00  0.00    +0.013 A 
ATOM      3  C   UNL     1      62.408 119.207 113.460  0.00  0.00    +0.019 A 
ATOM     38  C   UNL     1      62.637 118.649 114.785  0.00  0.00    +0.120 A 
ATOM     39  N   UNL     1      61.846 117.600 115.241  0.00  0.00    -0.263 NA
ATOM     40  C   UNL     1      60.817 117.039 114.469  0.00  0.00    +0.111 A 
ENDBRANCH   4   3
ENDBRANCH  10   9
BRANCH  12  13
ATOM     13  N   UNL     1      68.728 125.826 114.619  0.00  0.00    -0.281 N 
ATOM     14  C   UNL     1      68.570 127.120 114.149  0.00  0.00    +0.248 C 
ATOM     30  O   UNL     1      68.522 127.425 112.967  0.00  0.00    -0.270 OA
ATOM     31  H   UNL     1      68.947 125.733 115.611  0.00  0.00    +0.155 HD
BRANCH  14  15
ATOM     15  C   UNL     1      68.463 128.237 115.136  0.00  0.00    +0.037 A 
ATOM     16  C   UNL     1      67.181 128.584 115.756  0.00  0.00    +0.013 A 
ATOM     17  C   UNL     1      67.102 129.678 116.691  0.00  0.00    +0.005 A 
ATOM     18  C   UNL     1      68.311 130.433 117.014  0.00  0.00    -0.033 A 
ATOM     28  C   UNL     1      69.570 130.064 116.388  0.00  0.00    +0.005 A 
ATOM     29  C   UNL     1      69.651 128.993 115.470  0.00  0.00    +0.013 A 
BRANCH  18  19
ATOM     19  C   UNL     1      68.316 131.628 117.985  0.00  0.00    +0.119 C 
BRANCH  19  20
ATOM     20  N   UNL     1      67.255 131.660 119.035  0.00  0.00    -0.302 NA
ATOM     21  C   UNL     1      67.104 133.052 119.657  0.00  0.00    +0.066 C 
ATOM     22  C   UNL     1      65.974 133.073 120.737  0.00  0.00    -0.064 C 
ATOM     23  N   UNL     1      66.282 132.030 121.813  0.00  0.00    +0.379 N 
ATOM     24  C   UNL     1      65.252 132.087 122.861  0.00  0.00    -0.096 C 
ATOM     25  H   UNL     1      67.256 132.303 122.281  0.00  0.00    -0.082 HD
ATOM     26  C   UNL     1      66.436 130.644 121.203  0.00  0.00    -0.064 C 
ATOM     27  C   UNL     1      67.541 130.641 120.110  0.00  0.00    +0.066 C 
ENDBRANCH  19  20
ENDBRANCH  18  19
ENDBRANCH  14  15
ENDBRANCH  12  13
TORSDOF 6
ENDMDL
MODEL 5
REMARK VINA RESULT:      -9.6      8.863     15.981
REMARK  Name = C:\Users\Docking\Desktop\test protocol\1iep_ligandH.pdb
REMARK  8 active torsions:
REMARK  status: ('A' for Active; 'I' for Inactive)
REMARK    1  A    between atoms: _5  and  _11
REMARK    2  A    between atoms: _19  and  _21
REMARK    3  A    between atoms: _22  and  _66
REMARK    4  A    between atoms: _27  and  _30
REMARK    5  A    between atoms: _32  and  _33
REMARK    6  A    between atoms: _38  and  _43
REMARK    7  A    between atoms: _43  and  _46
REMARK    8  A    between atoms: _53  and  _55
REMARK                            x       y       z     vdW  Elec       q    Type
REMARK                         _______ _______ _______ _____ _____    ______ ____
ROOT
ATOM     10  C   UNL     1      73.692 139.940 127.714  0.00  0.00    +0.038 A 
ATOM     11  C   UNL     1      72.788 139.351 126.793  0.00  0.00    +0.047 A 
ATOM     12  C   UNL     1      71.350 139.438 126.991  0.00  0.00    +0.035 A 
ATOM     32  C   UNL     1      70.866 140.135 128.136  0.00  0.00    +0.024 A 
ATOM     33  C   UNL     1      71.771 140.739 129.083  0.00  0.00    +0.007 A 
ATOM     34  C   UNL     1      73.191 140.654 128.895  0.00  0.00    -0.029 A 
ATOM     35  C   UNL     1      74.113 141.314 129.945  0.00  0.00    +0.045 C 
ENDROOT
BRANCH  10   9
ATOM      4  C   UNL     1      77.808 137.471 127.774  0.00  0.00    +0.077 A 
ATOM      5  C   UNL     1      77.178 136.321 128.355  0.00  0.00    +0.048 A 
ATOM      6  C   UNL     1      75.795 136.407 128.629  0.00  0.00    +0.116 A 
ATOM      7  N   UNL     1      75.103 137.564 128.340  0.00  0.00    -0.223 NA
ATOM      8  C   UNL     1      75.741 138.656 127.782  0.00  0.00    +0.220 A 
ATOM      9  N   UNL     1      75.064 139.826 127.476  0.00  0.00    -0.283 N 
ATOM     36  H   UNL     1      75.572 140.612 127.072  0.00  0.00    +0.155 HD
ATOM     37  N   UNL     1      77.062 138.599 127.512  0.00  0.00    -0.214 NA
BRANCH   4   3
ATOM      1  C   UNL     1      81.165 138.098 125.867  0.00  0.00    +0.020 A 
ATOM      2  C   UNL     1      79.750 138.061 126.156  0.00  0.00    +0.013 A 
ATOM      3  C   UNL     1      79.262 137.533 127.423  0.00  0.00    +0.019 A 
ATOM     38  C   UNL     1      80.240 137.047 128.385  0.00  0.00    +0.120 A 
ATOM     39  N   UNL     1      81.597 137.094 128.078  0.00  0.00    -0.263 NA
ATOM     40  C   UNL     1      82.078 137.599 126.861  0.00  0.00    +0.111 A 
ENDBRANCH   4   3
ENDBRANCH  10   9
BRANCH  12  13
ATOM     13  N   UNL     1      70.384 138.853 126.094  0.00  0.00    -0.281 N 
ATOM     14  C   UNL     1      69.822 139.419 124.961  0.00  0.00    +0.248 C 
ATOM     30  O   UNL     1      69.905 140.601 124.665  0.00  0.00    -0.270 OA
ATOM     31  H   UNL     1      70.078 137.907 126.322  0.00  0.00    +0.155 HD
BRANCH  14  15
ATOM     15  C   UNL     1      69.043 138.547 124.030  0.00  0.00    +0.037 A 
ATOM     16  C   UNL     1      67.868 139.056 123.317  0.00  0.00    +0.013 A 
ATOM     17  C   UNL     1      67.124 138.189 122.438  0.00  0.00    +0.005 A 
ATOM     18  C   UNL     1      67.554 136.804 122.266  0.00  0.00    -0.033 A 
ATOM     28  C   UNL     1      68.726 136.327 122.981  0.00  0.00    +0.005 A 
ATOM     29  C   UNL     1      69.457 137.173 123.845  0.00  0.00    +0.013 A 
BRANCH  18  19
ATOM     19  C   UNL     1      66.808 135.803 121.364  0.00  0.00    +0.119 C 
BRANCH  19  20
ATOM     20  N   UNL     1      66.707 134.392 121.845  0.00  0.00    -0.302 NA
ATOM     21  C   UNL     1      66.282 133.434 120.730  0.00  0.00    +0.066 C 
ATOM     22  C   UNL     1      66.203 131.960 121.245  0.00  0.00    -0.064 C 
ATOM     23  N   UNL     1      65.230 131.886 122.423  0.00  0.00    +0.379 N 
ATOM     24  C   UNL     1      65.110 130.491 122.873  0.00  0.00    -0.096 C 
ATOM     25  H   UNL     1      64.229 132.210 122.056  0.00  0.00    -0.082 HD
ATOM     26  C   UNL     1      65.644 132.838 123.536  0.00  0.00    -0.064 C 
ATOM     27  C   UNL     1      65.748 134.295 123.006  0.00  0.00    +0.066 C 
ENDBRANCH  19  20
ENDBRANCH  18  19
ENDBRANCH  14  15
ENDBRANCH  12  13
TORSDOF 6
ENDMDL
