MODEL 1
REMARK VINA RESULT:     -10.2      0.000      0.000
REMARK  Name = C:\Users\Docking\Desktop\test protocol\1iep_ligandH.pdb
REMARK  8 active torsions:
REMARK  status: ('A' for Active; 'I' for Inactive)
REMARK    1  A    between atoms: _5  and  _11
REMARK    2  A    between atoms: _19  and  _21
REMARK    3  A    between atoms: _22  and  _66
REMARK    4  A    between atoms: _27  and  _30
REMARK    5  A    between atoms: _32  and  _33
REMARK    6  A    between atoms: _38  and  _43
REMARK    7  A    between atoms: _43  and  _46
REMARK    8  A    between atoms: _53  and  _55
REMARK                            x       y       z     vdW  Elec       q    Type
REMARK                         _______ _______ _______ _____ _____    ______ ____
ROOT
ATOM     10  C   UNL     1      68.210 125.039 111.906  0.00  0.00    +0.038 A 
ATOM     11  C   UNL     1      69.333 124.888 111.054  0.00  0.00    +0.047 A 
ATOM     12  C   UNL     1      69.513 123.688 110.251  0.00  0.00    +0.035 A 
ATOM     32  C   UNL     1      68.526 122.663 110.338  0.00  0.00    +0.024 A 
ATOM     33  C   UNL     1      67.378 122.800 111.199  0.00  0.00    +0.007 A 
ATOM     34  C   UNL     1      67.197 123.980 111.996  0.00  0.00    -0.029 A 
ATOM     35  C   UNL     1      65.951 124.070 112.907  0.00  0.00    +0.045 C 
ENDROOT
BRANCH  10   9
ATOM      4  C   UNL     1      68.386 127.451 116.052  0.00  0.00    +0.077 A 
ATOM      5  C   UNL     1      68.724 126.270 116.793  0.00  0.00    +0.048 A 
ATOM      6  C   UNL     1      68.836 125.061 116.071  0.00  0.00    +0.116 A 
ATOM      7  N   UNL     1      68.624 125.046 114.709  0.00  0.00    -0.223 NA
ATOM      8  C   UNL     1      68.298 126.203 114.025  0.00  0.00    +0.220 A 
ATOM      9  N   UNL     1      68.088 126.212 112.655  0.00  0.00    -0.283 N 
ATOM     36  H   UNL     1      67.842 127.085 112.188  0.00  0.00    +0.155 HD
ATOM     37  N   UNL     1      68.184 127.370 114.692  0.00  0.00    -0.214 NA
BRANCH   4   3
ATOM      1  C   UNL     1      67.951 130.336 118.658  0.00  0.00    +0.020 A 
ATOM      2  C   UNL     1      68.094 129.007 118.109  0.00  0.00    +0.013 A 
ATOM      3  C   UNL     1      68.235 128.805 116.673  0.00  0.00    +0.019 A 
ATOM     38  C   UNL     1      68.229 129.979 115.812  0.00  0.00    +0.120 A 
ATOM     39  N   UNL     1      68.088 131.246 116.369  0.00  0.00    -0.263 NA
ATOM     40  C   UNL     1      67.950 131.452 117.749  0.00  0.00    +0.111 A 
ENDBRANCH   4   3
ENDBRANCH  10   9
BRANCH  12  13
ATOM     13  N   UNL     1      70.637 123.475 109.374  0.00  0.00    -0.281 N 
ATOM     14  C   UNL     1      71.038 124.251 108.298  0.00  0.00    +0.248 C 
ATOM     30  O   UNL     1      70.361 125.135 107.794  0.00  0.00    -0.270 OA
ATOM     31  H   UNL     1      71.207 122.652 109.570  0.00  0.00    +0.155 HD
BRANCH  14  15
ATOM     15  C   UNL     1      72.378 124.000 107.686  0.00  0.00    +0.037 A 
ATOM     16  C   UNL     1      73.377 123.166 108.360  0.00  0.00    +0.013 A 
ATOM     17  C   UNL     1      74.668 122.954 107.755  0.00  0.00    +0.005 A 
ATOM     18  C   UNL     1      74.967 123.577 106.467  0.00  0.00    -0.033 A 
ATOM     28  C   UNL     1      73.956 124.395 105.819  0.00  0.00    +0.005 A 
ATOM     29  C   UNL     1      72.689 124.606 106.409  0.00  0.00    +0.013 A 
BRANCH  18  19
ATOM     19  C   UNL     1      76.326 123.422 105.759  0.00  0.00    +0.119 C 
BRANCH  19  20
ATOM     20  N   UNL     1      77.490 124.149 106.347  0.00  0.00    -0.302 NA
ATOM     21  C   UNL     1      77.939 123.535 107.676  0.00  0.00    +0.066 C 
ATOM     22  C   UNL     1      79.172 124.294 108.266  0.00  0.00    -0.064 C 
ATOM     23  N   UNL     1      78.821 125.772 108.444  0.00  0.00    +0.379 N 
ATOM     24  C   UNL     1      79.958 126.477 109.052  0.00  0.00    -0.096 C 
ATOM     25  H   UNL     1      77.965 125.832 109.156  0.00  0.00    -0.082 HD
ATOM     26  C   UNL     1      78.370 126.390 107.128  0.00  0.00    -0.064 C 
ATOM     27  C   UNL     1      77.163 125.610 106.535  0.00  0.00    +0.066 C 
ENDBRANCH  19  20
ENDBRANCH  18  19
ENDBRANCH  14  15
ENDBRANCH  12  13
TORSDOF 6
ENDMDL
MODEL 2
REMARK VINA RESULT:     -10.2      6.498     12.564
REMARK  Name = C:\Users\Docking\Desktop\test protocol\1iep_ligandH.pdb
REMARK  8 active torsions:
REMARK  status: ('A' for Active; 'I' for Inactive)
REMARK    1  A    between atoms: _5  and  _11
REMARK    2  A    between atoms: _19  and  _21
REMARK    3  A    between atoms: _22  and  _66
REMARK    4  A    between atoms: _27  and  _30
REMARK    5  A    between atoms: _32  and  _33
REMARK    6  A    between atoms: _38  and  _43
REMARK    7  A    between atoms: _43  and  _46
REMARK    8  A    between atoms: _53  and  _55
REMARK                            x       y       z     vdW  Elec       q    Type
REMARK                         _______ _______ _______ _____ _____    ______ ____
ROOT
ATOM     10  C   UNL     1      65.647 132.738 122.247  0.00  0.00    +0.038 A 
ATOM     11  C   UNL     1      65.810 132.295 120.909  0.00  0.00    +0.047 A 
ATOM     12  C   UNL     1      66.752 131.238 120.576  0.00  0.00    +0.035 A 
ATOM     32  C   UNL     1      67.511 130.652 121.631  0.00  0.00    +0.024 A 
ATOM     33  C   UNL     1      67.359 131.091 122.996  0.00  0.00    +0.007 A 
ATOM     34  C   UNL     1      66.433 132.135 123.330  0.00  0.00    -0.029 A 
ATOM     35  C   UNL     1      66.316 132.569 124.809  0.00  0.00    +0.045 C 
ENDROOT
BRANCH  10   9
ATOM      4  C   UNL     1      64.512 137.361 122.857  0.00  0.00    +0.077 A 
ATOM      5  C   UNL     1      65.869 137.781 122.662  0.00  0.00    +0.048 A 
ATOM      6  C   UNL     1      66.831 136.776 122.414  0.00  0.00    +0.116 A 
ATOM      7  N   UNL     1      66.451 135.452 122.366  0.00  0.00    -0.223 NA
ATOM      8  C   UNL     1      65.133 135.081 122.561  0.00  0.00    +0.220 A 
ATOM      9  N   UNL     1      64.728 133.756 122.510  0.00  0.00    -0.283 N 
ATOM     36  H   UNL     1      63.748 133.522 122.666  0.00  0.00    +0.155 HD
ATOM     37  N   UNL     1      64.197 136.022 122.801  0.00  0.00    -0.214 NA
BRANCH   4   3
ATOM      1  C   UNL     1      61.051 138.830 123.936  0.00  0.00    +0.020 A 
ATOM      2  C   UNL     1      62.110 137.878 123.696  0.00  0.00    +0.013 A 
ATOM      3  C   UNL     1      63.381 138.305 123.125  0.00  0.00    +0.019 A 
ATOM     38  C   UNL     1      63.550 139.715 122.807  0.00  0.00    +0.120 A 
ATOM     39  N   UNL     1      62.511 140.609 123.047  0.00  0.00    -0.263 NA
ATOM     40  C   UNL     1      61.283 140.209 123.594  0.00  0.00    +0.111 A 
ENDBRANCH   4   3
ENDBRANCH  10   9
BRANCH  12  13
ATOM     13  N   UNL     1      66.966 130.752 119.235  0.00  0.00    -0.281 N 
ATOM     14  C   UNL     1      67.832 131.253 118.276  0.00  0.00    +0.248 C 
ATOM     30  O   UNL     1      68.401 132.331 118.355  0.00  0.00    -0.270 OA
ATOM     31  H   UNL     1      66.413 129.941 118.960  0.00  0.00    +0.155 HD
BRANCH  14  15
ATOM     15  C   UNL     1      68.091 130.445 117.046  0.00  0.00    +0.037 A 
ATOM     16  C   UNL     1      67.081 129.528 116.512  0.00  0.00    +0.013 A 
ATOM     17  C   UNL     1      67.363 128.748 115.333  0.00  0.00    +0.005 A 
ATOM     18  C   UNL     1      68.662 128.884 114.678  0.00  0.00    -0.033 A 
ATOM     28  C   UNL     1      69.644 129.805 115.226  0.00  0.00    +0.005 A 
ATOM     29  C   UNL     1      69.371 130.570 116.382  0.00  0.00    +0.013 A 
BRANCH  18  19
ATOM     19  C   UNL     1      69.057 128.075 113.428  0.00  0.00    +0.119 C 
BRANCH  19  20
ATOM     20  N   UNL     1      68.498 126.697 113.300  0.00  0.00    -0.302 NA
ATOM     21  C   UNL     1      69.014 125.763 114.398  0.00  0.00    +0.066 C 
ATOM     22  C   UNL     1      68.401 124.331 114.262  0.00  0.00    -0.064 C 
ATOM     23  N   UNL     1      68.725 123.770 112.877  0.00  0.00    +0.379 N 
ATOM     24  C   UNL     1      68.200 122.401 112.767  0.00  0.00    -0.096 C 
ATOM     25  H   UNL     1      69.835 123.715 112.785  0.00  0.00    -0.082 HD
ATOM     26  C   UNL     1      68.217 124.694 111.779  0.00  0.00    -0.064 C 
ATOM     27  C   UNL     1      68.809 126.122 111.941  0.00  0.00    +0.066 C 
ENDBRANCH  19  20
ENDBRANCH  18  19
ENDBRANCH  14  15
ENDBRANCH  12  13
TORSDOF 6
ENDMDL
MODEL 3
REMARK VINA RESULT:     -10.1     15.879     22.147
REMARK  Name = C:\Users\Docking\Desktop\test protocol\1iep_ligandH.pdb
REMARK  8 active torsions:
REMARK  status: ('A' for Active; 'I' for Inactive)
REMARK    1  A    between atoms: _5  and  _11
REMARK    2  A    between atoms: _19  and  _21
REMARK    3  A    between atoms: _22  and  _66
REMARK    4  A    between atoms: _27  and  _30
REMARK    5  A    between atoms: _32  and  _33
REMARK    6  A    between atoms: _38  and  _43
REMARK    7  A    between atoms: _43  and  _46
REMARK    8  A    between atoms: _53  and  _55
REMARK                            x       y       z     vdW  Elec       q    Type
REMARK                         _______ _______ _______ _____ _____    ______ ____
ROOT
ATOM     10  C   UNL     1      69.641 138.765 126.403  0.00  0.00    +0.038 A 
ATOM     11  C   UNL     1      70.930 138.531 126.945  0.00  0.00    +0.047 A 
ATOM     12  C   UNL     1      71.813 139.634 127.290  0.00  0.00    +0.035 A 
ATOM     32  C   UNL     1      71.349 140.964 127.073  0.00  0.00    +0.024 A 
ATOM     33  C   UNL     1      70.042 141.220 126.522  0.00  0.00    +0.007 A 
ATOM     34  C   UNL     1      69.167 140.136 126.177  0.00  0.00    -0.029 A 
ATOM     35  C   UNL     1      67.779 140.469 125.584  0.00  0.00    +0.045 C 
ENDROOT
BRANCH  10   9
ATOM      4  C   UNL     1      67.910 135.530 123.307  0.00  0.00    +0.077 A 
ATOM      5  C   UNL     1      68.655 136.089 122.216  0.00  0.00    +0.048 A 
ATOM      6  C   UNL     1      69.466 137.213 122.492  0.00  0.00    +0.116 A 
ATOM      7  N   UNL     1      69.521 137.731 123.768  0.00  0.00    -0.223 NA
ATOM      8  C   UNL     1      68.788 137.169 124.797  0.00  0.00    +0.220 A 
ATOM      9  N   UNL     1      68.834 137.668 126.090  0.00  0.00    -0.283 N 
ATOM     36  H   UNL     1      68.273 137.230 126.820  0.00  0.00    +0.155 HD
ATOM     37  N   UNL     1      68.005 136.096 124.559  0.00  0.00    -0.214 NA
BRANCH   4   3
ATOM      1  C   UNL     1      65.909 132.260 124.080  0.00  0.00    +0.020 A 
ATOM      2  C   UNL     1      66.788 133.392 124.259  0.00  0.00    +0.013 A 
ATOM      3  C   UNL     1      67.011 134.340 123.175  0.00  0.00    +0.019 A 
ATOM     38  C   UNL     1      66.325 134.112 121.913  0.00  0.00    +0.120 A 
ATOM     39  N   UNL     1      65.486 133.012 121.769  0.00  0.00    -0.263 NA
ATOM     40  C   UNL     1      65.264 132.092 122.804  0.00  0.00    +0.111 A 
ENDBRANCH   4   3
ENDBRANCH  10   9
BRANCH  12  13
ATOM     13  N   UNL     1      73.136 139.457 127.836  0.00  0.00    -0.281 N 
ATOM     14  C   UNL     1      74.328 139.301 127.147  0.00  0.00    +0.248 C 
ATOM     30  O   UNL     1      74.409 139.075 125.949  0.00  0.00    -0.270 OA
ATOM     31  H   UNL     1      73.202 139.445 128.854  0.00  0.00    +0.155 HD
BRANCH  14  15
ATOM     15  C   UNL     1      75.615 139.396 127.900  0.00  0.00    +0.037 A 
ATOM     16  C   UNL     1      75.797 140.376 128.974  0.00  0.00    +0.013 A 
ATOM     17  C   UNL     1      77.055 140.457 129.673  0.00  0.00    +0.005 A 
ATOM     18  C   UNL     1      78.141 139.554 129.301  0.00  0.00    -0.033 A 
ATOM     28  C   UNL     1      77.932 138.588 128.236  0.00  0.00    +0.005 A 
ATOM     29  C   UNL     1      76.700 138.505 127.547  0.00  0.00    +0.013 A 
BRANCH  18  19
ATOM     19  C   UNL     1      79.524 139.584 129.979  0.00  0.00    +0.119 C 
BRANCH  19  20
ATOM     20  N   UNL     1      79.930 140.857 130.646  0.00  0.00    -0.302 NA
ATOM     21  C   UNL     1      80.732 141.766 129.710  0.00  0.00    +0.066 C 
ATOM     22  C   UNL     1      81.129 143.103 130.416  0.00  0.00    -0.064 C 
ATOM     23  N   UNL     1      81.929 142.789 131.682  0.00  0.00    +0.379 N 
ATOM     24  C   UNL     1      82.354 144.045 132.318  0.00  0.00    -0.096 C 
ATOM     25  H   UNL     1      82.848 142.238 131.373  0.00  0.00    -0.082 HD
ATOM     26  C   UNL     1      81.140 141.884 132.618  0.00  0.00    -0.064 C 
ATOM     27  C   UNL     1      80.725 140.571 131.896  0.00  0.00    +0.066 C 
ENDBRANCH  19  20
ENDBRANCH  18  19
ENDBRANCH  14  15
ENDBRANCH  12  13
TORSDOF 6
ENDMDL
MODEL 4
REMARK VINA RESULT:     -10.0      2.650     12.301
REMARK  Name = C:\Users\Docking\Desktop\test protocol\1iep_ligandH.pdb
REMARK  8 active torsions:
REMARK  status: ('A' for Active; 'I' for Inactive)
REMARK    1  A    between atoms: _5  and  _11
REMARK    2  A    between atoms: _19  and  _21
REMARK    3  A    between atoms: _22  and  _66
REMARK    4  A    between atoms: _27  and  _30
REMARK    5  A    between atoms: _32  and  _33
REMARK    6  A    between atoms: _38  and  _43
REMARK    7  A    between atoms: _43  and  _46
REMARK    8  A    between atoms: _53  and  _55
REMARK                            x       y       z     vdW  Elec       q    Type
REMARK                         _______ _______ _______ _____ _____    ______ ____
ROOT
ATOM     10  C   UNL     1      68.467 123.522 111.592  0.00  0.00    +0.038 A 
ATOM     11  C   UNL     1      68.470 124.611 112.501  0.00  0.00    +0.047 A 
ATOM     12  C   UNL     1      67.301 124.917 113.311  0.00  0.00    +0.035 A 
ATOM     32  C   UNL     1      66.147 124.092 113.172  0.00  0.00    +0.024 A 
ATOM     33  C   UNL     1      66.127 122.982 112.252  0.00  0.00    +0.007 A 
ATOM     34  C   UNL     1      67.276 122.677 111.448  0.00  0.00    -0.029 A 
ATOM     35  C   UNL     1      67.195 121.478 110.474  0.00  0.00    +0.045 C 
ENDROOT
BRANCH  10   9
ATOM      4  C   UNL     1      71.431 124.496 107.945  0.00  0.00    +0.077 A 
ATOM      5  C   UNL     1      70.606 125.576 107.485  0.00  0.00    +0.048 A 
ATOM      6  C   UNL     1      69.423 125.843 108.210  0.00  0.00    +0.116 A 
ATOM      7  N   UNL     1      69.101 125.082 109.313  0.00  0.00    -0.223 NA
ATOM      8  C   UNL     1      69.918 124.047 109.728  0.00  0.00    +0.220 A 
ATOM      9  N   UNL     1      69.617 123.273 110.839  0.00  0.00    -0.283 N 
ATOM     36  H   UNL     1      70.241 122.514 111.109  0.00  0.00    +0.155 HD
ATOM     37  N   UNL     1      71.052 123.770 109.052  0.00  0.00    -0.214 NA
BRANCH   4   3
ATOM      1  C   UNL     1      74.784 122.662 107.109  0.00  0.00    +0.020 A 
ATOM      2  C   UNL     1      73.555 123.012 107.783  0.00  0.00    +0.013 A 
ATOM      3  C   UNL     1      72.714 124.093 107.286  0.00  0.00    +0.019 A 
ATOM     38  C   UNL     1      73.148 124.806 106.093  0.00  0.00    +0.120 A 
ATOM     39  N   UNL     1      74.337 124.448 105.466  0.00  0.00    -0.263 NA
ATOM     40  C   UNL     1      75.155 123.410 105.937  0.00  0.00    +0.111 A 
ENDBRANCH   4   3
ENDBRANCH  10   9
BRANCH  12  13
ATOM     13  N   UNL     1      67.243 126.014 114.245  0.00  0.00    -0.281 N 
ATOM     14  C   UNL     1      68.007 126.204 115.385  0.00  0.00    +0.248 C 
ATOM     30  O   UNL     1      68.715 125.347 115.893  0.00  0.00    -0.270 OA
ATOM     31  H   UNL     1      66.554 126.739 114.041  0.00  0.00    +0.155 HD
BRANCH  14  15
ATOM     15  C   UNL     1      67.968 127.534 116.067  0.00  0.00    +0.037 A 
ATOM     16  C   UNL     1      67.067 128.595 115.612  0.00  0.00    +0.013 A 
ATOM     17  C   UNL     1      67.062 129.874 116.277  0.00  0.00    +0.005 A 
ATOM     18  C   UNL     1      67.962 130.098 117.406  0.00  0.00    -0.033 A 
ATOM     28  C   UNL     1      68.842 129.025 117.839  0.00  0.00    +0.005 A 
ATOM     29  C   UNL     1      68.851 127.771 117.189  0.00  0.00    +0.013 A 
BRANCH  18  19
ATOM     19  C   UNL     1      68.039 131.438 118.161  0.00  0.00    +0.119 C 
BRANCH  19  20
ATOM     20  N   UNL     1      67.037 131.671 119.244  0.00  0.00    -0.302 NA
ATOM     21  C   UNL     1      67.080 133.110 119.766  0.00  0.00    +0.066 C 
ATOM     22  C   UNL     1      66.011 133.342 120.882  0.00  0.00    -0.064 C 
ATOM     23  N   UNL     1      66.240 132.346 122.020  0.00  0.00    +0.379 N 
ATOM     24  C   UNL     1      65.272 132.600 123.097  0.00  0.00    -0.096 C 
ATOM     25  H   UNL     1      67.260 132.531 122.431  0.00  0.00    -0.082 HD
ATOM     26  C   UNL     1      66.201 130.913 121.509  0.00  0.00    -0.064 C 
ATOM     27  C   UNL     1      67.248 130.700 120.380  0.00  0.00    +0.066 C 
ENDBRANCH  19  20
ENDBRANCH  18  19
ENDBRANCH  14  15
ENDBRANCH  12  13
TORSDOF 6
ENDMDL
MODEL 5
REMARK VINA RESULT:     -10.0      5.902     10.115
REMARK  Name = C:\Users\Docking\Desktop\test protocol\1iep_ligandH.pdb
REMARK  8 active torsions:
REMARK  status: ('A' for Active; 'I' for Inactive)
REMARK    1  A    between atoms: _5  and  _11
REMARK    2  A    between atoms: _19  and  _21
REMARK    3  A    between atoms: _22  and  _66
REMARK    4  A    between atoms: _27  and  _30
REMARK    5  A    between atoms: _32  and  _33
REMARK    6  A    between atoms: _38  and  _43
REMARK    7  A    between atoms: _43  and  _46
REMARK    8  A    between atoms: _53  and  _55
REMARK                            x       y       z     vdW  Elec       q    Type
REMARK                         _______ _______ _______ _____ _____    ______ ____
ROOT
ATOM     10  C   UNL     1      67.261 124.798 112.763  0.00  0.00    +0.038 A 
ATOM     11  C   UNL     1      68.347 125.710 112.779  0.00  0.00    +0.047 A 
ATOM     12  C   UNL     1      68.616 126.540 113.943  0.00  0.00    +0.035 A 
ATOM     32  C   UNL     1      67.760 126.413 115.076  0.00  0.00    +0.024 A 
ATOM     33  C   UNL     1      66.651 125.492 115.076  0.00  0.00    +0.007 A 
ATOM     34  C   UNL     1      66.379 124.673 113.930  0.00  0.00    -0.029 A 
ATOM     35  C   UNL     1      65.172 123.707 113.984  0.00  0.00    +0.045 C 
ENDROOT
BRANCH  10   9
ATOM      4  C   UNL     1      67.636 120.701 110.292  0.00  0.00    +0.077 A 
ATOM      5  C   UNL     1      68.338 120.051 111.361  0.00  0.00    +0.048 A 
ATOM      6  C   UNL     1      68.589 120.809 112.527  0.00  0.00    +0.116 A 
ATOM      7  N   UNL     1      68.165 122.117 112.607  0.00  0.00    -0.223 NA
ATOM      8  C   UNL     1      67.492 122.714 111.557  0.00  0.00    +0.220 A 
ATOM      9  N   UNL     1      67.048 124.026 111.619  0.00  0.00    -0.283 N 
ATOM     36  H   UNL     1      66.562 124.432 110.820  0.00  0.00    +0.155 HD
ATOM     37  N   UNL     1      67.241 122.013 110.432  0.00  0.00    -0.214 NA
BRANCH   4   3
ATOM      1  C   UNL     1      67.743 119.482 106.577  0.00  0.00    +0.020 A 
ATOM      2  C   UNL     1      68.119 120.149 107.802  0.00  0.00    +0.013 A 
ATOM      3  C   UNL     1      67.293 120.032 108.997  0.00  0.00    +0.019 A 
ATOM     38  C   UNL     1      66.085 119.225 108.919  0.00  0.00    +0.120 A 
ATOM     39  N   UNL     1      65.747 118.595 107.725  0.00  0.00    -0.263 NA
ATOM     40  C   UNL     1      66.533 118.702 106.568  0.00  0.00    +0.111 A 
ENDBRANCH   4   3
ENDBRANCH  10   9
BRANCH  12  13
ATOM     13  N   UNL     1      69.699 127.489 114.014  0.00  0.00    -0.281 N 
ATOM     14  C   UNL     1      69.721 128.793 113.547  0.00  0.00    +0.248 C 
ATOM     30  O   UNL     1      68.880 129.274 112.802  0.00  0.00    -0.270 OA
ATOM     31  H   UNL     1      70.554 127.160 114.463  0.00  0.00    +0.155 HD
BRANCH  14  15
ATOM     15  C   UNL     1      70.847 129.687 113.954  0.00  0.00    +0.037 A 
ATOM     16  C   UNL     1      70.773 130.495 115.174  0.00  0.00    +0.013 A 
ATOM     17  C   UNL     1      71.866 131.362 115.535  0.00  0.00    +0.005 A 
ATOM     18  C   UNL     1      73.045 131.425 114.673  0.00  0.00    -0.033 A 
ATOM     28  C   UNL     1      73.094 130.609 113.471  0.00  0.00    +0.005 A 
ATOM     29  C   UNL     1      72.024 129.759 113.114  0.00  0.00    +0.013 A 
BRANCH  18  19
ATOM     19  C   UNL     1      74.249 132.338 114.969  0.00  0.00    +0.119 C 
BRANCH  19  20
ATOM     20  N   UNL     1      74.035 133.812 114.854  0.00  0.00    -0.302 NA
ATOM     21  C   UNL     1      73.926 134.264 113.395  0.00  0.00    +0.066 C 
ATOM     22  C   UNL     1      73.679 135.804 113.293  0.00  0.00    -0.064 C 
ATOM     23  N   UNL     1      74.810 136.547 114.008  0.00  0.00    +0.379 N 
ATOM     24  C   UNL     1      74.611 137.997 113.864  0.00  0.00    -0.096 C 
ATOM     25  H   UNL     1      75.764 136.284 113.495  0.00  0.00    -0.082 HD
ATOM     26  C   UNL     1      74.927 136.102 115.458  0.00  0.00    -0.064 C 
ATOM     27  C   UNL     1      75.142 134.565 115.549  0.00  0.00    +0.066 C 
ENDBRANCH  19  20
ENDBRANCH  18  19
ENDBRANCH  14  15
ENDBRANCH  12  13
TORSDOF 6
ENDMDL
