MODEL 1
REMARK VINA RESULT:      -8.7      0.000      0.000
REMARK  Name = C:\Users\Docking\Desktop\test protocol\1iep_ligandH.pdb
REMARK  8 active torsions:
REMARK  status: ('A' for Active; 'I' for Inactive)
REMARK    1  A    between atoms: _5  and  _11
REMARK    2  A    between atoms: _19  and  _21
REMARK    3  A    between atoms: _22  and  _66
REMARK    4  A    between atoms: _27  and  _30
REMARK    5  A    between atoms: _32  and  _33
REMARK    6  A    between atoms: _38  and  _43
REMARK    7  A    between atoms: _43  and  _46
REMARK    8  A    between atoms: _53  and  _55
REMARK                            x       y       z     vdW  Elec       q    Type
REMARK                         _______ _______ _______ _____ _____    ______ ____
ROOT
ATOM     10  C   UNL     1     -10.671  23.467  24.435  0.00  0.00    +0.038 A 
ATOM     11  C   UNL     1     -11.037  24.583  25.231  0.00  0.00    +0.047 A 
ATOM     12  C   UNL     1     -12.150  25.442  24.857  0.00  0.00    +0.035 A 
ATOM     32  C   UNL     1     -12.871  25.134  23.667  0.00  0.00    +0.024 A 
ATOM     33  C   UNL     1     -12.512  24.005  22.845  0.00  0.00    +0.007 A 
ATOM     34  C   UNL     1     -11.414  23.155  23.208  0.00  0.00    -0.029 A 
ATOM     35  C   UNL     1     -11.070  21.962  22.286  0.00  0.00    +0.045 C 
ENDROOT
BRANCH  10   9
ATOM      4  C   UNL     1      -8.849  19.517  26.463  0.00  0.00    +0.077 A 
ATOM      5  C   UNL     1     -10.152  18.998  26.763  0.00  0.00    +0.048 A 
ATOM      6  C   UNL     1     -11.265  19.782  26.385  0.00  0.00    +0.116 A 
ATOM      7  N   UNL     1     -11.077  20.993  25.754  0.00  0.00    -0.223 NA
ATOM      8  C   UNL     1      -9.807  21.465  25.482  0.00  0.00    +0.220 A 
ATOM      9  N   UNL     1      -9.594  22.676  24.841  0.00  0.00    -0.283 N 
ATOM     36  H   UNL     1      -8.641  22.993  24.665  0.00  0.00    +0.155 HD
ATOM     37  N   UNL     1      -8.727  20.736  25.834  0.00  0.00    -0.214 NA
BRANCH   4   3
ATOM      1  C   UNL     1      -6.194  17.238  28.212  0.00  0.00    +0.020 A 
ATOM      2  C   UNL     1      -7.447  17.902  27.934  0.00  0.00    +0.013 A 
ATOM      3  C   UNL     1      -7.575  18.805  26.797  0.00  0.00    +0.019 A 
ATOM     38  C   UNL     1      -6.408  19.015  25.954  0.00  0.00    +0.120 A 
ATOM     39  N   UNL     1      -5.214  18.364  26.247  0.00  0.00    -0.263 NA
ATOM     40  C   UNL     1      -5.078  17.494  27.339  0.00  0.00    +0.111 A 
ENDBRANCH   4   3
ENDBRANCH  10   9
BRANCH  12  13
ATOM     13  N   UNL     1     -12.562  26.593  25.622  0.00  0.00    -0.281 N 
ATOM     14  C   UNL     1     -13.013  26.628  26.931  0.00  0.00    +0.248 C 
ATOM     30  O   UNL     1     -13.334  25.643  27.579  0.00  0.00    -0.270 OA
ATOM     31  H   UNL     1     -12.515  27.490  25.139  0.00  0.00    +0.155 HD
BRANCH  14  15
ATOM     15  C   UNL     1     -13.138  27.951  27.616  0.00  0.00    +0.037 A 
ATOM     16  C   UNL     1     -13.114  29.205  26.858  0.00  0.00    +0.013 A 
ATOM     17  C   UNL     1     -13.220  30.467  27.545  0.00  0.00    +0.005 A 
ATOM     18  C   UNL     1     -13.353  30.482  29.000  0.00  0.00    -0.033 A 
ATOM     28  C   UNL     1     -13.379  29.224  29.726  0.00  0.00    +0.005 A 
ATOM     29  C   UNL     1     -13.275  27.984  29.057  0.00  0.00    +0.013 A 
BRANCH  18  19
ATOM     19  C   UNL     1     -13.451  31.784  29.817  0.00  0.00    +0.119 C 
BRANCH  19  20
ATOM     20  N   UNL     1     -14.727  32.554  29.727  0.00  0.00    -0.302 NA
ATOM     21  C   UNL     1     -14.707  33.568  28.580  0.00  0.00    +0.066 C 
ATOM     22  C   UNL     1     -16.058  34.348  28.486  0.00  0.00    -0.064 C 
ATOM     23  N   UNL     1     -16.336  35.045  29.820  0.00  0.00    +0.379 N 
ATOM     24  C   UNL     1     -17.576  35.826  29.717  0.00  0.00    -0.096 C 
ATOM     25  H   UNL     1     -15.500  35.758  30.008  0.00  0.00    -0.082 HD
ATOM     26  C   UNL     1     -16.355  34.044  30.967  0.00  0.00    -0.064 C 
ATOM     27  C   UNL     1     -15.018  33.253  31.032  0.00  0.00    +0.066 C 
ENDBRANCH  19  20
ENDBRANCH  18  19
ENDBRANCH  14  15
ENDBRANCH  12  13
TORSDOF 6
ENDMDL
MODEL 2
REMARK VINA RESULT:      -8.7      2.828     13.522
REMARK  Name = C:\Users\Docking\Desktop\test protocol\1iep_ligandH.pdb
REMARK  8 active torsions:
REMARK  status: ('A' for Active; 'I' for Inactive)
REMARK    1  A    between atoms: _5  and  _11
REMARK    2  A    between atoms: _19  and  _21
REMARK    3  A    between atoms: _22  and  _66
REMARK    4  A    between atoms: _27  and  _30
REMARK    5  A    between atoms: _32  and  _33
REMARK    6  A    between atoms: _38  and  _43
REMARK    7  A    between atoms: _43  and  _46
REMARK    8  A    between atoms: _53  and  _55
REMARK                            x       y       z     vdW  Elec       q    Type
REMARK                         _______ _______ _______ _____ _____    ______ ____
ROOT
ATOM     10  C   UNL     1     -10.894  24.453  25.187  0.00  0.00    +0.038 A 
ATOM     11  C   UNL     1     -10.543  23.308  25.946  0.00  0.00    +0.047 A 
ATOM     12  C   UNL     1     -10.266  22.034  25.301  0.00  0.00    +0.035 A 
ATOM     32  C   UNL     1     -10.352  21.963  23.879  0.00  0.00    +0.024 A 
ATOM     33  C   UNL     1     -10.708  23.118  23.093  0.00  0.00    +0.007 A 
ATOM     34  C   UNL     1     -10.985  24.376  23.724  0.00  0.00    -0.029 A 
ATOM     35  C   UNL     1     -11.369  25.579  22.831  0.00  0.00    +0.045 C 
ENDROOT
BRANCH  10   9
ATOM      4  C   UNL     1     -13.889  27.804  26.873  0.00  0.00    +0.077 A 
ATOM      5  C   UNL     1     -15.039  27.124  26.349  0.00  0.00    +0.048 A 
ATOM      6  C   UNL     1     -14.815  25.919  25.646  0.00  0.00    +0.116 A 
ATOM      7  N   UNL     1     -13.534  25.439  25.485  0.00  0.00    -0.223 NA
ATOM      8  C   UNL     1     -12.447  26.120  26.001  0.00  0.00    +0.220 A 
ATOM      9  N   UNL     1     -11.150  25.651  25.858  0.00  0.00    -0.283 N 
ATOM     36  H   UNL     1     -10.375  26.187  26.247  0.00  0.00    +0.155 HD
ATOM     37  N   UNL     1     -12.633  27.273  26.675  0.00  0.00    -0.214 NA
BRANCH   4   3
ATOM      1  C   UNL     1     -12.923  31.154  28.646  0.00  0.00    +0.020 A 
ATOM      2  C   UNL     1     -12.797  29.924  27.898  0.00  0.00    +0.013 A 
ATOM      3  C   UNL     1     -13.962  29.086  27.642  0.00  0.00    +0.019 A 
ATOM     38  C   UNL     1     -15.249  29.525  28.159  0.00  0.00    +0.120 A 
ATOM     39  N   UNL     1     -15.339  30.714  28.877  0.00  0.00    -0.263 NA
ATOM     40  C   UNL     1     -14.225  31.527  29.132  0.00  0.00    +0.111 A 
ENDBRANCH   4   3
ENDBRANCH  10   9
BRANCH  12  13
ATOM     13  N   UNL     1      -9.913  20.835  26.020  0.00  0.00    -0.281 N 
ATOM     14  C   UNL     1      -8.691  20.181  26.038  0.00  0.00    +0.248 C 
ATOM     30  O   UNL     1      -7.772  20.412  25.266  0.00  0.00    -0.270 OA
ATOM     31  H   UNL     1     -10.653  20.417  26.583  0.00  0.00    +0.155 HD
BRANCH  14  15
ATOM     15  C   UNL     1      -8.463  19.107  27.052  0.00  0.00    +0.037 A 
ATOM     16  C   UNL     1      -9.572  18.542  27.824  0.00  0.00    +0.013 A 
ATOM     17  C   UNL     1      -9.322  17.519  28.808  0.00  0.00    +0.005 A 
ATOM     18  C   UNL     1      -7.954  17.053  29.024  0.00  0.00    -0.033 A 
ATOM     28  C   UNL     1      -6.873  17.628  28.241  0.00  0.00    +0.005 A 
ATOM     29  C   UNL     1      -7.114  18.631  27.277  0.00  0.00    +0.013 A 
BRANCH  18  19
ATOM     19  C   UNL     1      -7.591  15.980  30.068  0.00  0.00    +0.119 C 
BRANCH  19  20
ATOM     20  N   UNL     1      -6.199  15.442  30.039  0.00  0.00    -0.302 NA
ATOM     21  C   UNL     1      -6.130  14.061  29.380  0.00  0.00    +0.066 C 
ATOM     22  C   UNL     1      -4.663  13.523  29.338  0.00  0.00    -0.064 C 
ATOM     23  N   UNL     1      -4.100  13.472  30.760  0.00  0.00    +0.379 N 
ATOM     24  C   UNL     1      -2.742  12.912  30.730  0.00  0.00    -0.096 C 
ATOM     25  H   UNL     1      -4.740  12.777  31.352  0.00  0.00    -0.082 HD
ATOM     26  C   UNL     1      -4.167  14.840  31.424  0.00  0.00    -0.064 C 
ATOM     27  C   UNL     1      -5.625  15.379  31.434  0.00  0.00    +0.066 C 
ENDBRANCH  19  20
ENDBRANCH  18  19
ENDBRANCH  14  15
ENDBRANCH  12  13
TORSDOF 6
ENDMDL
MODEL 3
REMARK VINA RESULT:      -8.7      7.656     12.434
REMARK  Name = C:\Users\Docking\Desktop\test protocol\1iep_ligandH.pdb
REMARK  8 active torsions:
REMARK  status: ('A' for Active; 'I' for Inactive)
REMARK    1  A    between atoms: _5  and  _11
REMARK    2  A    between atoms: _19  and  _21
REMARK    3  A    between atoms: _22  and  _66
REMARK    4  A    between atoms: _27  and  _30
REMARK    5  A    between atoms: _32  and  _33
REMARK    6  A    between atoms: _38  and  _43
REMARK    7  A    between atoms: _43  and  _46
REMARK    8  A    between atoms: _53  and  _55
REMARK                            x       y       z     vdW  Elec       q    Type
REMARK                         _______ _______ _______ _____ _____    ______ ____
ROOT
ATOM     10  C   UNL     1     -13.790  30.621  27.995  0.00  0.00    +0.038 A 
ATOM     11  C   UNL     1     -14.484  31.351  26.996  0.00  0.00    +0.047 A 
ATOM     12  C   UNL     1     -15.287  30.673  25.990  0.00  0.00    +0.035 A 
ATOM     32  C   UNL     1     -15.363  29.251  26.033  0.00  0.00    +0.024 A 
ATOM     33  C   UNL     1     -14.664  28.493  27.040  0.00  0.00    +0.007 A 
ATOM     34  C   UNL     1     -13.869  29.155  28.034  0.00  0.00    -0.029 A 
ATOM     35  C   UNL     1     -13.136  28.292  29.087  0.00  0.00    +0.045 C 
ENDROOT
BRANCH  10   9
ATOM      4  C   UNL     1     -13.395  33.631  31.713  0.00  0.00    +0.077 A 
ATOM      5  C   UNL     1     -14.812  33.844  31.767  0.00  0.00    +0.048 A 
ATOM      6  C   UNL     1     -15.607  33.167  30.815  0.00  0.00    +0.116 A 
ATOM      7  N   UNL     1     -15.018  32.339  29.884  0.00  0.00    -0.223 NA
ATOM      8  C   UNL     1     -13.648  32.156  29.859  0.00  0.00    +0.220 A 
ATOM      9  N   UNL     1     -13.034  31.322  28.937  0.00  0.00    -0.283 N 
ATOM     36  H   UNL     1     -12.020  31.220  28.946  0.00  0.00    +0.155 HD
ATOM     37  N   UNL     1     -12.866  32.793  30.756  0.00  0.00    -0.214 NA
BRANCH   4   3
ATOM      1  C   UNL     1     -10.136  34.500  33.695  0.00  0.00    +0.020 A 
ATOM      2  C   UNL     1     -11.035  33.845  32.772  0.00  0.00    +0.013 A 
ATOM      3  C   UNL     1     -12.422  34.274  32.652  0.00  0.00    +0.019 A 
ATOM     38  C   UNL     1     -12.873  35.377  33.487  0.00  0.00    +0.120 A 
ATOM     39  N   UNL     1     -11.986  35.988  34.368  0.00  0.00    -0.263 NA
ATOM     40  C   UNL     1     -10.648  35.583  34.492  0.00  0.00    +0.111 A 
ENDBRANCH   4   3
ENDBRANCH  10   9
BRANCH  12  13
ATOM     13  N   UNL     1     -16.006  31.361  24.947  0.00  0.00    -0.281 N 
ATOM     14  C   UNL     1     -17.207  32.044  25.048  0.00  0.00    +0.248 C 
ATOM     30  O   UNL     1     -17.956  31.986  26.012  0.00  0.00    -0.270 OA
ATOM     31  H   UNL     1     -15.578  31.342  24.021  0.00  0.00    +0.155 HD
BRANCH  14  15
ATOM     15  C   UNL     1     -17.646  32.905  23.908  0.00  0.00    +0.037 A 
ATOM     16  C   UNL     1     -18.039  34.301  24.118  0.00  0.00    +0.013 A 
ATOM     17  C   UNL     1     -18.475  35.105  23.004  0.00  0.00    +0.005 A 
ATOM     18  C   UNL     1     -18.519  34.514  21.668  0.00  0.00    -0.033 A 
ATOM     28  C   UNL     1     -18.118  33.129  21.488  0.00  0.00    +0.005 A 
ATOM     29  C   UNL     1     -17.691  32.337  22.578  0.00  0.00    +0.013 A 
BRANCH  18  19
ATOM     19  C   UNL     1     -18.991  35.291  20.425  0.00  0.00    +0.119 C 
BRANCH  19  20
ATOM     20  N   UNL     1     -17.962  35.625  19.396  0.00  0.00    -0.302 NA
ATOM     21  C   UNL     1     -18.018  37.098  18.983  0.00  0.00    +0.066 C 
ATOM     22  C   UNL     1     -16.920  37.435  17.922  0.00  0.00    -0.064 C 
ATOM     23  N   UNL     1     -17.095  36.525  16.705  0.00  0.00    +0.379 N 
ATOM     24  C   UNL     1     -16.100  36.878  15.682  0.00  0.00    -0.096 C 
ATOM     25  H   UNL     1     -18.105  36.722  16.278  0.00  0.00    -0.082 HD
ATOM     26  C   UNL     1     -17.042  35.058  17.107  0.00  0.00    -0.064 C 
ATOM     27  C   UNL     1     -18.118  34.741  18.183  0.00  0.00    +0.066 C 
ENDBRANCH  19  20
ENDBRANCH  18  19
ENDBRANCH  14  15
ENDBRANCH  12  13
TORSDOF 6
ENDMDL
MODEL 4
REMARK VINA RESULT:      -8.5      7.664     12.301
REMARK  Name = C:\Users\Docking\Desktop\test protocol\1iep_ligandH.pdb
REMARK  8 active torsions:
REMARK  status: ('A' for Active; 'I' for Inactive)
REMARK    1  A    between atoms: _5  and  _11
REMARK    2  A    between atoms: _19  and  _21
REMARK    3  A    between atoms: _22  and  _66
REMARK    4  A    between atoms: _27  and  _30
REMARK    5  A    between atoms: _32  and  _33
REMARK    6  A    between atoms: _38  and  _43
REMARK    7  A    between atoms: _43  and  _46
REMARK    8  A    between atoms: _53  and  _55
REMARK                            x       y       z     vdW  Elec       q    Type
REMARK                         _______ _______ _______ _____ _____    ______ ____
ROOT
ATOM     10  C   UNL     1     -13.780  30.626  28.021  0.00  0.00    +0.038 A 
ATOM     11  C   UNL     1     -14.462  31.357  27.015  0.00  0.00    +0.047 A 
ATOM     12  C   UNL     1     -15.263  30.682  26.006  0.00  0.00    +0.035 A 
ATOM     32  C   UNL     1     -15.349  29.260  26.052  0.00  0.00    +0.024 A 
ATOM     33  C   UNL     1     -14.661  28.501  27.066  0.00  0.00    +0.007 A 
ATOM     34  C   UNL     1     -13.868  29.161  28.063  0.00  0.00    -0.029 A 
ATOM     35  C   UNL     1     -13.147  28.296  29.123  0.00  0.00    +0.045 C 
ENDROOT
BRANCH  10   9
ATOM      4  C   UNL     1     -13.387  33.645  31.731  0.00  0.00    +0.077 A 
ATOM      5  C   UNL     1     -14.804  33.869  31.775  0.00  0.00    +0.048 A 
ATOM      6  C   UNL     1     -15.597  33.194  30.821  0.00  0.00    +0.116 A 
ATOM      7  N   UNL     1     -15.007  32.359  29.896  0.00  0.00    -0.223 NA
ATOM      8  C   UNL     1     -13.638  32.166  29.881  0.00  0.00    +0.220 A 
ATOM      9  N   UNL     1     -13.025  31.325  28.965  0.00  0.00    -0.283 N 
ATOM     36  H   UNL     1     -12.011  31.216  28.981  0.00  0.00    +0.155 HD
ATOM     37  N   UNL     1     -12.858  32.801  30.780  0.00  0.00    -0.214 NA
BRANCH   4   3
ATOM      1  C   UNL     1     -10.133  34.505  33.724  0.00  0.00    +0.020 A 
ATOM      2  C   UNL     1     -11.030  33.854  32.797  0.00  0.00    +0.013 A 
ATOM      3  C   UNL     1     -12.417  34.284  32.675  0.00  0.00    +0.019 A 
ATOM     38  C   UNL     1     -12.868  35.386  33.512  0.00  0.00    +0.120 A 
ATOM     39  N   UNL     1     -11.983  35.993  34.397  0.00  0.00    -0.263 NA
ATOM     40  C   UNL     1     -10.646  35.586  34.524  0.00  0.00    +0.111 A 
ENDBRANCH   4   3
ENDBRANCH  10   9
BRANCH  12  13
ATOM     13  N   UNL     1     -15.971  31.372  24.956  0.00  0.00    -0.281 N 
ATOM     14  C   UNL     1     -17.198  32.010  25.034  0.00  0.00    +0.248 C 
ATOM     30  O   UNL     1     -17.976  31.900  25.970  0.00  0.00    -0.270 OA
ATOM     31  H   UNL     1     -15.512  31.392  24.046  0.00  0.00    +0.155 HD
BRANCH  14  15
ATOM     15  C   UNL     1     -17.630  32.885  23.901  0.00  0.00    +0.037 A 
ATOM     16  C   UNL     1     -17.688  32.377  22.528  0.00  0.00    +0.013 A 
ATOM     17  C   UNL     1     -18.092  33.247  21.452  0.00  0.00    +0.005 A 
ATOM     18  C   UNL     1     -18.441  34.635  21.746  0.00  0.00    -0.033 A 
ATOM     28  C   UNL     1     -18.379  35.111  23.118  0.00  0.00    +0.005 A 
ATOM     29  C   UNL     1     -17.983  34.262  24.175  0.00  0.00    +0.013 A 
BRANCH  18  19
ATOM     19  C   UNL     1     -18.862  35.640  20.657  0.00  0.00    +0.119 C 
BRANCH  19  20
ATOM     20  N   UNL     1     -20.278  36.114  20.675  0.00  0.00    -0.302 NA
ATOM     21  C   UNL     1     -21.270  34.956  20.814  0.00  0.00    +0.066 C 
ATOM     22  C   UNL     1     -22.745  35.472  20.853  0.00  0.00    -0.064 C 
ATOM     23  N   UNL     1     -23.033  36.283  19.588  0.00  0.00    +0.379 N 
ATOM     24  C   UNL     1     -24.437  36.720  19.595  0.00  0.00    -0.096 C 
ATOM     25  H   UNL     1     -22.894  35.606  18.714  0.00  0.00    -0.082 HD
ATOM     26  C   UNL     1     -22.050  37.435  19.441  0.00  0.00    -0.064 C 
ATOM     27  C   UNL     1     -20.585  36.914  19.433  0.00  0.00    +0.066 C 
ENDBRANCH  19  20
ENDBRANCH  18  19
ENDBRANCH  14  15
ENDBRANCH  12  13
TORSDOF 6
ENDMDL
MODEL 5
REMARK VINA RESULT:      -8.5      3.695     12.529
REMARK  Name = C:\Users\Docking\Desktop\test protocol\1iep_ligandH.pdb
REMARK  8 active torsions:
REMARK  status: ('A' for Active; 'I' for Inactive)
REMARK    1  A    between atoms: _5  and  _11
REMARK    2  A    between atoms: _19  and  _21
REMARK    3  A    between atoms: _22  and  _66
REMARK    4  A    between atoms: _27  and  _30
REMARK    5  A    between atoms: _32  and  _33
REMARK    6  A    between atoms: _38  and  _43
REMARK    7  A    between atoms: _43  and  _46
REMARK    8  A    between atoms: _53  and  _55
REMARK                            x       y       z     vdW  Elec       q    Type
REMARK                         _______ _______ _______ _____ _____    ______ ____
ROOT
ATOM     10  C   UNL     1     -10.697  24.260  25.071  0.00  0.00    +0.038 A 
ATOM     11  C   UNL     1     -10.412  23.127  25.874  0.00  0.00    +0.047 A 
ATOM     12  C   UNL     1     -10.041  21.854  25.275  0.00  0.00    +0.035 A 
ATOM     32  C   UNL     1      -9.968  21.772  23.854  0.00  0.00    +0.024 A 
ATOM     33  C   UNL     1     -10.256  22.914  23.022  0.00  0.00    +0.007 A 
ATOM     34  C   UNL     1     -10.624  24.171  23.607  0.00  0.00    -0.029 A 
ATOM     35  C   UNL     1     -10.928  25.361  22.667  0.00  0.00    +0.045 C 
ENDROOT
BRANCH  10   9
ATOM      4  C   UNL     1     -13.945  27.462  26.565  0.00  0.00    +0.077 A 
ATOM      5  C   UNL     1     -15.033  26.699  26.025  0.00  0.00    +0.048 A 
ATOM      6  C   UNL     1     -14.714  25.492  25.364  0.00  0.00    +0.116 A 
ATOM      7  N   UNL     1     -13.401  25.088  25.257  0.00  0.00    -0.223 NA
ATOM      8  C   UNL     1     -12.375  25.848  25.788  0.00  0.00    +0.220 A 
ATOM      9  N   UNL     1     -11.048  25.457  25.699  0.00  0.00    -0.283 N 
ATOM     36  H   UNL     1     -10.320  26.050  26.097  0.00  0.00    +0.155 HD
ATOM     37  N   UNL     1     -12.654  27.006  26.422  0.00  0.00    -0.214 NA
BRANCH   4   3
ATOM      1  C   UNL     1     -15.545  30.541  28.373  0.00  0.00    +0.020 A 
ATOM      2  C   UNL     1     -15.429  29.284  27.669  0.00  0.00    +0.013 A 
ATOM      3  C   UNL     1     -14.122  28.758  27.294  0.00  0.00    +0.019 A 
ATOM     38  C   UNL     1     -12.944  29.533  27.650  0.00  0.00    +0.120 A 
ATOM     39  N   UNL     1     -13.086  30.740  28.327  0.00  0.00    -0.263 NA
ATOM     40  C   UNL     1     -14.338  31.258  28.691  0.00  0.00    +0.111 A 
ENDBRANCH   4   3
ENDBRANCH  10   9
BRANCH  12  13
ATOM     13  N   UNL     1      -9.748  20.667  26.039  0.00  0.00    -0.281 N 
ATOM     14  C   UNL     1      -8.527  20.030  26.188  0.00  0.00    +0.248 C 
ATOM     30  O   UNL     1      -7.538  20.264  25.510  0.00  0.00    -0.270 OA
ATOM     31  H   UNL     1     -10.537  20.245  26.530  0.00  0.00    +0.155 HD
BRANCH  14  15
ATOM     15  C   UNL     1      -8.389  18.969  27.231  0.00  0.00    +0.037 A 
ATOM     16  C   UNL     1      -7.114  18.282  27.453  0.00  0.00    +0.013 A 
ATOM     17  C   UNL     1      -7.012  17.251  28.455  0.00  0.00    +0.005 A 
ATOM     18  C   UNL     1      -8.191  16.900  29.244  0.00  0.00    -0.033 A 
ATOM     28  C   UNL     1      -9.442  17.600  29.007  0.00  0.00    +0.005 A 
ATOM     29  C   UNL     1      -9.546  18.611  28.025  0.00  0.00    +0.013 A 
BRANCH  18  19
ATOM     19  C   UNL     1      -8.179  15.797  30.319  0.00  0.00    +0.119 C 
BRANCH  19  20
ATOM     20  N   UNL     1      -8.861  16.098  31.614  0.00  0.00    -0.302 NA
ATOM     21  C   UNL     1      -7.898  16.016  32.802  0.00  0.00    +0.066 C 
ATOM     22  C   UNL     1      -8.622  16.355  34.145  0.00  0.00    -0.064 C 
ATOM     23  N   UNL     1      -9.804  15.403  34.339  0.00  0.00    +0.379 N 
ATOM     24  C   UNL     1     -10.452  15.682  35.629  0.00  0.00    -0.096 C 
ATOM     25  H   UNL     1      -9.399  14.366  34.381  0.00  0.00    -0.082 HD
ATOM     26  C   UNL     1     -10.765  15.476  33.161  0.00  0.00    -0.064 C 
ATOM     27  C   UNL     1     -10.029  15.167  31.827  0.00  0.00    +0.066 C 
ENDBRANCH  19  20
ENDBRANCH  18  19
ENDBRANCH  14  15
ENDBRANCH  12  13
TORSDOF 6
ENDMDL
