MODEL 1
REMARK VINA RESULT:      -8.8      0.000      0.000
REMARK  Name = C:\Users\Docking\Desktop\test protocol\1iep_ligandH.pdb
REMARK  8 active torsions:
REMARK  status: ('A' for Active; 'I' for Inactive)
REMARK    1  A    between atoms: _5  and  _11
REMARK    2  A    between atoms: _19  and  _21
REMARK    3  A    between atoms: _22  and  _66
REMARK    4  A    between atoms: _27  and  _30
REMARK    5  A    between atoms: _32  and  _33
REMARK    6  A    between atoms: _38  and  _43
REMARK    7  A    between atoms: _43  and  _46
REMARK    8  A    between atoms: _53  and  _55
REMARK                            x       y       z     vdW  Elec       q    Type
REMARK                         _______ _______ _______ _____ _____    ______ ____
ROOT
ATOM     10  C   UNL     1     -12.740  23.719  26.053  0.00  0.00    +0.038 A 
ATOM     11  C   UNL     1     -12.570  24.907  26.809  0.00  0.00    +0.047 A 
ATOM     12  C   UNL     1     -13.324  26.112  26.498  0.00  0.00    +0.035 A 
ATOM     32  C   UNL     1     -14.245  26.070  25.410  0.00  0.00    +0.024 A 
ATOM     33  C   UNL     1     -14.429  24.871  24.631  0.00  0.00    +0.007 A 
ATOM     34  C   UNL     1     -13.687  23.681  24.932  0.00  0.00    -0.029 A 
ATOM     35  C   UNL     1     -13.920  22.426  24.058  0.00  0.00    +0.045 C 
ENDROOT
BRANCH  10   9
ATOM      4  C   UNL     1      -8.849  20.939  25.645  0.00  0.00    +0.077 A 
ATOM      5  C   UNL     1      -8.273  21.790  24.644  0.00  0.00    +0.048 A 
ATOM      6  C   UNL     1      -9.013  22.930  24.257  0.00  0.00    +0.116 A 
ATOM      7  N   UNL     1     -10.237  23.189  24.835  0.00  0.00    -0.223 NA
ATOM      8  C   UNL     1     -10.765  22.346  25.796  0.00  0.00    +0.220 A 
ATOM      9  N   UNL     1     -11.990  22.592  26.396  0.00  0.00    -0.283 N 
ATOM     36  H   UNL     1     -12.348  21.942  27.096  0.00  0.00    +0.155 HD
ATOM     37  N   UNL     1     -10.078  21.251  26.182  0.00  0.00    -0.214 NA
BRANCH   4   3
ATOM      1  C   UNL     1      -6.348  18.497  27.401  0.00  0.00    +0.020 A 
ATOM      2  C   UNL     1      -6.946  19.723  26.926  0.00  0.00    +0.013 A 
ATOM      3  C   UNL     1      -8.187  19.699  26.161  0.00  0.00    +0.019 A 
ATOM     38  C   UNL     1      -8.802  18.408  25.894  0.00  0.00    +0.120 A 
ATOM     39  N   UNL     1      -8.202  17.244  26.363  0.00  0.00    -0.263 NA
ATOM     40  C   UNL     1      -7.007  17.254  27.099  0.00  0.00    +0.111 A 
ENDBRANCH   4   3
ENDBRANCH  10   9
BRANCH  12  13
ATOM     13  N   UNL     1     -13.188  27.349  27.225  0.00  0.00    -0.281 N 
ATOM     14  C   UNL     1     -13.976  28.484  27.129  0.00  0.00    +0.248 C 
ATOM     30  O   UNL     1     -14.794  28.685  26.244  0.00  0.00    -0.270 OA
ATOM     31  H   UNL     1     -12.416  27.394  27.891  0.00  0.00    +0.155 HD
BRANCH  14  15
ATOM     15  C   UNL     1     -13.823  29.558  28.158  0.00  0.00    +0.037 A 
ATOM     16  C   UNL     1     -13.709  29.235  29.582  0.00  0.00    +0.013 A 
ATOM     17  C   UNL     1     -13.580  30.291  30.555  0.00  0.00    +0.005 A 
ATOM     18  C   UNL     1     -13.563  31.681  30.105  0.00  0.00    -0.033 A 
ATOM     28  C   UNL     1     -13.673  31.973  28.686  0.00  0.00    +0.005 A 
ATOM     29  C   UNL     1     -13.801  30.940  27.729  0.00  0.00    +0.013 A 
BRANCH  18  19
ATOM     19  C   UNL     1     -13.450  32.872  31.075  0.00  0.00    +0.119 C 
BRANCH  19  20
ATOM     20  N   UNL     1     -12.105  33.151  31.661  0.00  0.00    -0.302 NA
ATOM     21  C   UNL     1     -11.993  32.653  33.105  0.00  0.00    +0.066 C 
ATOM     22  C   UNL     1     -10.573  32.933  33.695  0.00  0.00    -0.064 C 
ATOM     23  N   UNL     1     -10.277  34.432  33.615  0.00  0.00    +0.379 N 
ATOM     24  C   UNL     1      -8.966  34.706  34.222  0.00  0.00    -0.096 C 
ATOM     25  H   UNL     1     -11.048  34.962  34.221  0.00  0.00    -0.082 HD
ATOM     26  C   UNL     1     -10.388  34.936  32.183  0.00  0.00    -0.064 C 
ATOM     27  C   UNL     1     -11.794  34.626  31.596  0.00  0.00    +0.066 C 
ENDBRANCH  19  20
ENDBRANCH  18  19
ENDBRANCH  14  15
ENDBRANCH  12  13
TORSDOF 6
ENDMDL
MODEL 2
REMARK VINA RESULT:      -8.7      2.671     12.927
REMARK  Name = C:\Users\Docking\Desktop\test protocol\1iep_ligandH.pdb
REMARK  8 active torsions:
REMARK  status: ('A' for Active; 'I' for Inactive)
REMARK    1  A    between atoms: _5  and  _11
REMARK    2  A    between atoms: _19  and  _21
REMARK    3  A    between atoms: _22  and  _66
REMARK    4  A    between atoms: _27  and  _30
REMARK    5  A    between atoms: _32  and  _33
REMARK    6  A    between atoms: _38  and  _43
REMARK    7  A    between atoms: _43  and  _46
REMARK    8  A    between atoms: _53  and  _55
REMARK                            x       y       z     vdW  Elec       q    Type
REMARK                         _______ _______ _______ _____ _____    ______ ____
ROOT
ATOM     10  C   UNL     1     -13.307  34.406  30.835  0.00  0.00    +0.038 A 
ATOM     11  C   UNL     1     -13.264  33.171  30.138  0.00  0.00    +0.047 A 
ATOM     12  C   UNL     1     -14.460  32.361  29.969  0.00  0.00    +0.035 A 
ATOM     32  C   UNL     1     -15.684  32.840  30.520  0.00  0.00    +0.024 A 
ATOM     33  C   UNL     1     -15.746  34.092  31.231  0.00  0.00    +0.007 A 
ATOM     34  C   UNL     1     -14.569  34.895  31.404  0.00  0.00    -0.029 A 
ATOM     35  C   UNL     1     -14.692  36.226  32.182  0.00  0.00    +0.045 C 
ENDROOT
BRANCH  10   9
ATOM      4  C   UNL     1      -9.178  35.422  33.061  0.00  0.00    +0.077 A 
ATOM      5  C   UNL     1      -9.400  34.415  34.059  0.00  0.00    +0.048 A 
ATOM      6  C   UNL     1     -10.592  33.663  33.968  0.00  0.00    +0.116 A 
ATOM      7  N   UNL     1     -11.489  33.907  32.950  0.00  0.00    -0.223 NA
ATOM      8  C   UNL     1     -11.245  34.887  32.004  0.00  0.00    +0.220 A 
ATOM      9  N   UNL     1     -12.129  35.144  30.968  0.00  0.00    -0.283 N 
ATOM     36  H   UNL     1     -11.916  35.880  30.295  0.00  0.00    +0.155 HD
ATOM     37  N   UNL     1     -10.114  35.620  32.070  0.00  0.00    -0.214 NA
BRANCH   4   3
ATOM      1  C   UNL     1      -6.318  37.783  31.818  0.00  0.00    +0.020 A 
ATOM      2  C   UNL     1      -7.497  36.948  31.803  0.00  0.00    +0.013 A 
ATOM      3  C   UNL     1      -7.963  36.296  33.020  0.00  0.00    +0.019 A 
ATOM     38  C   UNL     1      -7.209  36.513  34.246  0.00  0.00    +0.120 A 
ATOM     39  N   UNL     1      -6.077  37.321  34.229  0.00  0.00    -0.263 NA
ATOM     40  C   UNL     1      -5.617  37.952  33.064  0.00  0.00    +0.111 A 
ENDBRANCH   4   3
ENDBRANCH  10   9
BRANCH  12  13
ATOM     13  N   UNL     1     -14.475  31.095  29.278  0.00  0.00    -0.281 N 
ATOM     14  C   UNL     1     -14.342  30.865  27.919  0.00  0.00    +0.248 C 
ATOM     30  O   UNL     1     -14.403  31.734  27.062  0.00  0.00    -0.270 OA
ATOM     31  H   UNL     1     -14.600  30.268  29.863  0.00  0.00    +0.155 HD
BRANCH  14  15
ATOM     15  C   UNL     1     -14.124  29.465  27.441  0.00  0.00    +0.037 A 
ATOM     16  C   UNL     1     -15.048  28.831  26.498  0.00  0.00    +0.013 A 
ATOM     17  C   UNL     1     -14.824  27.474  26.067  0.00  0.00    +0.005 A 
ATOM     18  C   UNL     1     -13.667  26.742  26.578  0.00  0.00    -0.033 A 
ATOM     28  C   UNL     1     -12.763  27.398  27.509  0.00  0.00    +0.005 A 
ATOM     29  C   UNL     1     -12.981  28.727  27.935  0.00  0.00    +0.013 A 
BRANCH  18  19
ATOM     19  C   UNL     1     -13.362  25.284  26.189  0.00  0.00    +0.119 C 
BRANCH  19  20
ATOM     20  N   UNL     1     -11.943  24.945  25.866  0.00  0.00    -0.302 NA
ATOM     21  C   UNL     1     -11.685  24.932  24.357  0.00  0.00    +0.066 C 
ATOM     22  C   UNL     1     -10.192  24.598  24.038  0.00  0.00    -0.064 C 
ATOM     23  N   UNL     1      -9.829  23.249  24.661  0.00  0.00    +0.379 N 
ATOM     24  C   UNL     1      -8.442  22.905  24.314  0.00  0.00    -0.096 C 
ATOM     25  H   UNL     1     -10.493  22.478  24.207  0.00  0.00    -0.082 HD
ATOM     26  C   UNL     1     -10.085  23.253  26.162  0.00  0.00    -0.064 C 
ATOM     27  C   UNL     1     -11.565  23.615  26.469  0.00  0.00    +0.066 C 
ENDBRANCH  19  20
ENDBRANCH  18  19
ENDBRANCH  14  15
ENDBRANCH  12  13
TORSDOF 6
ENDMDL
MODEL 3
REMARK VINA RESULT:      -8.5      4.594     12.377
REMARK  Name = C:\Users\Docking\Desktop\test protocol\1iep_ligandH.pdb
REMARK  8 active torsions:
REMARK  status: ('A' for Active; 'I' for Inactive)
REMARK    1  A    between atoms: _5  and  _11
REMARK    2  A    between atoms: _19  and  _21
REMARK    3  A    between atoms: _22  and  _66
REMARK    4  A    between atoms: _27  and  _30
REMARK    5  A    between atoms: _32  and  _33
REMARK    6  A    between atoms: _38  and  _43
REMARK    7  A    between atoms: _43  and  _46
REMARK    8  A    between atoms: _53  and  _55
REMARK                            x       y       z     vdW  Elec       q    Type
REMARK                         _______ _______ _______ _____ _____    ______ ____
ROOT
ATOM     10  C   UNL     1     -11.081  24.152  25.415  0.00  0.00    +0.038 A 
ATOM     11  C   UNL     1     -11.096  22.990  26.227  0.00  0.00    +0.047 A 
ATOM     12  C   UNL     1     -10.862  21.671  25.659  0.00  0.00    +0.035 A 
ATOM     32  C   UNL     1     -10.614  21.574  24.259  0.00  0.00    +0.024 A 
ATOM     33  C   UNL     1     -10.596  22.745  23.418  0.00  0.00    +0.007 A 
ATOM     34  C   UNL     1     -10.829  24.048  23.973  0.00  0.00    -0.029 A 
ATOM     35  C   UNL     1     -10.805  25.268  23.022  0.00  0.00    +0.045 C 
ENDROOT
BRANCH  10   9
ATOM      4  C   UNL     1     -13.973  27.765  26.687  0.00  0.00    +0.077 A 
ATOM      5  C   UNL     1     -15.116  27.141  26.086  0.00  0.00    +0.048 A 
ATOM      6  C   UNL     1     -14.916  25.894  25.453  0.00  0.00    +0.116 A 
ATOM      7  N   UNL     1     -13.662  25.323  25.429  0.00  0.00    -0.223 NA
ATOM      8  C   UNL     1     -12.580  25.953  26.018  0.00  0.00    +0.220 A 
ATOM      9  N   UNL     1     -11.312  25.393  26.013  0.00  0.00    -0.283 N 
ATOM     36  H   UNL     1     -10.539  25.893  26.452  0.00  0.00    +0.155 HD
ATOM     37  N   UNL     1     -12.745  27.145  26.627  0.00  0.00    -0.214 NA
BRANCH   4   3
ATOM      1  C   UNL     1     -13.011  31.281  28.108  0.00  0.00    +0.020 A 
ATOM      2  C   UNL     1     -12.909  30.021  27.408  0.00  0.00    +0.013 A 
ATOM      3  C   UNL     1     -14.025  29.083  27.396  0.00  0.00    +0.019 A 
ATOM     38  C   UNL     1     -15.239  29.454  28.108  0.00  0.00    +0.120 A 
ATOM     39  N   UNL     1     -15.308  30.673  28.774  0.00  0.00    -0.263 NA
ATOM     40  C   UNL     1     -14.240  31.583  28.793  0.00  0.00    +0.111 A 
ENDBRANCH   4   3
ENDBRANCH  10   9
BRANCH  12  13
ATOM     13  N   UNL     1     -10.873  20.455  26.433  0.00  0.00    -0.281 N 
ATOM     14  C   UNL     1      -9.841  19.547  26.608  0.00  0.00    +0.248 C 
ATOM     30  O   UNL     1      -8.813  19.535  25.947  0.00  0.00    -0.270 OA
ATOM     31  H   UNL     1     -11.748  20.236  26.910  0.00  0.00    +0.155 HD
BRANCH  14  15
ATOM     15  C   UNL     1      -9.977  18.492  27.657  0.00  0.00    +0.037 A 
ATOM     16  C   UNL     1     -11.284  18.147  28.223  0.00  0.00    +0.013 A 
ATOM     17  C   UNL     1     -11.385  17.138  29.247  0.00  0.00    +0.005 A 
ATOM     18  C   UNL     1     -10.174  16.465  29.711  0.00  0.00    -0.033 A 
ATOM     28  C   UNL     1      -8.891  16.823  29.129  0.00  0.00    +0.005 A 
ATOM     29  C   UNL     1      -8.788  17.812  28.126  0.00  0.00    +0.013 A 
BRANCH  18  19
ATOM     19  C   UNL     1     -10.185  15.390  30.814  0.00  0.00    +0.119 C 
BRANCH  19  20
ATOM     20  N   UNL     1     -10.769  15.772  32.135  0.00  0.00    -0.302 NA
ATOM     21  C   UNL     1      -9.692  15.961  33.207  0.00  0.00    +0.066 C 
ATOM     22  C   UNL     1     -10.319  16.382  34.576  0.00  0.00    -0.064 C 
ATOM     23  N   UNL     1     -11.338  15.329  35.012  0.00  0.00    +0.379 N 
ATOM     24  C   UNL     1     -11.887  15.692  36.327  0.00  0.00    -0.096 C 
ATOM     25  H   UNL     1     -10.796  14.361  35.127  0.00  0.00    -0.082 HD
ATOM     26  C   UNL     1     -12.412  15.133  33.951  0.00  0.00    -0.064 C 
ATOM     27  C   UNL     1     -11.776  14.743  32.587  0.00  0.00    +0.066 C 
ENDBRANCH  19  20
ENDBRANCH  18  19
ENDBRANCH  14  15
ENDBRANCH  12  13
TORSDOF 6
ENDMDL
MODEL 4
REMARK VINA RESULT:      -8.5      2.617      3.610
REMARK  Name = C:\Users\Docking\Desktop\test protocol\1iep_ligandH.pdb
REMARK  8 active torsions:
REMARK  status: ('A' for Active; 'I' for Inactive)
REMARK    1  A    between atoms: _5  and  _11
REMARK    2  A    between atoms: _19  and  _21
REMARK    3  A    between atoms: _22  and  _66
REMARK    4  A    between atoms: _27  and  _30
REMARK    5  A    between atoms: _32  and  _33
REMARK    6  A    between atoms: _38  and  _43
REMARK    7  A    between atoms: _43  and  _46
REMARK    8  A    between atoms: _53  and  _55
REMARK                            x       y       z     vdW  Elec       q    Type
REMARK                         _______ _______ _______ _____ _____    ______ ____
ROOT
ATOM     10  C   UNL     1     -10.684  23.700  24.472  0.00  0.00    +0.038 A 
ATOM     11  C   UNL     1     -11.078  24.792  25.287  0.00  0.00    +0.047 A 
ATOM     12  C   UNL     1     -12.157  25.680  24.884  0.00  0.00    +0.035 A 
ATOM     32  C   UNL     1     -12.816  25.425  23.647  0.00  0.00    +0.024 A 
ATOM     33  C   UNL     1     -12.428  24.320  22.806  0.00  0.00    +0.007 A 
ATOM     34  C   UNL     1     -11.362  23.442  23.196  0.00  0.00    -0.029 A 
ATOM     35  C   UNL     1     -10.984  22.277  22.252  0.00  0.00    +0.045 C 
ENDROOT
BRANCH  10   9
ATOM      4  C   UNL     1      -9.025  19.653  26.448  0.00  0.00    +0.077 A 
ATOM      5  C   UNL     1     -10.349  19.142  26.656  0.00  0.00    +0.048 A 
ATOM      6  C   UNL     1     -11.430  19.954  26.247  0.00  0.00    +0.116 A 
ATOM      7  N   UNL     1     -11.192  21.185  25.673  0.00  0.00    -0.223 NA
ATOM      8  C   UNL     1      -9.903  21.649  25.489  0.00  0.00    +0.220 A 
ATOM      9  N   UNL     1      -9.641  22.880  24.907  0.00  0.00    -0.283 N 
ATOM     36  H   UNL     1      -8.675  23.189  24.796  0.00  0.00    +0.155 HD
ATOM     37  N   UNL     1      -8.854  20.892  25.873  0.00  0.00    -0.214 NA
BRANCH   4   3
ATOM      1  C   UNL     1      -5.349  18.316  26.508  0.00  0.00    +0.020 A 
ATOM      2  C   UNL     1      -6.522  19.056  26.103  0.00  0.00    +0.013 A 
ATOM      3  C   UNL     1      -7.780  18.911  26.825  0.00  0.00    +0.019 A 
ATOM     38  C   UNL     1      -7.818  18.003  27.961  0.00  0.00    +0.120 A 
ATOM     39  N   UNL     1      -6.672  17.302  28.327  0.00  0.00    -0.263 NA
ATOM     40  C   UNL     1      -5.457  17.433  27.639  0.00  0.00    +0.111 A 
ENDBRANCH   4   3
ENDBRANCH  10   9
BRANCH  12  13
ATOM     13  N   UNL     1     -12.596  26.810  25.666  0.00  0.00    -0.281 N 
ATOM     14  C   UNL     1     -13.144  26.803  26.939  0.00  0.00    +0.248 C 
ATOM     30  O   UNL     1     -13.540  25.801  27.516  0.00  0.00    -0.270 OA
ATOM     31  H   UNL     1     -12.489  27.725  25.229  0.00  0.00    +0.155 HD
BRANCH  14  15
ATOM     15  C   UNL     1     -13.286  28.099  27.670  0.00  0.00    +0.037 A 
ATOM     16  C   UNL     1     -13.169  29.382  26.973  0.00  0.00    +0.013 A 
ATOM     17  C   UNL     1     -13.293  30.617  27.705  0.00  0.00    +0.005 A 
ATOM     18  C   UNL     1     -13.538  30.575  29.145  0.00  0.00    -0.033 A 
ATOM     28  C   UNL     1     -13.656  29.288  29.810  0.00  0.00    +0.005 A 
ATOM     29  C   UNL     1     -13.533  28.075  29.096  0.00  0.00    +0.013 A 
BRANCH  18  19
ATOM     19  C   UNL     1     -13.664  31.843  30.009  0.00  0.00    +0.119 C 
BRANCH  19  20
ATOM     20  N   UNL     1     -14.830  32.738  29.746  0.00  0.00    -0.302 NA
ATOM     21  C   UNL     1     -14.695  33.480  28.413  0.00  0.00    +0.066 C 
ATOM     22  C   UNL     1     -15.934  34.394  28.143  0.00  0.00    -0.064 C 
ATOM     23  N   UNL     1     -16.097  35.382  29.299  0.00  0.00    +0.379 N 
ATOM     24  C   UNL     1     -17.226  36.282  29.020  0.00  0.00    -0.096 C 
ATOM     25  H   UNL     1     -15.173  36.004  29.344  0.00  0.00    -0.082 HD
ATOM     26  C   UNL     1     -16.229  34.653  30.628  0.00  0.00    -0.064 C 
ATOM     27  C   UNL     1     -15.007  33.725  30.873  0.00  0.00    +0.066 C 
ENDBRANCH  19  20
ENDBRANCH  18  19
ENDBRANCH  14  15
ENDBRANCH  12  13
TORSDOF 6
ENDMDL
MODEL 5
REMARK VINA RESULT:      -8.4      3.758     13.136
REMARK  Name = C:\Users\Docking\Desktop\test protocol\1iep_ligandH.pdb
REMARK  8 active torsions:
REMARK  status: ('A' for Active; 'I' for Inactive)
REMARK    1  A    between atoms: _5  and  _11
REMARK    2  A    between atoms: _19  and  _21
REMARK    3  A    between atoms: _22  and  _66
REMARK    4  A    between atoms: _27  and  _30
REMARK    5  A    between atoms: _32  and  _33
REMARK    6  A    between atoms: _38  and  _43
REMARK    7  A    between atoms: _43  and  _46
REMARK    8  A    between atoms: _53  and  _55
REMARK                            x       y       z     vdW  Elec       q    Type
REMARK                         _______ _______ _______ _____ _____    ______ ____
ROOT
ATOM     10  C   UNL     1     -10.505  24.054  25.349  0.00  0.00    +0.038 A 
ATOM     11  C   UNL     1     -10.389  22.935  26.213  0.00  0.00    +0.047 A 
ATOM     12  C   UNL     1      -9.955  21.640  25.713  0.00  0.00    +0.035 A 
ATOM     32  C   UNL     1      -9.645  21.520  24.327  0.00  0.00    +0.024 A 
ATOM     33  C   UNL     1      -9.759  22.647  23.434  0.00  0.00    +0.007 A 
ATOM     34  C   UNL     1     -10.188  23.927  23.922  0.00  0.00    -0.029 A 
ATOM     35  C   UNL     1     -10.298  25.098  22.918  0.00  0.00    +0.045 C 
ENDROOT
BRANCH  10   9
ATOM      4  C   UNL     1     -13.918  27.259  26.408  0.00  0.00    +0.077 A 
ATOM      5  C   UNL     1     -14.945  26.446  25.823  0.00  0.00    +0.048 A 
ATOM      6  C   UNL     1     -14.553  25.214  25.254  0.00  0.00    +0.116 A 
ATOM      7  N   UNL     1     -13.229  24.832  25.275  0.00  0.00    -0.223 NA
ATOM      8  C   UNL     1     -12.262  25.641  25.845  0.00  0.00    +0.220 A 
ATOM      9  N   UNL     1     -10.926  25.274  25.883  0.00  0.00    -0.283 N 
ATOM     36  H   UNL     1     -10.243  25.902  26.306  0.00  0.00    +0.155 HD
ATOM     37  N   UNL     1     -12.611  26.823  26.393  0.00  0.00    -0.214 NA
BRANCH   4   3
ATOM      1  C   UNL     1     -15.093  30.936  27.039  0.00  0.00    +0.020 A 
ATOM      2  C   UNL     1     -14.869  29.674  26.373  0.00  0.00    +0.013 A 
ATOM      3  C   UNL     1     -14.175  28.586  27.051  0.00  0.00    +0.019 A 
ATOM     38  C   UNL     1     -13.717  28.810  28.414  0.00  0.00    +0.120 A 
ATOM     39  N   UNL     1     -13.945  30.036  29.029  0.00  0.00    -0.263 NA
ATOM     40  C   UNL     1     -14.610  31.091  28.386  0.00  0.00    +0.111 A 
ENDBRANCH   4   3
ENDBRANCH  10   9
BRANCH  12  13
ATOM     13  N   UNL     1      -9.826  20.466  26.541  0.00  0.00    -0.281 N 
ATOM     14  C   UNL     1     -10.558  19.292  26.473  0.00  0.00    +0.248 C 
ATOM     30  O   UNL     1     -11.585  19.154  25.825  0.00  0.00    -0.270 OA
ATOM     31  H   UNL     1      -9.109  20.506  27.264  0.00  0.00    +0.155 HD
BRANCH  14  15
ATOM     15  C   UNL     1     -10.090  18.104  27.250  0.00  0.00    +0.037 A 
ATOM     16  C   UNL     1     -10.879  16.870  27.301  0.00  0.00    +0.013 A 
ATOM     17  C   UNL     1     -10.413  15.745  28.072  0.00  0.00    +0.005 A 
ATOM     18  C   UNL     1      -9.149  15.848  28.797  0.00  0.00    -0.033 A 
ATOM     28  C   UNL     1      -8.384  17.082  28.724  0.00  0.00    +0.005 A 
ATOM     29  C   UNL     1      -8.838  18.187  27.971  0.00  0.00    +0.013 A 
BRANCH  18  19
ATOM     19  C   UNL     1      -8.585  14.705  29.661  0.00  0.00    +0.119 C 
BRANCH  19  20
ATOM     20  N   UNL     1      -7.121  14.728  29.955  0.00  0.00    -0.302 NA
ATOM     21  C   UNL     1      -6.363  13.643  29.186  0.00  0.00    +0.066 C 
ATOM     22  C   UNL     1      -4.830  13.696  29.488  0.00  0.00    -0.064 C 
ATOM     23  N   UNL     1      -4.604  13.550  30.994  0.00  0.00    +0.379 N 
ATOM     24  C   UNL     1      -3.161  13.541  31.275  0.00  0.00    -0.096 C 
ATOM     25  H   UNL     1      -5.015  12.561  31.302  0.00  0.00    -0.082 HD
ATOM     26  C   UNL     1      -5.357  14.624  31.767  0.00  0.00    -0.064 C 
ATOM     27  C   UNL     1      -6.875  14.581  31.437  0.00  0.00    +0.066 C 
ENDBRANCH  19  20
ENDBRANCH  18  19
ENDBRANCH  14  15
ENDBRANCH  12  13
TORSDOF 6
ENDMDL
