MODEL 1
REMARK VINA RESULT:      -8.8      0.000      0.000
REMARK  Name = C:\Users\Docking\Desktop\test protocol\1iep_ligandH.pdb
REMARK  8 active torsions:
REMARK  status: ('A' for Active; 'I' for Inactive)
REMARK    1  A    between atoms: _5  and  _11
REMARK    2  A    between atoms: _19  and  _21
REMARK    3  A    between atoms: _22  and  _66
REMARK    4  A    between atoms: _27  and  _30
REMARK    5  A    between atoms: _32  and  _33
REMARK    6  A    between atoms: _38  and  _43
REMARK    7  A    between atoms: _43  and  _46
REMARK    8  A    between atoms: _53  and  _55
REMARK                            x       y       z     vdW  Elec       q    Type
REMARK                         _______ _______ _______ _____ _____    ______ ____
ROOT
ATOM     10  C   UNL     1       3.533 -21.723  14.045  0.00  0.00    +0.038 A 
ATOM     11  C   UNL     1       2.380 -22.405  13.579  0.00  0.00    +0.047 A 
ATOM     12  C   UNL     1       1.684 -23.368  14.419  0.00  0.00    +0.035 A 
ATOM     32  C   UNL     1       2.189 -23.609  15.730  0.00  0.00    +0.024 A 
ATOM     33  C   UNL     1       3.361 -22.926  16.219  0.00  0.00    +0.007 A 
ATOM     34  C   UNL     1       4.052 -21.977  15.394  0.00  0.00    -0.029 A 
ATOM     35  C   UNL     1       5.307 -21.278  15.968  0.00  0.00    +0.045 C 
ENDROOT
BRANCH  10   9
ATOM      4  C   UNL     1       4.268 -17.265  12.424  0.00  0.00    +0.077 A 
ATOM      5  C   UNL     1       3.298 -16.714  13.326  0.00  0.00    +0.048 A 
ATOM      6  C   UNL     1       2.627 -17.612  14.186  0.00  0.00    +0.116 A 
ATOM      7  N   UNL     1       2.913 -18.960  14.138  0.00  0.00    -0.223 NA
ATOM      8  C   UNL     1       3.852 -19.459  13.255  0.00  0.00    +0.220 A 
ATOM      9  N   UNL     1       4.161 -20.809  13.196  0.00  0.00    -0.283 N 
ATOM     36  H   UNL     1       4.855 -21.139  12.525  0.00  0.00    +0.155 HD
ATOM     37  N   UNL     1       4.506 -18.622  12.423  0.00  0.00    -0.214 NA
BRANCH   4   3
ATOM      1  C   UNL     1       5.625 -14.273  10.301  0.00  0.00    +0.020 A 
ATOM      2  C   UNL     1       4.830 -15.020  11.248  0.00  0.00    +0.013 A 
ATOM      3  C   UNL     1       5.061 -16.444  11.456  0.00  0.00    +0.019 A 
ATOM     38  C   UNL     1       6.115 -17.087  10.684  0.00  0.00    +0.120 A 
ATOM     39  N   UNL     1       6.863 -16.342   9.778  0.00  0.00    -0.263 NA
ATOM     40  C   UNL     1       6.648 -14.971   9.569  0.00  0.00    +0.111 A 
ENDBRANCH   4   3
ENDBRANCH  10   9
BRANCH  12  13
ATOM     13  N   UNL     1       0.514 -24.096  13.998  0.00  0.00    -0.281 N 
ATOM     14  C   UNL     1      -0.814 -23.726  14.133  0.00  0.00    +0.248 C 
ATOM     30  O   UNL     1      -1.207 -22.805  14.832  0.00  0.00    -0.270 OA
ATOM     31  H   UNL     1       0.685 -24.994  13.545  0.00  0.00    +0.155 HD
BRANCH  14  15
ATOM     15  C   UNL     1      -1.858 -24.501  13.395  0.00  0.00    +0.037 A 
ATOM     16  C   UNL     1      -2.223 -24.164  12.017  0.00  0.00    +0.013 A 
ATOM     17  C   UNL     1      -3.245 -24.917  11.334  0.00  0.00    +0.005 A 
ATOM     18  C   UNL     1      -3.910 -26.016  12.030  0.00  0.00    -0.033 A 
ATOM     28  C   UNL     1      -3.526 -26.332  13.396  0.00  0.00    +0.005 A 
ATOM     29  C   UNL     1      -2.525 -25.596  14.068  0.00  0.00    +0.013 A 
BRANCH  18  19
ATOM     19  C   UNL     1      -5.027 -26.859  11.387  0.00  0.00    +0.119 C 
BRANCH  19  20
ATOM     20  N   UNL     1      -4.634 -28.165  10.779  0.00  0.00    -0.302 NA
ATOM     21  C   UNL     1      -4.801 -28.164   9.257  0.00  0.00    +0.066 C 
ATOM     22  C   UNL     1      -4.363 -29.531   8.636  0.00  0.00    -0.064 C 
ATOM     23  N   UNL     1      -5.178 -30.660   9.269  0.00  0.00    +0.379 N 
ATOM     24  C   UNL     1      -4.811 -31.939   8.645  0.00  0.00    -0.096 C 
ATOM     25  H   UNL     1      -6.253 -30.469   9.042  0.00  0.00    -0.082 HD
ATOM     26  C   UNL     1      -5.020 -30.666  10.783  0.00  0.00    -0.064 C 
ATOM     27  C   UNL     1      -5.430 -29.294  11.387  0.00  0.00    +0.066 C 
ENDBRANCH  19  20
ENDBRANCH  18  19
ENDBRANCH  14  15
ENDBRANCH  12  13
TORSDOF 6
ENDMDL
MODEL 2
REMARK VINA RESULT:      -8.5      3.358     11.697
REMARK  Name = C:\Users\Docking\Desktop\test protocol\1iep_ligandH.pdb
REMARK  8 active torsions:
REMARK  status: ('A' for Active; 'I' for Inactive)
REMARK    1  A    between atoms: _5  and  _11
REMARK    2  A    between atoms: _19  and  _21
REMARK    3  A    between atoms: _22  and  _66
REMARK    4  A    between atoms: _27  and  _30
REMARK    5  A    between atoms: _32  and  _33
REMARK    6  A    between atoms: _38  and  _43
REMARK    7  A    between atoms: _43  and  _46
REMARK    8  A    between atoms: _53  and  _55
REMARK                            x       y       z     vdW  Elec       q    Type
REMARK                         _______ _______ _______ _____ _____    ______ ____
ROOT
ATOM     10  C   UNL     1      -1.058 -23.672  15.038  0.00  0.00    +0.038 A 
ATOM     11  C   UNL     1      -0.061 -22.668  15.127  0.00  0.00    +0.047 A 
ATOM     12  C   UNL     1       0.494 -22.269  16.411  0.00  0.00    +0.035 A 
ATOM     32  C   UNL     1       0.013 -22.918  17.585  0.00  0.00    +0.024 A 
ATOM     33  C   UNL     1      -1.001 -23.940  17.514  0.00  0.00    +0.007 A 
ATOM     34  C   UNL     1      -1.554 -24.336  16.250  0.00  0.00    -0.029 A 
ATOM     35  C   UNL     1      -2.643 -25.433  16.234  0.00  0.00    +0.045 C 
ENDROOT
BRANCH  10   9
ATOM      4  C   UNL     1      -3.598 -22.703  11.083  0.00  0.00    +0.077 A 
ATOM      5  C   UNL     1      -3.988 -21.415  11.578  0.00  0.00    +0.048 A 
ATOM      6  C   UNL     1      -3.520 -21.042  12.858  0.00  0.00    +0.116 A 
ATOM      7  N   UNL     1      -2.721 -21.902  13.580  0.00  0.00    -0.223 NA
ATOM      8  C   UNL     1      -2.365 -23.138  13.074  0.00  0.00    +0.220 A 
ATOM      9  N   UNL     1      -1.556 -24.016  13.779  0.00  0.00    -0.283 N 
ATOM     36  H   UNL     1      -1.321 -24.922  13.374  0.00  0.00    +0.155 HD
ATOM     37  N   UNL     1      -2.800 -23.518  11.855  0.00  0.00    -0.214 NA
BRANCH   4   3
ATOM      1  C   UNL     1      -4.886 -25.065   8.243  0.00  0.00    +0.020 A 
ATOM      2  C   UNL     1      -4.500 -24.597   9.554  0.00  0.00    +0.013 A 
ATOM      3  C   UNL     1      -4.010 -23.238   9.747  0.00  0.00    +0.019 A 
ATOM     38  C   UNL     1      -3.921 -22.371   8.582  0.00  0.00    +0.120 A 
ATOM     39  N   UNL     1      -4.298 -22.849   7.331  0.00  0.00    -0.263 NA
ATOM     40  C   UNL     1      -4.770 -24.155   7.133  0.00  0.00    +0.111 A 
ENDBRANCH   4   3
ENDBRANCH  10   9
BRANCH  12  13
ATOM     13  N   UNL     1       1.502 -21.250  16.563  0.00  0.00    -0.281 N 
ATOM     14  C   UNL     1       2.859 -21.347  16.300  0.00  0.00    +0.248 C 
ATOM     30  O   UNL     1       3.449 -22.397  16.095  0.00  0.00    -0.270 OA
ATOM     31  H   UNL     1       1.176 -20.346  16.907  0.00  0.00    +0.155 HD
BRANCH  14  15
ATOM     15  C   UNL     1       3.681 -20.099  16.276  0.00  0.00    +0.037 A 
ATOM     16  C   UNL     1       3.056 -18.776  16.337  0.00  0.00    +0.013 A 
ATOM     17  C   UNL     1       3.871 -17.588  16.295  0.00  0.00    +0.005 A 
ATOM     18  C   UNL     1       5.323 -17.719  16.191  0.00  0.00    -0.033 A 
ATOM     28  C   UNL     1       5.917 -19.044  16.137  0.00  0.00    +0.005 A 
ATOM     29  C   UNL     1       5.121 -20.211  16.177  0.00  0.00    +0.013 A 
BRANCH  18  19
ATOM     19  C   UNL     1       6.269 -16.506  16.118  0.00  0.00    +0.119 C 
BRANCH  19  20
ATOM     20  N   UNL     1       6.546 -15.935  14.766  0.00  0.00    -0.302 NA
ATOM     21  C   UNL     1       5.280 -15.845  13.910  0.00  0.00    +0.066 C 
ATOM     22  C   UNL     1       5.584 -15.225  12.507  0.00  0.00    -0.064 C 
ATOM     23  N   UNL     1       6.655 -16.061  11.805  0.00  0.00    +0.379 N 
ATOM     24  C   UNL     1       6.902 -15.515  10.462  0.00  0.00    -0.096 C 
ATOM     25  H   UNL     1       6.251 -17.093  11.681  0.00  0.00    -0.082 HD
ATOM     26  C   UNL     1       7.917 -16.158  12.651  0.00  0.00    -0.064 C 
ATOM     27  C   UNL     1       7.598 -16.748  14.053  0.00  0.00    +0.066 C 
ENDBRANCH  19  20
ENDBRANCH  18  19
ENDBRANCH  14  15
ENDBRANCH  12  13
TORSDOF 6
ENDMDL
MODEL 3
REMARK VINA RESULT:      -8.2      3.299     11.312
REMARK  Name = C:\Users\Docking\Desktop\test protocol\1iep_ligandH.pdb
REMARK  8 active torsions:
REMARK  status: ('A' for Active; 'I' for Inactive)
REMARK    1  A    between atoms: _5  and  _11
REMARK    2  A    between atoms: _19  and  _21
REMARK    3  A    between atoms: _22  and  _66
REMARK    4  A    between atoms: _27  and  _30
REMARK    5  A    between atoms: _32  and  _33
REMARK    6  A    between atoms: _38  and  _43
REMARK    7  A    between atoms: _43  and  _46
REMARK    8  A    between atoms: _53  and  _55
REMARK                            x       y       z     vdW  Elec       q    Type
REMARK                         _______ _______ _______ _____ _____    ______ ____
ROOT
ATOM     10  C   UNL     1      -2.366 -24.760  13.168  0.00  0.00    +0.038 A 
ATOM     11  C   UNL     1      -1.246 -23.991  13.575  0.00  0.00    +0.047 A 
ATOM     12  C   UNL     1      -0.833 -23.942  14.969  0.00  0.00    +0.035 A 
ATOM     32  C   UNL     1      -1.582 -24.693  15.922  0.00  0.00    +0.024 A 
ATOM     33  C   UNL     1      -2.723 -25.479  15.526  0.00  0.00    +0.007 A 
ATOM     34  C   UNL     1      -3.137 -25.529  14.152  0.00  0.00    -0.029 A 
ATOM     35  C   UNL     1      -4.373 -26.383  13.786  0.00  0.00    +0.045 C 
ENDROOT
BRANCH  10   9
ATOM      4  C   UNL     1      -3.954 -22.592   9.191  0.00  0.00    +0.077 A 
ATOM      5  C   UNL     1      -4.122 -21.339   9.870  0.00  0.00    +0.048 A 
ATOM      6  C   UNL     1      -3.795 -21.297  11.244  0.00  0.00    +0.116 A 
ATOM      7  N   UNL     1      -3.335 -22.429  11.881  0.00  0.00    -0.223 NA
ATOM      8  C   UNL     1      -3.187 -23.622  11.198  0.00  0.00    +0.220 A 
ATOM      9  N   UNL     1      -2.718 -24.770  11.816  0.00  0.00    -0.283 N 
ATOM     36  H   UNL     1      -2.630 -25.632  11.279  0.00  0.00    +0.155 HD
ATOM     37  N   UNL     1      -3.493 -23.688   9.885  0.00  0.00    -0.214 NA
BRANCH   4   3
ATOM      1  C   UNL     1      -4.328 -24.202   5.646  0.00  0.00    +0.020 A 
ATOM      2  C   UNL     1      -4.021 -24.059   7.051  0.00  0.00    +0.013 A 
ATOM      3  C   UNL     1      -4.254 -22.795   7.739  0.00  0.00    +0.019 A 
ATOM     38  C   UNL     1      -4.805 -21.688   6.971  0.00  0.00    +0.120 A 
ATOM     39  N   UNL     1      -5.090 -21.856   5.619  0.00  0.00    -0.263 NA
ATOM     40  C   UNL     1      -4.868 -23.066   4.946  0.00  0.00    +0.111 A 
ENDBRANCH   4   3
ENDBRANCH  10   9
BRANCH  12  13
ATOM     13  N   UNL     1       0.290 -23.173  15.443  0.00  0.00    -0.281 N 
ATOM     14  C   UNL     1       1.639 -23.451  15.289  0.00  0.00    +0.248 C 
ATOM     30  O   UNL     1       2.084 -24.521  14.903  0.00  0.00    -0.270 OA
ATOM     31  H   UNL     1       0.064 -22.319  15.953  0.00  0.00    +0.155 HD
BRANCH  14  15
ATOM     15  C   UNL     1       2.637 -22.391  15.627  0.00  0.00    +0.037 A 
ATOM     16  C   UNL     1       2.239 -21.165  16.324  0.00  0.00    +0.013 A 
ATOM     17  C   UNL     1       3.219 -20.152  16.622  0.00  0.00    +0.005 A 
ATOM     18  C   UNL     1       4.610 -20.361  16.224  0.00  0.00    -0.033 A 
ATOM     28  C   UNL     1       4.978 -21.588  15.539  0.00  0.00    +0.005 A 
ATOM     29  C   UNL     1       4.020 -22.584  15.244  0.00  0.00    +0.013 A 
BRANCH  18  19
ATOM     19  C   UNL     1       5.718 -19.324  16.483  0.00  0.00    +0.119 C 
BRANCH  19  20
ATOM     20  N   UNL     1       5.944 -18.287  15.432  0.00  0.00    -0.302 NA
ATOM     21  C   UNL     1       5.656 -16.874  15.948  0.00  0.00    +0.066 C 
ATOM     22  C   UNL     1       5.919 -15.800  14.843  0.00  0.00    -0.064 C 
ATOM     23  N   UNL     1       5.060 -16.114  13.617  0.00  0.00    +0.379 N 
ATOM     24  C   UNL     1       5.261 -15.073  12.598  0.00  0.00    -0.096 C 
ATOM     25  H   UNL     1       3.992 -16.075  13.934  0.00  0.00    -0.082 HD
ATOM     26  C   UNL     1       5.337 -17.518  13.099  0.00  0.00    -0.064 C 
ATOM     27  C   UNL     1       5.102 -18.575  14.214  0.00  0.00    +0.066 C 
ENDBRANCH  19  20
ENDBRANCH  18  19
ENDBRANCH  14  15
ENDBRANCH  12  13
TORSDOF 6
ENDMDL
MODEL 4
REMARK VINA RESULT:      -8.0     21.123     24.268
REMARK  Name = C:\Users\Docking\Desktop\test protocol\1iep_ligandH.pdb
REMARK  8 active torsions:
REMARK  status: ('A' for Active; 'I' for Inactive)
REMARK    1  A    between atoms: _5  and  _11
REMARK    2  A    between atoms: _19  and  _21
REMARK    3  A    between atoms: _22  and  _66
REMARK    4  A    between atoms: _27  and  _30
REMARK    5  A    between atoms: _32  and  _33
REMARK    6  A    between atoms: _38  and  _43
REMARK    7  A    between atoms: _43  and  _46
REMARK    8  A    between atoms: _53  and  _55
REMARK                            x       y       z     vdW  Elec       q    Type
REMARK                         _______ _______ _______ _____ _____    ______ ____
ROOT
ATOM     10  C   UNL     1     -10.381  -4.577  24.071  0.00  0.00    +0.038 A 
ATOM     11  C   UNL     1      -9.200  -5.293  24.394  0.00  0.00    +0.047 A 
ATOM     12  C   UNL     1      -8.873  -5.623  25.773  0.00  0.00    +0.035 A 
ATOM     32  C   UNL     1      -9.772  -5.208  26.798  0.00  0.00    +0.024 A 
ATOM     33  C   UNL     1     -10.976  -4.478  26.488  0.00  0.00    +0.007 A 
ATOM     34  C   UNL     1     -11.303  -4.148  25.130  0.00  0.00    -0.029 A 
ATOM     35  C   UNL     1     -12.604  -3.358  24.857  0.00  0.00    +0.045 C 
ENDROOT
BRANCH  10   9
ATOM      4  C   UNL     1      -9.698  -1.995  20.083  0.00  0.00    +0.077 A 
ATOM      5  C   UNL     1      -8.754  -1.132  20.732  0.00  0.00    +0.048 A 
ATOM      6  C   UNL     1      -8.477  -1.382  22.095  0.00  0.00    +0.116 A 
ATOM      7  N   UNL     1      -9.103  -2.420  22.750  0.00  0.00    -0.223 NA
ATOM      8  C   UNL     1     -10.010  -3.233  22.094  0.00  0.00    +0.220 A 
ATOM      9  N   UNL     1     -10.646  -4.288  22.731  0.00  0.00    -0.283 N 
ATOM     36  H   UNL     1     -11.314  -4.859  22.215  0.00  0.00    +0.155 HD
ATOM     37  N   UNL     1     -10.293  -3.014  20.794  0.00  0.00    -0.214 NA
BRANCH   4   3
ATOM      1  C   UNL     1      -9.703  -2.207  16.177  0.00  0.00    +0.020 A 
ATOM      2  C   UNL     1      -9.275  -2.362  17.549  0.00  0.00    +0.013 A 
ATOM      3  C   UNL     1     -10.093  -1.860  18.645  0.00  0.00    +0.019 A 
ATOM     38  C   UNL     1     -11.349  -1.201  18.318  0.00  0.00    +0.120 A 
ATOM     39  N   UNL     1     -11.734  -1.064  16.988  0.00  0.00    -0.263 NA
ATOM     40  C   UNL     1     -10.954  -1.542  15.924  0.00  0.00    +0.111 A 
ENDBRANCH   4   3
ENDBRANCH  10   9
BRANCH  12  13
ATOM     13  N   UNL     1      -7.685  -6.341  26.161  0.00  0.00    -0.281 N 
ATOM     14  C   UNL     1      -7.098  -7.423  25.526  0.00  0.00    +0.248 C 
ATOM     30  O   UNL     1      -7.629  -8.076  24.640  0.00  0.00    -0.270 OA
ATOM     31  H   UNL     1      -7.220  -6.012  27.008  0.00  0.00    +0.155 HD
BRANCH  14  15
ATOM     15  C   UNL     1      -5.729  -7.851  25.946  0.00  0.00    +0.037 A 
ATOM     16  C   UNL     1      -4.587  -6.936  25.864  0.00  0.00    +0.013 A 
ATOM     17  C   UNL     1      -3.274  -7.380  26.259  0.00  0.00    +0.005 A 
ATOM     18  C   UNL     1      -3.096  -8.747  26.743  0.00  0.00    -0.033 A 
ATOM     28  C   UNL     1      -4.246  -9.632  26.819  0.00  0.00    +0.005 A 
ATOM     29  C   UNL     1      -5.535  -9.201  26.431  0.00  0.00    +0.013 A 
BRANCH  18  19
ATOM     19  C   UNL     1      -1.727  -9.313  27.166  0.00  0.00    +0.119 C 
BRANCH  19  20
ATOM     20  N   UNL     1      -1.164  -8.840  28.466  0.00  0.00    -0.302 NA
ATOM     21  C   UNL     1       0.338  -8.558  28.373  0.00  0.00    +0.066 C 
ATOM     22  C   UNL     1       0.906  -8.043  29.735  0.00  0.00    -0.064 C 
ATOM     23  N   UNL     1       0.615  -9.072  30.828  0.00  0.00    +0.379 N 
ATOM     24  C   UNL     1       1.198  -8.617  32.099  0.00  0.00    -0.096 C 
ATOM     25  H   UNL     1       1.124 -10.022  30.542  0.00  0.00    -0.082 HD
ATOM     26  C   UNL     1      -0.877  -9.360  30.926  0.00  0.00    -0.064 C 
ATOM     27  C   UNL     1      -1.437  -9.843  29.559  0.00  0.00    +0.066 C 
ENDBRANCH  19  20
ENDBRANCH  18  19
ENDBRANCH  14  15
ENDBRANCH  12  13
TORSDOF 6
ENDMDL
MODEL 5
REMARK VINA RESULT:      -7.8     20.472     23.164
REMARK  Name = C:\Users\Docking\Desktop\test protocol\1iep_ligandH.pdb
REMARK  8 active torsions:
REMARK  status: ('A' for Active; 'I' for Inactive)
REMARK    1  A    between atoms: _5  and  _11
REMARK    2  A    between atoms: _19  and  _21
REMARK    3  A    between atoms: _22  and  _66
REMARK    4  A    between atoms: _27  and  _30
REMARK    5  A    between atoms: _32  and  _33
REMARK    6  A    between atoms: _38  and  _43
REMARK    7  A    between atoms: _43  and  _46
REMARK    8  A    between atoms: _53  and  _55
REMARK                            x       y       z     vdW  Elec       q    Type
REMARK                         _______ _______ _______ _____ _____    ______ ____
ROOT
ATOM     10  C   UNL     1       0.471  -8.677  30.530  0.00  0.00    +0.038 A 
ATOM     11  C   UNL     1      -0.867  -8.952  30.148  0.00  0.00    +0.047 A 
ATOM     12  C   UNL     1      -1.575  -8.091  29.213  0.00  0.00    +0.035 A 
ATOM     32  C   UNL     1      -0.888  -6.959  28.684  0.00  0.00    +0.024 A 
ATOM     33  C   UNL     1       0.472  -6.664  29.063  0.00  0.00    +0.007 A 
ATOM     34  C   UNL     1       1.174  -7.508  29.987  0.00  0.00    -0.029 A 
ATOM     35  C   UNL     1       2.628  -7.140  30.362  0.00  0.00    +0.045 C 
ENDROOT
BRANCH  10   9
ATOM      4  C   UNL     1       1.815  -9.912  34.969  0.00  0.00    +0.077 A 
ATOM      5  C   UNL     1       1.233  -8.731  35.538  0.00  0.00    +0.048 A 
ATOM      6  C   UNL     1       0.604  -7.827  34.653  0.00  0.00    +0.116 A 
ATOM      7  N   UNL     1       0.565  -8.095  33.302  0.00  0.00    -0.223 NA
ATOM      8  C   UNL     1       1.137  -9.243  32.786  0.00  0.00    +0.220 A 
ATOM      9  N   UNL     1       1.102  -9.537  31.431  0.00  0.00    -0.283 N 
ATOM     36  H   UNL     1       1.542 -10.391  31.089  0.00  0.00    +0.155 HD
ATOM     37  N   UNL     1       1.745 -10.122  33.610  0.00  0.00    -0.214 NA
BRANCH   4   3
ATOM      1  C   UNL     1       2.631 -12.599  37.692  0.00  0.00    +0.020 A 
ATOM      2  C   UNL     1       1.915 -11.588  36.949  0.00  0.00    +0.013 A 
ATOM      3  C   UNL     1       2.512 -10.964  35.775  0.00  0.00    +0.019 A 
ATOM     38  C   UNL     1       3.844 -11.391  35.375  0.00  0.00    +0.120 A 
ATOM     39  N   UNL     1       4.510 -12.366  36.110  0.00  0.00    -0.263 NA
ATOM     40  C   UNL     1       3.947 -12.972  37.243  0.00  0.00    +0.111 A 
ENDBRANCH   4   3
ENDBRANCH  10   9
BRANCH  12  13
ATOM     13  N   UNL     1      -2.936  -8.315  28.794  0.00  0.00    -0.281 N 
ATOM     14  C   UNL     1      -3.382  -9.039  27.700  0.00  0.00    +0.248 C 
ATOM     30  O   UNL     1      -2.666  -9.427  26.789  0.00  0.00    -0.270 OA
ATOM     31  H   UNL     1      -3.659  -7.889  29.375  0.00  0.00    +0.155 HD
BRANCH  14  15
ATOM     15  C   UNL     1      -4.837  -9.366  27.595  0.00  0.00    +0.037 A 
ATOM     16  C   UNL     1      -5.490  -9.517  26.293  0.00  0.00    +0.013 A 
ATOM     17  C   UNL     1      -6.898  -9.816  26.220  0.00  0.00    +0.005 A 
ATOM     18  C   UNL     1      -7.663  -9.967  27.456  0.00  0.00    -0.033 A 
ATOM     28  C   UNL     1      -6.989  -9.817  28.734  0.00  0.00    +0.005 A 
ATOM     29  C   UNL     1      -5.609  -9.523  28.810  0.00  0.00    +0.013 A 
BRANCH  18  19
ATOM     19  C   UNL     1      -9.174 -10.265  27.473  0.00  0.00    +0.119 C 
BRANCH  19  20
ATOM     20  N   UNL     1      -9.597 -11.670  27.193  0.00  0.00    -0.302 NA
ATOM     21  C   UNL     1     -10.744 -11.734  26.181  0.00  0.00    +0.066 C 
ATOM     22  C   UNL     1     -11.159 -13.211  25.883  0.00  0.00    -0.064 C 
ATOM     23  N   UNL     1     -11.551 -13.902  27.191  0.00  0.00    +0.379 N 
ATOM     24  C   UNL     1     -11.997 -15.274  26.907  0.00  0.00    -0.096 C 
ATOM     25  H   UNL     1     -12.417 -13.346  27.620  0.00  0.00    -0.082 HD
ATOM     26  C   UNL     1     -10.417 -13.841  28.204  0.00  0.00    -0.064 C 
ATOM     27  C   UNL     1      -9.992 -12.369  28.470  0.00  0.00    +0.066 C 
ENDBRANCH  19  20
ENDBRANCH  18  19
ENDBRANCH  14  15
ENDBRANCH  12  13
TORSDOF 6
ENDMDL
