MODEL 1
REMARK VINA RESULT:     -10.4      0.000      0.000
REMARK  Name = C:\Users\Docking\Desktop\test protocol\1iep_ligandH.pdb
REMARK  8 active torsions:
REMARK  status: ('A' for Active; 'I' for Inactive)
REMARK    1  A    between atoms: _5  and  _11
REMARK    2  A    between atoms: _19  and  _21
REMARK    3  A    between atoms: _22  and  _66
REMARK    4  A    between atoms: _27  and  _30
REMARK    5  A    between atoms: _32  and  _33
REMARK    6  A    between atoms: _38  and  _43
REMARK    7  A    between atoms: _43  and  _46
REMARK    8  A    between atoms: _53  and  _55
REMARK                            x       y       z     vdW  Elec       q    Type
REMARK                         _______ _______ _______ _____ _____    ______ ____
ROOT
ATOM     10  C   UNL     1       8.179   0.833  -7.426  0.00  0.00    +0.038 A 
ATOM     11  C   UNL     1       8.728   1.121  -6.150  0.00  0.00    +0.047 A 
ATOM     12  C   UNL     1       9.260   2.438  -5.840  0.00  0.00    +0.035 A 
ATOM     32  C   UNL     1       9.216   3.440  -6.852  0.00  0.00    +0.024 A 
ATOM     33  C   UNL     1       8.664   3.165  -8.155  0.00  0.00    +0.007 A 
ATOM     34  C   UNL     1       8.139   1.866  -8.468  0.00  0.00    -0.029 A 
ATOM     35  C   UNL     1       7.564   1.625  -9.883  0.00  0.00    +0.045 C 
ENDROOT
BRANCH  10   9
ATOM      4  C   UNL     1       4.572  -2.317  -7.745  0.00  0.00    +0.077 A 
ATOM      5  C   UNL     1       3.600  -1.332  -7.369  0.00  0.00    +0.048 A 
ATOM      6  C   UNL     1       4.070  -0.028  -7.095  0.00  0.00    +0.116 A 
ATOM      7  N   UNL     1       5.415   0.258  -7.193  0.00  0.00    -0.223 NA
ATOM      8  C   UNL     1       6.326  -0.716  -7.557  0.00  0.00    +0.220 A 
ATOM      9  N   UNL     1       7.682  -0.449  -7.669  0.00  0.00    -0.283 N 
ATOM     36  H   UNL     1       8.323  -1.197  -7.933  0.00  0.00    +0.155 HD
ATOM     37  N   UNL     1       5.902  -1.970  -7.822  0.00  0.00    -0.214 NA
BRANCH   4   3
ATOM      1  C   UNL     1       2.586  -5.584  -8.573  0.00  0.00    +0.020 A 
ATOM      2  C   UNL     1       2.861  -4.200  -8.261  0.00  0.00    +0.013 A 
ATOM      3  C   UNL     1       4.230  -3.738  -8.070  0.00  0.00    +0.019 A 
ATOM     38  C   UNL     1       5.306  -4.709  -8.203  0.00  0.00    +0.120 A 
ATOM     39  N   UNL     1       5.010  -6.035  -8.503  0.00  0.00    -0.263 NA
ATOM     40  C   UNL     1       3.696  -6.492  -8.687  0.00  0.00    +0.111 A 
ENDBRANCH   4   3
ENDBRANCH  10   9
BRANCH  12  13
ATOM     13  N   UNL     1       9.837   2.786  -4.565  0.00  0.00    -0.281 N 
ATOM     14  C   UNL     1       9.176   3.073  -3.381  0.00  0.00    +0.248 C 
ATOM     30  O   UNL     1       7.975   3.282  -3.293  0.00  0.00    -0.270 OA
ATOM     31  H   UNL     1      10.855   2.827  -4.530  0.00  0.00    +0.155 HD
BRANCH  14  15
ATOM     15  C   UNL     1       9.965   3.152  -2.114  0.00  0.00    +0.037 A 
ATOM     16  C   UNL     1       9.440   3.841  -0.933  0.00  0.00    +0.013 A 
ATOM     17  C   UNL     1      10.229   3.917   0.271  0.00  0.00    +0.005 A 
ATOM     18  C   UNL     1      11.553   3.301   0.299  0.00  0.00    -0.033 A 
ATOM     28  C   UNL     1      12.048   2.619  -0.885  0.00  0.00    +0.005 A 
ATOM     29  C   UNL     1      11.278   2.543  -2.067  0.00  0.00    +0.013 A 
BRANCH  18  19
ATOM     19  C   UNL     1      12.473   3.351   1.533  0.00  0.00    +0.119 C 
BRANCH  19  20
ATOM     20  N   UNL     1      12.022   2.617   2.753  0.00  0.00    -0.302 NA
ATOM     21  C   UNL     1      13.189   2.282   3.687  0.00  0.00    +0.066 C 
ATOM     22  C   UNL     1      12.696   1.535   4.968  0.00  0.00    -0.064 C 
ATOM     23  N   UNL     1      11.948   0.265   4.558  0.00  0.00    +0.379 N 
ATOM     24  C   UNL     1      11.534  -0.471   5.762  0.00  0.00    -0.096 C 
ATOM     25  H   UNL     1      12.662  -0.381   3.996  0.00  0.00    -0.082 HD
ATOM     26  C   UNL     1      10.788   0.588   3.628  0.00  0.00    -0.064 C 
ATOM     27  C   UNL     1      11.285   1.357   2.372  0.00  0.00    +0.066 C 
ENDBRANCH  19  20
ENDBRANCH  18  19
ENDBRANCH  14  15
ENDBRANCH  12  13
TORSDOF 6
ENDMDL
MODEL 2
REMARK VINA RESULT:     -10.3      1.884     11.815
REMARK  Name = C:\Users\Docking\Desktop\test protocol\1iep_ligandH.pdb
REMARK  8 active torsions:
REMARK  status: ('A' for Active; 'I' for Inactive)
REMARK    1  A    between atoms: _5  and  _11
REMARK    2  A    between atoms: _19  and  _21
REMARK    3  A    between atoms: _22  and  _66
REMARK    4  A    between atoms: _27  and  _30
REMARK    5  A    between atoms: _32  and  _33
REMARK    6  A    between atoms: _38  and  _43
REMARK    7  A    between atoms: _43  and  _46
REMARK    8  A    between atoms: _53  and  _55
REMARK                            x       y       z     vdW  Elec       q    Type
REMARK                         _______ _______ _______ _____ _____    ______ ____
ROOT
ATOM     10  C   UNL     1       8.987   3.795  -3.515  0.00  0.00    +0.038 A 
ATOM     11  C   UNL     1       8.228   2.813  -4.200  0.00  0.00    +0.047 A 
ATOM     12  C   UNL     1       7.944   2.937  -5.622  0.00  0.00    +0.035 A 
ATOM     32  C   UNL     1       8.453   4.074  -6.315  0.00  0.00    +0.024 A 
ATOM     33  C   UNL     1       9.226   5.082  -5.634  0.00  0.00    +0.007 A 
ATOM     34  C   UNL     1       9.506   4.966  -4.231  0.00  0.00    -0.029 A 
ATOM     35  C   UNL     1      10.335   6.081  -3.551  0.00  0.00    +0.045 C 
ENDROOT
BRANCH  10   9
ATOM      4  C   UNL     1      11.741   2.375   0.151  0.00  0.00    +0.077 A 
ATOM      5  C   UNL     1      12.773   1.908  -0.728  0.00  0.00    +0.048 A 
ATOM      6  C   UNL     1      12.554   2.044  -2.118  0.00  0.00    +0.116 A 
ATOM      7  N   UNL     1      11.385   2.608  -2.581  0.00  0.00    -0.223 NA
ATOM      8  C   UNL     1      10.409   3.048  -1.706  0.00  0.00    +0.220 A 
ATOM      9  N   UNL     1       9.229   3.625  -2.150  0.00  0.00    -0.283 N 
ATOM     36  H   UNL     1       8.531   3.930  -1.473  0.00  0.00    +0.155 HD
ATOM     37  N   UNL     1      10.594   2.927  -0.375  0.00  0.00    -0.214 NA
BRANCH   4   3
ATOM      1  C   UNL     1      13.111   2.043   3.800  0.00  0.00    +0.020 A 
ATOM      2  C   UNL     1      13.083   2.104   2.356  0.00  0.00    +0.013 A 
ATOM      3  C   UNL     1      11.827   2.303   1.644  0.00  0.00    +0.019 A 
ATOM     38  C   UNL     1      10.608   2.438   2.428  0.00  0.00    +0.120 A 
ATOM     39  N   UNL     1      10.666   2.372   3.816  0.00  0.00    -0.263 NA
ATOM     40  C   UNL     1      11.869   2.180   4.513  0.00  0.00    +0.111 A 
ENDBRANCH   4   3
ENDBRANCH  10   9
BRANCH  12  13
ATOM     13  N   UNL     1       7.172   1.975  -6.369  0.00  0.00    -0.281 N 
ATOM     14  C   UNL     1       7.519   0.675  -6.697  0.00  0.00    +0.248 C 
ATOM     30  O   UNL     1       8.642   0.208  -6.580  0.00  0.00    -0.270 OA
ATOM     31  H   UNL     1       6.259   2.292  -6.696  0.00  0.00    +0.155 HD
BRANCH  14  15
ATOM     15  C   UNL     1       6.469  -0.235  -7.249  0.00  0.00    +0.037 A 
ATOM     16  C   UNL     1       5.046   0.102  -7.156  0.00  0.00    +0.013 A 
ATOM     17  C   UNL     1       4.053  -0.801  -7.681  0.00  0.00    +0.005 A 
ATOM     18  C   UNL     1       4.480  -2.050  -8.306  0.00  0.00    -0.033 A 
ATOM     28  C   UNL     1       5.898  -2.357  -8.390  0.00  0.00    +0.005 A 
ATOM     29  C   UNL     1       6.875  -1.475  -7.875  0.00  0.00    +0.013 A 
BRANCH  18  19
ATOM     19  C   UNL     1       3.489  -3.083  -8.874  0.00  0.00    +0.119 C 
BRANCH  19  20
ATOM     20  N   UNL     1       3.531  -4.460  -8.299  0.00  0.00    -0.302 NA
ATOM     21  C   UNL     1       4.601  -5.329  -8.967  0.00  0.00    +0.066 C 
ATOM     22  C   UNL     1       4.647  -6.760  -8.337  0.00  0.00    -0.064 C 
ATOM     23  N   UNL     1       3.268  -7.411  -8.456  0.00  0.00    +0.379 N 
ATOM     24  C   UNL     1       3.322  -8.778  -7.918  0.00  0.00    -0.096 C 
ATOM     25  H   UNL     1       3.021  -7.484  -9.541  0.00  0.00    -0.082 HD
ATOM     26  C   UNL     1       2.198  -6.552  -7.797  0.00  0.00    -0.064 C 
ATOM     27  C   UNL     1       2.180  -5.123  -8.410  0.00  0.00    +0.066 C 
ENDBRANCH  19  20
ENDBRANCH  18  19
ENDBRANCH  14  15
ENDBRANCH  12  13
TORSDOF 6
ENDMDL
MODEL 3
REMARK VINA RESULT:     -10.1      1.930      2.421
REMARK  Name = C:\Users\Docking\Desktop\test protocol\1iep_ligandH.pdb
REMARK  8 active torsions:
REMARK  status: ('A' for Active; 'I' for Inactive)
REMARK    1  A    between atoms: _5  and  _11
REMARK    2  A    between atoms: _19  and  _21
REMARK    3  A    between atoms: _22  and  _66
REMARK    4  A    between atoms: _27  and  _30
REMARK    5  A    between atoms: _32  and  _33
REMARK    6  A    between atoms: _38  and  _43
REMARK    7  A    between atoms: _43  and  _46
REMARK    8  A    between atoms: _53  and  _55
REMARK                            x       y       z     vdW  Elec       q    Type
REMARK                         _______ _______ _______ _____ _____    ______ ____
ROOT
ATOM     10  C   UNL     1       8.001   1.626  -7.628  0.00  0.00    +0.038 A 
ATOM     11  C   UNL     1       8.579   2.053  -6.406  0.00  0.00    +0.047 A 
ATOM     12  C   UNL     1       8.899   3.453  -6.174  0.00  0.00    +0.035 A 
ATOM     32  C   UNL     1       8.614   4.392  -7.208  0.00  0.00    +0.024 A 
ATOM     33  C   UNL     1       8.027   3.975  -8.457  0.00  0.00    +0.007 A 
ATOM     34  C   UNL     1       7.712   2.595  -8.693  0.00  0.00    -0.029 A 
ATOM     35  C   UNL     1       7.089   2.203 -10.053  0.00  0.00    +0.045 C 
ENDROOT
BRANCH  10   9
ATOM      4  C   UNL     1       4.958  -2.086  -7.653  0.00  0.00    +0.077 A 
ATOM      5  C   UNL     1       3.851  -1.257  -7.270  0.00  0.00    +0.048 A 
ATOM      6  C   UNL     1       4.109   0.117  -7.069  0.00  0.00    +0.116 A 
ATOM      7  N   UNL     1       5.382   0.615  -7.242  0.00  0.00    -0.223 NA
ATOM      8  C   UNL     1       6.427  -0.211  -7.611  0.00  0.00    +0.220 A 
ATOM      9  N   UNL     1       7.714   0.269  -7.798  0.00  0.00    -0.283 N 
ATOM     36  H   UNL     1       8.459  -0.374  -8.062  0.00  0.00    +0.155 HD
ATOM     37  N   UNL     1       6.207  -1.528  -7.807  0.00  0.00    -0.214 NA
BRANCH   4   3
ATOM      1  C   UNL     1       3.561  -5.729  -7.930  0.00  0.00    +0.020 A 
ATOM      2  C   UNL     1       3.618  -4.309  -7.670  0.00  0.00    +0.013 A 
ATOM      3  C   UNL     1       4.845  -3.557  -7.905  0.00  0.00    +0.019 A 
ATOM     38  C   UNL     1       6.005  -4.278  -8.407  0.00  0.00    +0.120 A 
ATOM     39  N   UNL     1       5.921  -5.646  -8.647  0.00  0.00    -0.263 NA
ATOM     40  C   UNL     1       4.746  -6.380  -8.423  0.00  0.00    +0.111 A 
ENDBRANCH   4   3
ENDBRANCH  10   9
BRANCH  12  13
ATOM     13  N   UNL     1       9.495   3.945  -4.956  0.00  0.00    -0.281 N 
ATOM     14  C   UNL     1       9.064   3.743  -3.655  0.00  0.00    +0.248 C 
ATOM     30  O   UNL     1       7.972   3.284  -3.352  0.00  0.00    -0.270 OA
ATOM     31  H   UNL     1      10.337   4.510  -5.067  0.00  0.00    +0.155 HD
BRANCH  14  15
ATOM     15  C   UNL     1       9.970   4.119  -2.528  0.00  0.00    +0.037 A 
ATOM     16  C   UNL     1      10.896   5.248  -2.642  0.00  0.00    +0.013 A 
ATOM     17  C   UNL     1      11.772   5.579  -1.545  0.00  0.00    +0.005 A 
ATOM     18  C   UNL     1      11.723   4.779  -0.324  0.00  0.00    -0.033 A 
ATOM     28  C   UNL     1      10.791   3.667  -0.236  0.00  0.00    +0.005 A 
ATOM     29  C   UNL     1       9.932   3.340  -1.309  0.00  0.00    +0.013 A 
BRANCH  18  19
ATOM     19  C   UNL     1      12.635   5.047   0.888  0.00  0.00    +0.119 C 
BRANCH  19  20
ATOM     20  N   UNL     1      11.971   5.372   2.185  0.00  0.00    -0.302 NA
ATOM     21  C   UNL     1      12.351   6.766   2.691  0.00  0.00    +0.066 C 
ATOM     22  C   UNL     1      11.630   7.099   4.038  0.00  0.00    -0.064 C 
ATOM     23  N   UNL     1      11.978   6.033   5.077  0.00  0.00    +0.379 N 
ATOM     24  C   UNL     1      11.348   6.374   6.361  0.00  0.00    -0.096 C 
ATOM     25  H   UNL     1      13.083   6.054   5.226  0.00  0.00    -0.082 HD
ATOM     26  C   UNL     1      11.606   4.643   4.581  0.00  0.00    -0.064 C 
ATOM     27  C   UNL     1      12.305   4.333   3.228  0.00  0.00    +0.066 C 
ENDBRANCH  19  20
ENDBRANCH  18  19
ENDBRANCH  14  15
ENDBRANCH  12  13
TORSDOF 6
ENDMDL
MODEL 4
REMARK VINA RESULT:      -9.9      2.950     12.222
REMARK  Name = C:\Users\Docking\Desktop\test protocol\1iep_ligandH.pdb
REMARK  8 active torsions:
REMARK  status: ('A' for Active; 'I' for Inactive)
REMARK    1  A    between atoms: _5  and  _11
REMARK    2  A    between atoms: _19  and  _21
REMARK    3  A    between atoms: _22  and  _66
REMARK    4  A    between atoms: _27  and  _30
REMARK    5  A    between atoms: _32  and  _33
REMARK    6  A    between atoms: _38  and  _43
REMARK    7  A    between atoms: _43  and  _46
REMARK    8  A    between atoms: _53  and  _55
REMARK                            x       y       z     vdW  Elec       q    Type
REMARK                         _______ _______ _______ _____ _____    ______ ____
ROOT
ATOM     10  C   UNL     1       7.428   2.752  -6.952  0.00  0.00    +0.038 A 
ATOM     11  C   UNL     1       6.690   1.543  -7.033  0.00  0.00    +0.047 A 
ATOM     12  C   UNL     1       6.334   0.964  -8.319  0.00  0.00    +0.035 A 
ATOM     32  C   UNL     1       6.748   1.641  -9.503  0.00  0.00    +0.024 A 
ATOM     33  C   UNL     1       7.497   2.871  -9.439  0.00  0.00    +0.007 A 
ATOM     34  C   UNL     1       7.850   3.449  -8.174  0.00  0.00    -0.029 A 
ATOM     35  C   UNL     1       8.649   4.773  -8.165  0.00  0.00    +0.045 C 
ENDROOT
BRANCH  10   9
ATOM      4  C   UNL     1      10.509   3.561  -3.362  0.00  0.00    +0.077 A 
ATOM      5  C   UNL     1      11.574   2.883  -4.044  0.00  0.00    +0.048 A 
ATOM      6  C   UNL     1      11.286   2.335  -5.314  0.00  0.00    +0.116 A 
ATOM      7  N   UNL     1      10.023   2.460  -5.852  0.00  0.00    -0.223 NA
ATOM      8  C   UNL     1       9.018   3.118  -5.166  0.00  0.00    +0.220 A 
ATOM      9  N   UNL     1       7.744   3.263  -5.691  0.00  0.00    -0.283 N 
ATOM     36  H   UNL     1       7.028   3.749  -5.151  0.00  0.00    +0.155 HD
ATOM     37  N   UNL     1       9.268   3.650  -3.951  0.00  0.00    -0.214 NA
BRANCH   4   3
ATOM      1  C   UNL     1      10.728   6.198  -0.481  0.00  0.00    +0.020 A 
ATOM      2  C   UNL     1      10.576   5.635  -1.803  0.00  0.00    +0.013 A 
ATOM      3  C   UNL     1      10.659   4.196  -2.014  0.00  0.00    +0.019 A 
ATOM     38  C   UNL     1      10.897   3.346  -0.857  0.00  0.00    +0.120 A 
ATOM     39  N   UNL     1      11.040   3.916   0.404  0.00  0.00    -0.263 NA
ATOM     40  C   UNL     1      10.964   5.300   0.619  0.00  0.00    +0.111 A 
ENDBRANCH   4   3
ENDBRANCH  10   9
BRANCH  12  13
ATOM     13  N   UNL     1       5.579  -0.256  -8.463  0.00  0.00    -0.281 N 
ATOM     14  C   UNL     1       5.978  -1.546  -8.153  0.00  0.00    +0.248 C 
ATOM     30  O   UNL     1       7.129  -1.872  -7.903  0.00  0.00    -0.270 OA
ATOM     31  H   UNL     1       4.636  -0.157  -8.839  0.00  0.00    +0.155 HD
BRANCH  14  15
ATOM     15  C   UNL     1       4.953  -2.634  -8.132  0.00  0.00    +0.037 A 
ATOM     16  C   UNL     1       3.530  -2.341  -8.322  0.00  0.00    +0.013 A 
ATOM     17  C   UNL     1       2.561  -3.406  -8.281  0.00  0.00    +0.005 A 
ATOM     18  C   UNL     1       3.012  -4.776  -8.049  0.00  0.00    -0.033 A 
ATOM     28  C   UNL     1       4.430  -5.040  -7.869  0.00  0.00    +0.005 A 
ATOM     29  C   UNL     1       5.383  -3.997  -7.908  0.00  0.00    +0.013 A 
BRANCH  18  19
ATOM     19  C   UNL     1       2.045  -5.973  -7.968  0.00  0.00    +0.119 C 
BRANCH  19  20
ATOM     20  N   UNL     1       2.510  -7.268  -8.548  0.00  0.00    -0.302 NA
ATOM     21  C   UNL     1       1.355  -8.081  -9.139  0.00  0.00    +0.066 C 
ATOM     22  C   UNL     1       1.862  -9.422  -9.761  0.00  0.00    -0.064 C 
ATOM     23  N   UNL     1       2.601 -10.230  -8.692  0.00  0.00    +0.379 N 
ATOM     24  C   UNL     1       3.029 -11.517  -9.259  0.00  0.00    -0.096 C 
ATOM     25  H   UNL     1       1.878 -10.444  -7.872  0.00  0.00    -0.082 HD
ATOM     26  C   UNL     1       3.750  -9.428  -8.097  0.00  0.00    -0.064 C 
ATOM     27  C   UNL     1       3.239  -8.084  -7.508  0.00  0.00    +0.066 C 
ENDBRANCH  19  20
ENDBRANCH  18  19
ENDBRANCH  14  15
ENDBRANCH  12  13
TORSDOF 6
ENDMDL
MODEL 5
REMARK VINA RESULT:      -9.2      2.283      2.999
REMARK  Name = C:\Users\Docking\Desktop\test protocol\1iep_ligandH.pdb
REMARK  8 active torsions:
REMARK  status: ('A' for Active; 'I' for Inactive)
REMARK    1  A    between atoms: _5  and  _11
REMARK    2  A    between atoms: _19  and  _21
REMARK    3  A    between atoms: _22  and  _66
REMARK    4  A    between atoms: _27  and  _30
REMARK    5  A    between atoms: _32  and  _33
REMARK    6  A    between atoms: _38  and  _43
REMARK    7  A    between atoms: _43  and  _46
REMARK    8  A    between atoms: _53  and  _55
REMARK                            x       y       z     vdW  Elec       q    Type
REMARK                         _______ _______ _______ _____ _____    ______ ____
ROOT
ATOM     10  C   UNL     1       9.165   2.265  -7.750  0.00  0.00    +0.038 A 
ATOM     11  C   UNL     1       9.511   2.769  -6.470  0.00  0.00    +0.047 A 
ATOM     12  C   UNL     1      10.185   4.049  -6.322  0.00  0.00    +0.035 A 
ATOM     32  C   UNL     1      10.489   4.792  -7.500  0.00  0.00    +0.024 A 
ATOM     33  C   UNL     1      10.146   4.295  -8.809  0.00  0.00    +0.007 A 
ATOM     34  C   UNL     1       9.484   3.031  -8.961  0.00  0.00    -0.029 A 
ATOM     35  C   UNL     1       9.146   2.544 -10.389  0.00  0.00    +0.045 C 
ENDROOT
BRANCH  10   9
ATOM      4  C   UNL     1       5.200  -0.432  -7.951  0.00  0.00    +0.077 A 
ATOM      5  C   UNL     1       4.344   0.714  -7.854  0.00  0.00    +0.048 A 
ATOM      6  C   UNL     1       4.963   1.980  -7.747  0.00  0.00    +0.116 A 
ATOM      7  N   UNL     1       6.338   2.079  -7.739  0.00  0.00    -0.223 NA
ATOM      8  C   UNL     1       7.135   0.953  -7.832  0.00  0.00    +0.220 A 
ATOM      9  N   UNL     1       8.519   1.030  -7.834  0.00  0.00    -0.283 N 
ATOM     36  H   UNL     1       9.071   0.175  -7.897  0.00  0.00    +0.155 HD
ATOM     37  N   UNL     1       6.567  -0.267  -7.934  0.00  0.00    -0.214 NA
BRANCH   4   3
ATOM      1  C   UNL     1       5.041  -4.330  -8.242  0.00  0.00    +0.020 A 
ATOM      2  C   UNL     1       5.579  -2.994  -8.124  0.00  0.00    +0.013 A 
ATOM      3  C   UNL     1       4.696  -1.837  -8.073  0.00  0.00    +0.019 A 
ATOM     38  C   UNL     1       3.260  -2.066  -8.144  0.00  0.00    +0.120 A 
ATOM     39  N   UNL     1       2.771  -3.364  -8.259  0.00  0.00    -0.263 NA
ATOM     40  C   UNL     1       3.612  -4.485  -8.310  0.00  0.00    +0.111 A 
ENDBRANCH   4   3
ENDBRANCH  10   9
BRANCH  12  13
ATOM     13  N   UNL     1      10.567   4.608  -5.049  0.00  0.00    -0.281 N 
ATOM     14  C   UNL     1       9.933   5.610  -4.334  0.00  0.00    +0.248 C 
ATOM     30  O   UNL     1       9.055   6.331  -4.784  0.00  0.00    -0.270 OA
ATOM     31  H   UNL     1      11.408   4.216  -4.623  0.00  0.00    +0.155 HD
BRANCH  14  15
ATOM     15  C   UNL     1      10.344   5.858  -2.918  0.00  0.00    +0.037 A 
ATOM     16  C   UNL     1      10.264   4.800  -1.908  0.00  0.00    +0.013 A 
ATOM     17  C   UNL     1      10.650   5.070  -0.545  0.00  0.00    +0.005 A 
ATOM     18  C   UNL     1      11.121   6.405  -0.186  0.00  0.00    -0.033 A 
ATOM     28  C   UNL     1      11.195   7.435  -1.209  0.00  0.00    +0.005 A 
ATOM     29  C   UNL     1      10.817   7.174  -2.545  0.00  0.00    +0.013 A 
BRANCH  18  19
ATOM     19  C   UNL     1      11.534   6.789   1.247  0.00  0.00    +0.119 C 
BRANCH  19  20
ATOM     20  N   UNL     1      11.940   5.680   2.162  0.00  0.00    -0.302 NA
ATOM     21  C   UNL     1      11.065   5.622   3.418  0.00  0.00    +0.066 C 
ATOM     22  C   UNL     1      11.488   4.443   4.352  0.00  0.00    -0.064 C 
ATOM     23  N   UNL     1      12.963   4.597   4.727  0.00  0.00    +0.379 N 
ATOM     24  C   UNL     1      13.349   3.521   5.652  0.00  0.00    -0.096 C 
ATOM     25  H   UNL     1      13.076   5.565   5.267  0.00  0.00    -0.082 HD
ATOM     26  C   UNL     1      13.840   4.658   3.484  0.00  0.00    -0.064 C 
ATOM     27  C   UNL     1      13.392   5.815   2.548  0.00  0.00    +0.066 C 
ENDBRANCH  19  20
ENDBRANCH  18  19
ENDBRANCH  14  15
ENDBRANCH  12  13
TORSDOF 6
ENDMDL
