MODEL 1
REMARK VINA RESULT:     -11.3      0.000      0.000
REMARK  Name = C:\Users\Docking\Desktop\test protocol\1iep_ligandH.pdb
REMARK  8 active torsions:
REMARK  status: ('A' for Active; 'I' for Inactive)
REMARK    1  A    between atoms: _5  and  _11
REMARK    2  A    between atoms: _19  and  _21
REMARK    3  A    between atoms: _22  and  _66
REMARK    4  A    between atoms: _27  and  _30
REMARK    5  A    between atoms: _32  and  _33
REMARK    6  A    between atoms: _38  and  _43
REMARK    7  A    between atoms: _43  and  _46
REMARK    8  A    between atoms: _53  and  _55
REMARK                            x       y       z     vdW  Elec       q    Type
REMARK                         _______ _______ _______ _____ _____    ______ ____
ROOT
ATOM     10  C   UNL     1      62.156  27.866  23.870  0.00  0.00    +0.038 A 
ATOM     11  C   UNL     1      63.463  27.560  24.329  0.00  0.00    +0.047 A 
ATOM     12  C   UNL     1      63.722  27.284  25.733  0.00  0.00    +0.035 A 
ATOM     32  C   UNL     1      62.626  27.326  26.643  0.00  0.00    +0.024 A 
ATOM     33  C   UNL     1      61.291  27.636  26.194  0.00  0.00    +0.007 A 
ATOM     34  C   UNL     1      61.030  27.911  24.810  0.00  0.00    -0.029 A 
ATOM     35  C   UNL     1      59.581  28.244  24.386  0.00  0.00    +0.045 C 
ENDROOT
BRANCH  10   9
ATOM      4  C   UNL     1      61.136  26.450  19.399  0.00  0.00    +0.077 A 
ATOM      5  C   UNL     1      61.000  25.080  19.800  0.00  0.00    +0.048 A 
ATOM      6  C   UNL     1      61.207  24.780  21.166  0.00  0.00    +0.116 A 
ATOM      7  N   UNL     1      61.526  25.784  22.054  0.00  0.00    -0.223 NA
ATOM      8  C   UNL     1      61.652  27.095  21.633  0.00  0.00    +0.220 A 
ATOM      9  N   UNL     1      61.965  28.122  22.511  0.00  0.00    -0.283 N 
ATOM     36  H   UNL     1      62.055  29.075  22.160  0.00  0.00    +0.155 HD
ATOM     37  N   UNL     1      61.460  27.407  20.334  0.00  0.00    -0.214 NA
BRANCH   4   3
ATOM      1  C   UNL     1      60.942  28.720  16.219  0.00  0.00    +0.020 A 
ATOM      2  C   UNL     1      61.140  28.313  17.591  0.00  0.00    +0.013 A 
ATOM      3  C   UNL     1      60.944  26.925  17.992  0.00  0.00    +0.019 A 
ATOM     38  C   UNL     1      60.546  25.967  16.972  0.00  0.00    +0.120 A 
ATOM     39  N   UNL     1      60.362  26.388  15.659  0.00  0.00    -0.263 NA
ATOM     40  C   UNL     1      60.545  27.721  15.262  0.00  0.00    +0.111 A 
ENDBRANCH   4   3
ENDBRANCH  10   9
BRANCH  12  13
ATOM     13  N   UNL     1      65.029  26.976  26.259  0.00  0.00    -0.281 N 
ATOM     14  C   UNL     1      65.690  27.589  27.311  0.00  0.00    +0.248 C 
ATOM     30  O   UNL     1      65.343  28.641  27.827  0.00  0.00    -0.270 OA
ATOM     31  H   UNL     1      65.528  26.215  25.799  0.00  0.00    +0.155 HD
BRANCH  14  15
ATOM     15  C   UNL     1      66.922  26.946  27.862  0.00  0.00    +0.037 A 
ATOM     16  C   UNL     1      66.876  25.618  28.478  0.00  0.00    +0.013 A 
ATOM     17  C   UNL     1      68.076  25.028  29.016  0.00  0.00    +0.005 A 
ATOM     18  C   UNL     1      69.334  25.768  28.939  0.00  0.00    -0.033 A 
ATOM     28  C   UNL     1      69.352  27.082  28.318  0.00  0.00    +0.005 A 
ATOM     29  C   UNL     1      68.178  27.663  27.790  0.00  0.00    +0.013 A 
BRANCH  18  19
ATOM     19  C   UNL     1      70.659  25.225  29.506  0.00  0.00    +0.119 C 
BRANCH  19  20
ATOM     20  N   UNL     1      70.573  24.121  30.508  0.00  0.00    -0.302 NA
ATOM     21  C   UNL     1      69.504  24.390  31.570  0.00  0.00    +0.066 C 
ATOM     22  C   UNL     1      69.411  23.214  32.596  0.00  0.00    -0.064 C 
ATOM     23  N   UNL     1      70.779  23.001  33.247  0.00  0.00    +0.379 N 
ATOM     24  C   UNL     1      70.682  21.934  34.254  0.00  0.00    -0.096 C 
ATOM     25  H   UNL     1      71.052  23.943  33.777  0.00  0.00    -0.082 HD
ATOM     26  C   UNL     1      71.849  22.735  32.198  0.00  0.00    -0.064 C 
ATOM     27  C   UNL     1      71.912  23.895  31.166  0.00  0.00    +0.066 C 
ENDBRANCH  19  20
ENDBRANCH  18  19
ENDBRANCH  14  15
ENDBRANCH  12  13
TORSDOF 6
ENDMDL
MODEL 2
REMARK VINA RESULT:     -11.2      2.158     13.127
REMARK  Name = C:\Users\Docking\Desktop\test protocol\1iep_ligandH.pdb
REMARK  8 active torsions:
REMARK  status: ('A' for Active; 'I' for Inactive)
REMARK    1  A    between atoms: _5  and  _11
REMARK    2  A    between atoms: _19  and  _21
REMARK    3  A    between atoms: _22  and  _66
REMARK    4  A    between atoms: _27  and  _30
REMARK    5  A    between atoms: _32  and  _33
REMARK    6  A    between atoms: _38  and  _43
REMARK    7  A    between atoms: _43  and  _46
REMARK    8  A    between atoms: _53  and  _55
REMARK                            x       y       z     vdW  Elec       q    Type
REMARK                         _______ _______ _______ _____ _____    ______ ____
ROOT
ATOM     10  C   UNL     1      64.765  27.159  27.337  0.00  0.00    +0.038 A 
ATOM     11  C   UNL     1      64.524  26.811  25.983  0.00  0.00    +0.047 A 
ATOM     12  C   UNL     1      63.744  27.676  25.111  0.00  0.00    +0.035 A 
ATOM     32  C   UNL     1      63.226  28.889  25.651  0.00  0.00    +0.024 A 
ATOM     33  C   UNL     1      63.460  29.258  27.025  0.00  0.00    +0.007 A 
ATOM     34  C   UNL     1      64.227  28.407  27.890  0.00  0.00    -0.029 A 
ATOM     35  C   UNL     1      64.441  28.849  29.357  0.00  0.00    +0.045 C 
ENDROOT
BRANCH  10   9
ATOM      4  C   UNL     1      68.934  25.665  29.186  0.00  0.00    +0.077 A 
ATOM      5  C   UNL     1      69.673  26.681  28.495  0.00  0.00    +0.048 A 
ATOM      6  C   UNL     1      68.944  27.564  27.668  0.00  0.00    +0.116 A 
ATOM      7  N   UNL     1      67.577  27.432  27.548  0.00  0.00    -0.223 NA
ATOM      8  C   UNL     1      66.895  26.439  28.228  0.00  0.00    +0.220 A 
ATOM      9  N   UNL     1      65.520  26.292  28.129  0.00  0.00    -0.283 N 
ATOM     36  H   UNL     1      65.056  25.542  28.640  0.00  0.00    +0.155 HD
ATOM     37  N   UNL     1      67.569  25.582  29.023  0.00  0.00    -0.214 NA
BRANCH   4   3
ATOM      1  C   UNL     1      71.455  23.825  31.545  0.00  0.00    +0.020 A 
ATOM      2  C   UNL     1      70.894  24.827  30.668  0.00  0.00    +0.013 A 
ATOM      3  C   UNL     1      69.563  24.658  30.100  0.00  0.00    +0.019 A 
ATOM     38  C   UNL     1      68.818  23.456  30.442  0.00  0.00    +0.120 A 
ATOM     39  N   UNL     1      69.385  22.508  31.289  0.00  0.00    -0.263 NA
ATOM     40  C   UNL     1      70.666  22.658  31.840  0.00  0.00    +0.111 A 
ENDBRANCH   4   3
ENDBRANCH  10   9
BRANCH  12  13
ATOM     13  N   UNL     1      63.461  27.372  23.731  0.00  0.00    -0.281 N 
ATOM     14  C   UNL     1      62.310  26.812  23.201  0.00  0.00    +0.248 C 
ATOM     30  O   UNL     1      61.428  26.288  23.865  0.00  0.00    -0.270 OA
ATOM     31  H   UNL     1      64.198  27.596  23.062  0.00  0.00    +0.155 HD
BRANCH  14  15
ATOM     15  C   UNL     1      62.117  26.822  21.719  0.00  0.00    +0.037 A 
ATOM     16  C   UNL     1      63.086  26.187  20.822  0.00  0.00    +0.013 A 
ATOM     17  C   UNL     1      62.885  26.227  19.395  0.00  0.00    +0.005 A 
ATOM     18  C   UNL     1      61.708  26.904  18.856  0.00  0.00    -0.033 A 
ATOM     28  C   UNL     1      60.760  27.521  19.769  0.00  0.00    +0.005 A 
ATOM     29  C   UNL     1      60.954  27.485  21.168  0.00  0.00    +0.013 A 
BRANCH  18  19
ATOM     19  C   UNL     1      61.424  27.013  17.347  0.00  0.00    +0.119 C 
BRANCH  19  20
ATOM     20  N   UNL     1      61.685  25.803  16.512  0.00  0.00    -0.302 NA
ATOM     21  C   UNL     1      61.770  26.140  15.021  0.00  0.00    +0.066 C 
ATOM     22  C   UNL     1      62.065  24.865  14.165  0.00  0.00    -0.064 C 
ATOM     23  N   UNL     1      60.980  23.819  14.423  0.00  0.00    +0.379 N 
ATOM     24  C   UNL     1      61.223  22.642  13.576  0.00  0.00    -0.096 C 
ATOM     25  H   UNL     1      60.004  24.261  14.115  0.00  0.00    -0.082 HD
ATOM     26  C   UNL     1      60.887  23.479  15.904  0.00  0.00    -0.064 C 
ATOM     27  C   UNL     1      60.623  24.757  16.748  0.00  0.00    +0.066 C 
ENDBRANCH  19  20
ENDBRANCH  18  19
ENDBRANCH  14  15
ENDBRANCH  12  13
TORSDOF 6
ENDMDL
MODEL 3
REMARK VINA RESULT:     -10.9      1.799      3.193
REMARK  Name = C:\Users\Docking\Desktop\test protocol\1iep_ligandH.pdb
REMARK  8 active torsions:
REMARK  status: ('A' for Active; 'I' for Inactive)
REMARK    1  A    between atoms: _5  and  _11
REMARK    2  A    between atoms: _19  and  _21
REMARK    3  A    between atoms: _22  and  _66
REMARK    4  A    between atoms: _27  and  _30
REMARK    5  A    between atoms: _32  and  _33
REMARK    6  A    between atoms: _38  and  _43
REMARK    7  A    between atoms: _43  and  _46
REMARK    8  A    between atoms: _53  and  _55
REMARK                            x       y       z     vdW  Elec       q    Type
REMARK                         _______ _______ _______ _____ _____    ______ ____
ROOT
ATOM     10  C   UNL     1      64.401  28.012  26.160  0.00  0.00    +0.038 A 
ATOM     11  C   UNL     1      65.471  27.184  26.586  0.00  0.00    +0.047 A 
ATOM     12  C   UNL     1      65.850  27.105  27.988  0.00  0.00    +0.035 A 
ATOM     32  C   UNL     1      65.115  27.881  28.931  0.00  0.00    +0.024 A 
ATOM     33  C   UNL     1      64.025  28.729  28.516  0.00  0.00    +0.007 A 
ATOM     34  C   UNL     1      63.649  28.813  27.133  0.00  0.00    -0.029 A 
ATOM     35  C   UNL     1      62.477  29.744  26.745  0.00  0.00    +0.045 C 
ENDROOT
BRANCH  10   9
ATOM      4  C   UNL     1      61.560  26.916  22.450  0.00  0.00    +0.077 A 
ATOM      5  C   UNL     1      60.652  26.184  23.285  0.00  0.00    +0.048 A 
ATOM      6  C   UNL     1      60.956  26.107  24.663  0.00  0.00    +0.116 A 
ATOM      7  N   UNL     1      62.087  26.721  25.158  0.00  0.00    -0.223 NA
ATOM      8  C   UNL     1      62.942  27.418  24.324  0.00  0.00    +0.220 A 
ATOM      9  N   UNL     1      64.080  28.050  24.801  0.00  0.00    -0.283 N 
ATOM     36  H   UNL     1      64.690  28.548  24.153  0.00  0.00    +0.155 HD
ATOM     37  N   UNL     1      62.674  27.505  23.005  0.00  0.00    -0.214 NA
BRANCH   4   3
ATOM      1  C   UNL     1      60.094  27.920  18.965  0.00  0.00    +0.020 A 
ATOM      2  C   UNL     1      60.226  27.779  20.397  0.00  0.00    +0.013 A 
ATOM      3  C   UNL     1      61.373  27.090  20.975  0.00  0.00    +0.019 A 
ATOM     38  C   UNL     1      62.377  26.552  20.069  0.00  0.00    +0.120 A 
ATOM     39  N   UNL     1      62.222  26.702  18.694  0.00  0.00    -0.263 NA
ATOM     40  C   UNL     1      61.122  27.361  18.127  0.00  0.00    +0.111 A 
ENDBRANCH   4   3
ENDBRANCH  10   9
BRANCH  12  13
ATOM     13  N   UNL     1      66.932  26.288  28.478  0.00  0.00    -0.281 N 
ATOM     14  C   UNL     1      68.287  26.575  28.470  0.00  0.00    +0.248 C 
ATOM     30  O   UNL     1      68.795  27.492  27.843  0.00  0.00    -0.270 OA
ATOM     31  H   UNL     1      66.667  25.388  28.879  0.00  0.00    +0.155 HD
BRANCH  14  15
ATOM     15  C   UNL     1      69.213  25.710  29.262  0.00  0.00    +0.037 A 
ATOM     16  C   UNL     1      68.831  24.352  29.659  0.00  0.00    +0.013 A 
ATOM     17  C   UNL     1      69.737  23.545  30.438  0.00  0.00    +0.005 A 
ATOM     18  C   UNL     1      71.035  24.093  30.823  0.00  0.00    -0.033 A 
ATOM     28  C   UNL     1      71.390  25.441  30.410  0.00  0.00    +0.005 A 
ATOM     29  C   UNL     1      70.505  26.236  29.648  0.00  0.00    +0.013 A 
BRANCH  18  19
ATOM     19  C   UNL     1      72.056  23.311  31.670  0.00  0.00    +0.119 C 
BRANCH  19  20
ATOM     20  N   UNL     1      71.538  22.168  32.481  0.00  0.00    -0.302 NA
ATOM     21  C   UNL     1      70.530  22.625  33.539  0.00  0.00    +0.066 C 
ATOM     22  C   UNL     1      69.982  21.414  34.363  0.00  0.00    -0.064 C 
ATOM     23  N   UNL     1      71.151  20.671  35.012  0.00  0.00    +0.379 N 
ATOM     24  C   UNL     1      70.636  19.567  35.834  0.00  0.00    -0.096 C 
ATOM     25  H   UNL     1      71.669  21.387  35.693  0.00  0.00    -0.082 HD
ATOM     26  C   UNL     1      72.160  20.217  33.967  0.00  0.00    -0.064 C 
ATOM     27  C   UNL     1      72.676  21.424  33.135  0.00  0.00    +0.066 C 
ENDBRANCH  19  20
ENDBRANCH  18  19
ENDBRANCH  14  15
ENDBRANCH  12  13
TORSDOF 6
ENDMDL
MODEL 4
REMARK VINA RESULT:     -10.8      1.892      2.164
REMARK  Name = C:\Users\Docking\Desktop\test protocol\1iep_ligandH.pdb
REMARK  8 active torsions:
REMARK  status: ('A' for Active; 'I' for Inactive)
REMARK    1  A    between atoms: _5  and  _11
REMARK    2  A    between atoms: _19  and  _21
REMARK    3  A    between atoms: _22  and  _66
REMARK    4  A    between atoms: _27  and  _30
REMARK    5  A    between atoms: _32  and  _33
REMARK    6  A    between atoms: _38  and  _43
REMARK    7  A    between atoms: _43  and  _46
REMARK    8  A    between atoms: _53  and  _55
REMARK                            x       y       z     vdW  Elec       q    Type
REMARK                         _______ _______ _______ _____ _____    ______ ____
ROOT
ATOM     10  C   UNL     1      62.017  26.866  24.367  0.00  0.00    +0.038 A 
ATOM     11  C   UNL     1      63.299  26.514  24.861  0.00  0.00    +0.047 A 
ATOM     12  C   UNL     1      63.937  27.285  25.916  0.00  0.00    +0.035 A 
ATOM     32  C   UNL     1      63.239  28.409  26.448  0.00  0.00    +0.024 A 
ATOM     33  C   UNL     1      61.935  28.781  25.957  0.00  0.00    +0.007 A 
ATOM     34  C   UNL     1      61.302  28.025  24.914  0.00  0.00    -0.029 A 
ATOM     35  C   UNL     1      59.907  28.474  24.422  0.00  0.00    +0.045 C 
ENDROOT
BRANCH  10   9
ATOM      4  C   UNL     1      62.051  25.004  19.943  0.00  0.00    +0.077 A 
ATOM      5  C   UNL     1      63.287  25.655  19.615  0.00  0.00    +0.048 A 
ATOM      6  C   UNL     1      63.877  26.466  20.610  0.00  0.00    +0.116 A 
ATOM      7  N   UNL     1      63.269  26.607  21.838  0.00  0.00    -0.223 NA
ATOM      8  C   UNL     1      62.076  25.967  22.122  0.00  0.00    +0.220 A 
ATOM      9  N   UNL     1      61.451  26.089  23.353  0.00  0.00    -0.283 N 
ATOM     36  H   UNL     1      60.568  25.607  23.520  0.00  0.00    +0.155 HD
ATOM     37  N   UNL     1      61.492  25.189  21.187  0.00  0.00    -0.214 NA
BRANCH   4   3
ATOM      1  C   UNL     1      59.183  23.226  17.965  0.00  0.00    +0.020 A 
ATOM      2  C   UNL     1      59.853  24.107  18.894  0.00  0.00    +0.013 A 
ATOM      3  C   UNL     1      61.306  24.113  18.998  0.00  0.00    +0.019 A 
ATOM     38  C   UNL     1      62.059  23.210  18.140  0.00  0.00    +0.120 A 
ATOM     39  N   UNL     1      61.386  22.372  17.256  0.00  0.00    -0.263 NA
ATOM     40  C   UNL     1      59.987  22.356  17.149  0.00  0.00    +0.111 A 
ENDBRANCH   4   3
ENDBRANCH  10   9
BRANCH  12  13
ATOM     13  N   UNL     1      65.240  26.980  26.452  0.00  0.00    -0.281 N 
ATOM     14  C   UNL     1      65.835  27.497  27.591  0.00  0.00    +0.248 C 
ATOM     30  O   UNL     1      65.418  28.465  28.210  0.00  0.00    -0.270 OA
ATOM     31  H   UNL     1      65.792  26.301  25.927  0.00  0.00    +0.155 HD
BRANCH  14  15
ATOM     15  C   UNL     1      67.080  26.854  28.111  0.00  0.00    +0.037 A 
ATOM     16  C   UNL     1      67.078  25.468  28.586  0.00  0.00    +0.013 A 
ATOM     17  C   UNL     1      68.289  24.878  29.098  0.00  0.00    +0.005 A 
ATOM     18  C   UNL     1      69.514  25.674  29.136  0.00  0.00    -0.033 A 
ATOM     28  C   UNL     1      69.488  27.044  28.653  0.00  0.00    +0.005 A 
ATOM     29  C   UNL     1      68.303  27.627  28.151  0.00  0.00    +0.013 A 
BRANCH  18  19
ATOM     19  C   UNL     1      70.847  25.132  29.685  0.00  0.00    +0.119 C 
BRANCH  19  20
ATOM     20  N   UNL     1      70.775  24.031  30.691  0.00  0.00    -0.302 NA
ATOM     21  C   UNL     1      69.628  24.234  31.685  0.00  0.00    +0.066 C 
ATOM     22  C   UNL     1      69.553  23.061  32.716  0.00  0.00    -0.064 C 
ATOM     23  N   UNL     1      70.890  22.945  33.449  0.00  0.00    +0.379 N 
ATOM     24  C   UNL     1      70.804  21.881  34.460  0.00  0.00    -0.096 C 
ATOM     25  H   UNL     1      71.067  23.906  33.984  0.00  0.00    -0.082 HD
ATOM     26  C   UNL     1      72.037  22.745  32.468  0.00  0.00    -0.064 C 
ATOM     27  C   UNL     1      72.084  23.900  31.430  0.00  0.00    +0.066 C 
ENDBRANCH  19  20
ENDBRANCH  18  19
ENDBRANCH  14  15
ENDBRANCH  12  13
TORSDOF 6
ENDMDL
MODEL 5
REMARK VINA RESULT:     -10.7      5.874     15.131
REMARK  Name = C:\Users\Docking\Desktop\test protocol\1iep_ligandH.pdb
REMARK  8 active torsions:
REMARK  status: ('A' for Active; 'I' for Inactive)
REMARK    1  A    between atoms: _5  and  _11
REMARK    2  A    between atoms: _19  and  _21
REMARK    3  A    between atoms: _22  and  _66
REMARK    4  A    between atoms: _27  and  _30
REMARK    5  A    between atoms: _32  and  _33
REMARK    6  A    between atoms: _38  and  _43
REMARK    7  A    between atoms: _43  and  _46
REMARK    8  A    between atoms: _53  and  _55
REMARK                            x       y       z     vdW  Elec       q    Type
REMARK                         _______ _______ _______ _____ _____    ______ ____
ROOT
ATOM     10  C   UNL     1      70.996  21.642  32.913  0.00  0.00    +0.038 A 
ATOM     11  C   UNL     1      70.125  22.558  32.269  0.00  0.00    +0.047 A 
ATOM     12  C   UNL     1      70.643  23.711  31.550  0.00  0.00    +0.035 A 
ATOM     32  C   UNL     1      72.055  23.900  31.504  0.00  0.00    +0.024 A 
ATOM     33  C   UNL     1      72.955  22.979  32.154  0.00  0.00    +0.007 A 
ATOM     34  C   UNL     1      72.449  21.841  32.866  0.00  0.00    -0.029 A 
ATOM     35  C   UNL     1      73.460  20.891  33.549  0.00  0.00    +0.045 C 
ENDROOT
BRANCH  10   9
ATOM      4  C   UNL     1      69.571  19.431  36.927  0.00  0.00    +0.077 A 
ATOM      5  C   UNL     1      69.987  20.530  37.751  0.00  0.00    +0.048 A 
ATOM      6  C   UNL     1      70.569  21.642  37.102  0.00  0.00    +0.116 A 
ATOM      7  N   UNL     1      70.720  21.644  35.733  0.00  0.00    -0.223 NA
ATOM      8  C   UNL     1      70.309  20.567  34.968  0.00  0.00    +0.220 A 
ATOM      9  N   UNL     1      70.444  20.552  33.589  0.00  0.00    -0.283 N 
ATOM     36  H   UNL     1      70.135  19.735  33.061  0.00  0.00    +0.155 HD
ATOM     37  N   UNL     1      69.752  19.493  35.564  0.00  0.00    -0.214 NA
BRANCH   4   3
ATOM      1  C   UNL     1      66.946  16.854  38.256  0.00  0.00    +0.020 A 
ATOM      2  C   UNL     1      67.509  18.079  37.738  0.00  0.00    +0.013 A 
ATOM      3  C   UNL     1      68.936  18.186  37.464  0.00  0.00    +0.019 A 
ATOM     38  C   UNL     1      69.773  17.024  37.726  0.00  0.00    +0.120 A 
ATOM     39  N   UNL     1      69.203  15.858  38.226  0.00  0.00    -0.263 NA
ATOM     40  C   UNL     1      67.831  15.744  38.495  0.00  0.00    +0.111 A 
ENDBRANCH   4   3
ENDBRANCH  10   9
BRANCH  12  13
ATOM     13  N   UNL     1      69.807  24.679  30.885  0.00  0.00    -0.281 N 
ATOM     14  C   UNL     1      69.797  25.015  29.541  0.00  0.00    +0.248 C 
ATOM     30  O   UNL     1      70.658  24.684  28.739  0.00  0.00    -0.270 OA
ATOM     31  H   UNL     1      69.142  25.178  31.476  0.00  0.00    +0.155 HD
BRANCH  14  15
ATOM     15  C   UNL     1      68.676  25.851  29.014  0.00  0.00    +0.037 A 
ATOM     16  C   UNL     1      67.336  25.291  28.820  0.00  0.00    +0.013 A 
ATOM     17  C   UNL     1      66.277  26.115  28.294  0.00  0.00    +0.005 A 
ATOM     18  C   UNL     1      66.554  27.510  27.960  0.00  0.00    -0.033 A 
ATOM     28  C   UNL     1      67.890  28.042  28.167  0.00  0.00    +0.005 A 
ATOM     29  C   UNL     1      68.932  27.237  28.681  0.00  0.00    +0.013 A 
BRANCH  18  19
ATOM     19  C   UNL     1      65.489  28.457  27.374  0.00  0.00    +0.119 C 
BRANCH  19  20
ATOM     20  N   UNL     1      64.114  28.379  27.950  0.00  0.00    -0.302 NA
ATOM     21  C   UNL     1      63.104  29.196  27.139  0.00  0.00    +0.066 C 
ATOM     22  C   UNL     1      61.666  29.086  27.743  0.00  0.00    -0.064 C 
ATOM     23  N   UNL     1      61.691  29.550  29.200  0.00  0.00    +0.379 N 
ATOM     24  C   UNL     1      60.330  29.503  29.754  0.00  0.00    -0.096 C 
ATOM     25  H   UNL     1      62.024  30.614  29.210  0.00  0.00    -0.082 HD
ATOM     26  C   UNL     1      62.695  28.745  30.014  0.00  0.00    -0.064 C 
ATOM     27  C   UNL     1      64.115  28.838  29.388  0.00  0.00    +0.066 C 
ENDBRANCH  19  20
ENDBRANCH  18  19
ENDBRANCH  14  15
ENDBRANCH  12  13
TORSDOF 6
ENDMDL
