MODEL 1
REMARK VINA RESULT:     -10.7      0.000      0.000
REMARK  Name = C:\Users\Docking\Desktop\test protocol\1iep_ligandH.pdb
REMARK  8 active torsions:
REMARK  status: ('A' for Active; 'I' for Inactive)
REMARK    1  A    between atoms: _5  and  _11
REMARK    2  A    between atoms: _19  and  _21
REMARK    3  A    between atoms: _22  and  _66
REMARK    4  A    between atoms: _27  and  _30
REMARK    5  A    between atoms: _32  and  _33
REMARK    6  A    between atoms: _38  and  _43
REMARK    7  A    between atoms: _43  and  _46
REMARK    8  A    between atoms: _53  and  _55
REMARK                            x       y       z     vdW  Elec       q    Type
REMARK                         _______ _______ _______ _____ _____    ______ ____
ROOT
ATOM     10  C   UNL     1      31.804   4.938   5.867  0.00  0.00    +0.038 A 
ATOM     11  C   UNL     1      30.810   5.948   5.815  0.00  0.00    +0.047 A 
ATOM     12  C   UNL     1      30.886   7.029   4.844  0.00  0.00    +0.035 A 
ATOM     32  C   UNL     1      31.987   7.048   3.939  0.00  0.00    +0.024 A 
ATOM     33  C   UNL     1      33.007   6.029   3.979  0.00  0.00    +0.007 A 
ATOM     34  C   UNL     1      32.939   4.962   4.936  0.00  0.00    -0.029 A 
ATOM     35  C   UNL     1      34.063   3.901   4.937  0.00  0.00    +0.045 C 
ENDROOT
BRANCH  10   9
ATOM      4  C   UNL     1      30.581   0.485   7.175  0.00  0.00    +0.077 A 
ATOM      5  C   UNL     1      30.122   0.160   5.855  0.00  0.00    +0.048 A 
ATOM      6  C   UNL     1      30.212   1.169   4.870  0.00  0.00    +0.116 A 
ATOM      7  N   UNL     1      30.724   2.407   5.192  0.00  0.00    -0.223 NA
ATOM      8  C   UNL     1      31.156   2.688   6.476  0.00  0.00    +0.220 A 
ATOM      9  N   UNL     1      31.681   3.924   6.820  0.00  0.00    -0.283 N 
ATOM     36  H   UNL     1      31.982   4.094   7.779  0.00  0.00    +0.155 HD
ATOM     37  N   UNL     1      31.079   1.742   7.435  0.00  0.00    -0.214 NA
BRANCH   4   3
ATOM      1  C   UNL     1      30.182  -2.766   9.314  0.00  0.00    +0.020 A 
ATOM      2  C   UNL     1      30.191  -1.880   8.173  0.00  0.00    +0.013 A 
ATOM      3  C   UNL     1      30.554  -0.476   8.323  0.00  0.00    +0.019 A 
ATOM     38  C   UNL     1      30.905   0.003   9.652  0.00  0.00    +0.120 A 
ATOM     39  N   UNL     1      30.886  -0.873  10.732  0.00  0.00    -0.263 NA
ATOM     40  C   UNL     1      30.537  -2.226  10.600  0.00  0.00    +0.111 A 
ENDBRANCH   4   3
ENDBRANCH  10   9
BRANCH  12  13
ATOM     13  N   UNL     1      29.911   8.087   4.749  0.00  0.00    -0.281 N 
ATOM     14  C   UNL     1      28.539   7.970   4.605  0.00  0.00    +0.248 C 
ATOM     30  O   UNL     1      27.960   6.932   4.321  0.00  0.00    -0.270 OA
ATOM     31  H   UNL     1      30.278   9.038   4.793  0.00  0.00    +0.155 HD
BRANCH  14  15
ATOM     15  C   UNL     1      27.687   9.184   4.790  0.00  0.00    +0.037 A 
ATOM     16  C   UNL     1      26.226   9.088   4.836  0.00  0.00    +0.013 A 
ATOM     17  C   UNL     1      25.427  10.277   4.998  0.00  0.00    +0.005 A 
ATOM     18  C   UNL     1      26.089  11.573   5.117  0.00  0.00    -0.033 A 
ATOM     28  C   UNL     1      27.541  11.640   5.074  0.00  0.00    +0.005 A 
ATOM     29  C   UNL     1      28.327  10.476   4.914  0.00  0.00    +0.013 A 
BRANCH  18  19
ATOM     19  C   UNL     1      25.316  12.896   5.272  0.00  0.00    +0.119 C 
BRANCH  19  20
ATOM     20  N   UNL     1      23.836  12.849   5.081  0.00  0.00    -0.302 NA
ATOM     21  C   UNL     1      23.416  13.391   3.711  0.00  0.00    +0.066 C 
ATOM     22  C   UNL     1      21.867  13.314   3.519  0.00  0.00    -0.064 C 
ATOM     23  N   UNL     1      21.177  14.089   4.642  0.00  0.00    +0.379 N 
ATOM     24  C   UNL     1      19.722  14.067   4.432  0.00  0.00    -0.096 C 
ATOM     25  H   UNL     1      21.512  15.150   4.576  0.00  0.00    -0.082 HD
ATOM     26  C   UNL     1      21.591  13.559   6.008  0.00  0.00    -0.064 C 
ATOM     27  C   UNL     1      23.135  13.613   6.177  0.00  0.00    +0.066 C 
ENDBRANCH  19  20
ENDBRANCH  18  19
ENDBRANCH  14  15
ENDBRANCH  12  13
TORSDOF 6
ENDMDL
MODEL 2
REMARK VINA RESULT:      -9.7      1.981      2.482
REMARK  Name = C:\Users\Docking\Desktop\test protocol\1iep_ligandH.pdb
REMARK  8 active torsions:
REMARK  status: ('A' for Active; 'I' for Inactive)
REMARK    1  A    between atoms: _5  and  _11
REMARK    2  A    between atoms: _19  and  _21
REMARK    3  A    between atoms: _22  and  _66
REMARK    4  A    between atoms: _27  and  _30
REMARK    5  A    between atoms: _32  and  _33
REMARK    6  A    between atoms: _38  and  _43
REMARK    7  A    between atoms: _43  and  _46
REMARK    8  A    between atoms: _53  and  _55
REMARK                            x       y       z     vdW  Elec       q    Type
REMARK                         _______ _______ _______ _____ _____    ______ ____
ROOT
ATOM     10  C   UNL     1      30.858   6.364   5.894  0.00  0.00    +0.038 A 
ATOM     11  C   UNL     1      29.641   7.028   5.594  0.00  0.00    +0.047 A 
ATOM     12  C   UNL     1      29.629   8.272   4.841  0.00  0.00    +0.035 A 
ATOM     32  C   UNL     1      30.874   8.811   4.405  0.00  0.00    +0.024 A 
ATOM     33  C   UNL     1      32.121   8.150   4.702  0.00  0.00    +0.007 A 
ATOM     34  C   UNL     1      32.139   6.924   5.447  0.00  0.00    -0.029 A 
ATOM     35  C   UNL     1      33.506   6.262   5.742  0.00  0.00    +0.045 C 
ENDROOT
BRANCH  10   9
ATOM      4  C   UNL     1      30.701   1.575   6.165  0.00  0.00    +0.077 A 
ATOM      5  C   UNL     1      30.684   1.436   4.738  0.00  0.00    +0.048 A 
ATOM      6  C   UNL     1      30.709   2.621   3.970  0.00  0.00    +0.116 A 
ATOM      7  N   UNL     1      30.749   3.849   4.594  0.00  0.00    -0.223 NA
ATOM      8  C   UNL     1      30.763   3.948   5.973  0.00  0.00    +0.220 A 
ATOM      9  N   UNL     1      30.811   5.173   6.621  0.00  0.00    -0.283 N 
ATOM     36  H   UNL     1      30.813   5.204   7.641  0.00  0.00    +0.155 HD
ATOM     37  N   UNL     1      30.738   2.831   6.729  0.00  0.00    -0.214 NA
BRANCH   4   3
ATOM      1  C   UNL     1      30.331  -2.023   7.654  0.00  0.00    +0.020 A 
ATOM      2  C   UNL     1      30.334  -0.939   6.700  0.00  0.00    +0.013 A 
ATOM      3  C   UNL     1      30.682   0.415   7.112  0.00  0.00    +0.019 A 
ATOM     38  C   UNL     1      31.026   0.640   8.508  0.00  0.00    +0.120 A 
ATOM     39  N   UNL     1      31.013  -0.424   9.405  0.00  0.00    -0.263 NA
ATOM     40  C   UNL     1      30.678  -1.731   9.020  0.00  0.00    +0.111 A 
ENDBRANCH   4   3
ENDBRANCH  10   9
BRANCH  12  13
ATOM     13  N   UNL     1      28.425   8.995   4.513  0.00  0.00    -0.281 N 
ATOM     14  C   UNL     1      27.501   9.550   5.384  0.00  0.00    +0.248 C 
ATOM     30  O   UNL     1      27.459   9.323   6.584  0.00  0.00    -0.270 OA
ATOM     31  H   UNL     1      28.230   9.112   3.519  0.00  0.00    +0.155 HD
BRANCH  14  15
ATOM     15  C   UNL     1      26.466  10.481   4.841  0.00  0.00    +0.037 A 
ATOM     16  C   UNL     1      25.346  10.938   5.668  0.00  0.00    +0.013 A 
ATOM     17  C   UNL     1      24.351  11.822   5.114  0.00  0.00    +0.005 A 
ATOM     18  C   UNL     1      24.474  12.257   3.725  0.00  0.00    -0.033 A 
ATOM     28  C   UNL     1      25.598  11.793   2.928  0.00  0.00    +0.005 A 
ATOM     29  C   UNL     1      26.574  10.926   3.467  0.00  0.00    +0.013 A 
BRANCH  18  19
ATOM     19  C   UNL     1      23.448  13.183   3.045  0.00  0.00    +0.119 C 
BRANCH  19  20
ATOM     20  N   UNL     1      23.527  14.641   3.361  0.00  0.00    -0.302 NA
ATOM     21  C   UNL     1      22.962  14.959   4.748  0.00  0.00    +0.066 C 
ATOM     22  C   UNL     1      23.073  16.484   5.072  0.00  0.00    -0.064 C 
ATOM     23  N   UNL     1      22.344  17.287   3.993  0.00  0.00    +0.379 N 
ATOM     24  C   UNL     1      22.397  18.718   4.325  0.00  0.00    -0.096 C 
ATOM     25  H   UNL     1      21.274  16.976   4.006  0.00  0.00    -0.082 HD
ATOM     26  C   UNL     1      22.898  16.974   2.610  0.00  0.00    -0.064 C 
ATOM     27  C   UNL     1      22.810  15.452   2.310  0.00  0.00    +0.066 C 
ENDBRANCH  19  20
ENDBRANCH  18  19
ENDBRANCH  14  15
ENDBRANCH  12  13
TORSDOF 6
ENDMDL
MODEL 3
REMARK VINA RESULT:      -9.3      5.363      8.552
REMARK  Name = C:\Users\Docking\Desktop\test protocol\1iep_ligandH.pdb
REMARK  8 active torsions:
REMARK  status: ('A' for Active; 'I' for Inactive)
REMARK    1  A    between atoms: _5  and  _11
REMARK    2  A    between atoms: _19  and  _21
REMARK    3  A    between atoms: _22  and  _66
REMARK    4  A    between atoms: _27  and  _30
REMARK    5  A    between atoms: _32  and  _33
REMARK    6  A    between atoms: _38  and  _43
REMARK    7  A    between atoms: _43  and  _46
REMARK    8  A    between atoms: _53  and  _55
REMARK                            x       y       z     vdW  Elec       q    Type
REMARK                         _______ _______ _______ _____ _____    ______ ____
ROOT
ATOM     10  C   UNL     1      26.414  10.106   4.746  0.00  0.00    +0.038 A 
ATOM     11  C   UNL     1      25.499  10.283   5.815  0.00  0.00    +0.047 A 
ATOM     12  C   UNL     1      24.881  11.576   6.069  0.00  0.00    +0.035 A 
ATOM     32  C   UNL     1      25.216  12.665   5.213  0.00  0.00    +0.024 A 
ATOM     33  C   UNL     1      26.146  12.502   4.123  0.00  0.00    +0.007 A 
ATOM     34  C   UNL     1      26.760  11.230   3.869  0.00  0.00    -0.029 A 
ATOM     35  C   UNL     1      27.754  11.115   2.690  0.00  0.00    +0.045 C 
ENDROOT
BRANCH  10   9
ATOM      4  C   UNL     1      29.994   6.945   5.228  0.00  0.00    +0.077 A 
ATOM      5  C   UNL     1      30.822   7.897   5.909  0.00  0.00    +0.048 A 
ATOM      6  C   UNL     1      30.292   9.192   6.110  0.00  0.00    +0.116 A 
ATOM      7  N   UNL     1      29.027   9.499   5.658  0.00  0.00    -0.223 NA
ATOM      8  C   UNL     1      28.255   8.558   5.003  0.00  0.00    +0.220 A 
ATOM      9  N   UNL     1      26.977   8.843   4.547  0.00  0.00    -0.283 N 
ATOM     36  H   UNL     1      26.443   8.123   4.062  0.00  0.00    +0.155 HD
ATOM     37  N   UNL     1      28.739   7.315   4.798  0.00  0.00    -0.214 NA
BRANCH   4   3
ATOM      1  C   UNL     1      30.764   3.577   3.393  0.00  0.00    +0.020 A 
ATOM      2  C   UNL     1      30.348   4.943   3.613  0.00  0.00    +0.013 A 
ATOM      3  C   UNL     1      30.411   5.535   4.944  0.00  0.00    +0.019 A 
ATOM     38  C   UNL     1      30.904   4.712   6.038  0.00  0.00    +0.120 A 
ATOM     39  N   UNL     1      31.297   3.399   5.795  0.00  0.00    -0.263 NA
ATOM     40  C   UNL     1      31.239   2.818   4.520  0.00  0.00    +0.111 A 
ENDBRANCH   4   3
ENDBRANCH  10   9
BRANCH  12  13
ATOM     13  N   UNL     1      23.950  11.818   7.144  0.00  0.00    -0.281 N 
ATOM     14  C   UNL     1      22.708  11.239   7.341  0.00  0.00    +0.248 C 
ATOM     30  O   UNL     1      22.112  10.578   6.503  0.00  0.00    -0.270 OA
ATOM     31  H   UNL     1      24.244  12.500   7.844  0.00  0.00    +0.155 HD
BRANCH  14  15
ATOM     15  C   UNL     1      22.020  11.434   8.654  0.00  0.00    +0.037 A 
ATOM     16  C   UNL     1      21.186  10.382   9.239  0.00  0.00    +0.013 A 
ATOM     17  C   UNL     1      20.521  10.603  10.499  0.00  0.00    +0.005 A 
ATOM     18  C   UNL     1      20.688  11.883  11.182  0.00  0.00    -0.033 A 
ATOM     28  C   UNL     1      21.525  12.908  10.581  0.00  0.00    +0.005 A 
ATOM     29  C   UNL     1      22.179  12.695   9.347  0.00  0.00    +0.013 A 
BRANCH  18  19
ATOM     19  C   UNL     1      19.999  12.214  12.519  0.00  0.00    +0.119 C 
BRANCH  19  20
ATOM     20  N   UNL     1      19.728  11.077  13.449  0.00  0.00    -0.302 NA
ATOM     21  C   UNL     1      18.293  11.100  13.982  0.00  0.00    +0.066 C 
ATOM     22  C   UNL     1      18.021   9.891  14.935  0.00  0.00    -0.064 C 
ATOM     23  N   UNL     1      19.027   9.916  16.087  0.00  0.00    +0.379 N 
ATOM     24  C   UNL     1      18.737   8.814  17.016  0.00  0.00    -0.096 C 
ATOM     25  H   UNL     1      18.883  10.872  16.641  0.00  0.00    -0.082 HD
ATOM     26  C   UNL     1      20.457   9.896  15.565  0.00  0.00    -0.064 C 
ATOM     27  C   UNL     1      20.708  11.084  14.596  0.00  0.00    +0.066 C 
ENDBRANCH  19  20
ENDBRANCH  18  19
ENDBRANCH  14  15
ENDBRANCH  12  13
TORSDOF 6
ENDMDL
MODEL 4
REMARK VINA RESULT:      -8.9      3.760     12.572
REMARK  Name = C:\Users\Docking\Desktop\test protocol\1iep_ligandH.pdb
REMARK  8 active torsions:
REMARK  status: ('A' for Active; 'I' for Inactive)
REMARK    1  A    between atoms: _5  and  _11
REMARK    2  A    between atoms: _19  and  _21
REMARK    3  A    between atoms: _22  and  _66
REMARK    4  A    between atoms: _27  and  _30
REMARK    5  A    between atoms: _32  and  _33
REMARK    6  A    between atoms: _38  and  _43
REMARK    7  A    between atoms: _43  and  _46
REMARK    8  A    between atoms: _53  and  _55
REMARK                            x       y       z     vdW  Elec       q    Type
REMARK                         _______ _______ _______ _____ _____    ______ ____
ROOT
ATOM     10  C   UNL     1      22.595  11.881   5.915  0.00  0.00    +0.038 A 
ATOM     11  C   UNL     1      23.808  11.174   5.713  0.00  0.00    +0.047 A 
ATOM     12  C   UNL     1      24.583  11.341   4.494  0.00  0.00    +0.035 A 
ATOM     32  C   UNL     1      24.095  12.241   3.501  0.00  0.00    +0.024 A 
ATOM     33  C   UNL     1      22.864  12.968   3.689  0.00  0.00    +0.007 A 
ATOM     34  C   UNL     1      22.094  12.804   4.889  0.00  0.00    -0.029 A 
ATOM     35  C   UNL     1      20.778  13.604   5.034  0.00  0.00    +0.045 C 
ENDROOT
BRANCH  10   9
ATOM      4  C   UNL     1      21.701  12.885  10.523  0.00  0.00    +0.077 A 
ATOM      5  C   UNL     1      22.742  13.870  10.571  0.00  0.00    +0.048 A 
ATOM      6  C   UNL     1      23.490  14.084   9.391  0.00  0.00    +0.116 A 
ATOM      7  N   UNL     1      23.207  13.360   8.253  0.00  0.00    -0.223 NA
ATOM      8  C   UNL     1      22.197  12.416   8.240  0.00  0.00    +0.220 A 
ATOM      9  N   UNL     1      21.891  11.682   7.104  0.00  0.00    -0.283 N 
ATOM     36  H   UNL     1      21.143  10.990   7.138  0.00  0.00    +0.155 HD
ATOM     37  N   UNL     1      21.470  12.192   9.355  0.00  0.00    -0.214 NA
BRANCH   4   3
ATOM      1  C   UNL     1      20.337  12.422  14.159  0.00  0.00    +0.020 A 
ATOM      2  C   UNL     1      21.224  12.764  13.071  0.00  0.00    +0.013 A 
ATOM      3  C   UNL     1      20.822  12.548  11.687  0.00  0.00    +0.019 A 
ATOM     38  C   UNL     1      19.506  11.979  11.436  0.00  0.00    +0.120 A 
ATOM     39  N   UNL     1      18.675  11.658  12.504  0.00  0.00    -0.263 NA
ATOM     40  C   UNL     1      19.051  11.860  13.840  0.00  0.00    +0.111 A 
ENDBRANCH   4   3
ENDBRANCH  10   9
BRANCH  12  13
ATOM     13  N   UNL     1      25.817  10.644   4.230  0.00  0.00    -0.281 N 
ATOM     14  C   UNL     1      27.071  10.903   4.756  0.00  0.00    +0.248 C 
ATOM     30  O   UNL     1      27.365  11.915   5.375  0.00  0.00    -0.270 OA
ATOM     31  H   UNL     1      25.758   9.864   3.575  0.00  0.00    +0.155 HD
BRANCH  14  15
ATOM     15  C   UNL     1      28.161   9.900   4.554  0.00  0.00    +0.037 A 
ATOM     16  C   UNL     1      29.400  10.253   3.857  0.00  0.00    +0.013 A 
ATOM     17  C   UNL     1      30.427   9.262   3.660  0.00  0.00    +0.005 A 
ATOM     18  C   UNL     1      30.221   7.906   4.165  0.00  0.00    -0.033 A 
ATOM     28  C   UNL     1      28.984   7.584   4.858  0.00  0.00    +0.005 A 
ATOM     29  C   UNL     1      27.974   8.553   5.051  0.00  0.00    +0.013 A 
BRANCH  18  19
ATOM     19  C   UNL     1      31.254   6.779   3.982  0.00  0.00    +0.119 C 
BRANCH  19  20
ATOM     20  N   UNL     1      30.850   5.405   4.405  0.00  0.00    -0.302 NA
ATOM     21  C   UNL     1      31.667   4.909   5.601  0.00  0.00    +0.066 C 
ATOM     22  C   UNL     1      31.215   3.480   6.045  0.00  0.00    -0.064 C 
ATOM     23  N   UNL     1      31.345   2.517   4.863  0.00  0.00    +0.379 N 
ATOM     24  C   UNL     1      30.977   1.160   5.293  0.00  0.00    -0.096 C 
ATOM     25  H   UNL     1      32.418   2.496   4.561  0.00  0.00    -0.082 HD
ATOM     26  C   UNL     1      30.538   3.004   3.669  0.00  0.00    -0.064 C 
ATOM     27  C   UNL     1      30.974   4.437   3.254  0.00  0.00    +0.066 C 
ENDBRANCH  19  20
ENDBRANCH  18  19
ENDBRANCH  14  15
ENDBRANCH  12  13
TORSDOF 6
ENDMDL
MODEL 5
REMARK VINA RESULT:      -8.6     10.067     13.072
REMARK  Name = C:\Users\Docking\Desktop\test protocol\1iep_ligandH.pdb
REMARK  8 active torsions:
REMARK  status: ('A' for Active; 'I' for Inactive)
REMARK    1  A    between atoms: _5  and  _11
REMARK    2  A    between atoms: _19  and  _21
REMARK    3  A    between atoms: _22  and  _66
REMARK    4  A    between atoms: _27  and  _30
REMARK    5  A    between atoms: _32  and  _33
REMARK    6  A    between atoms: _38  and  _43
REMARK    7  A    between atoms: _43  and  _46
REMARK    8  A    between atoms: _53  and  _55
REMARK                            x       y       z     vdW  Elec       q    Type
REMARK                         _______ _______ _______ _____ _____    ______ ____
ROOT
ATOM     10  C   UNL     1      20.098   9.612  16.442  0.00  0.00    +0.038 A 
ATOM     11  C   UNL     1      20.587   9.795  15.123  0.00  0.00    +0.047 A 
ATOM     12  C   UNL     1      19.699  10.184  14.038  0.00  0.00    +0.035 A 
ATOM     32  C   UNL     1      18.318  10.380  14.333  0.00  0.00    +0.024 A 
ATOM     33  C   UNL     1      17.804  10.197  15.668  0.00  0.00    +0.007 A 
ATOM     34  C   UNL     1      18.675   9.811  16.741  0.00  0.00    -0.029 A 
ATOM     35  C   UNL     1      18.068   9.623  18.151  0.00  0.00    +0.045 C 
ENDROOT
BRANCH  10   9
ATOM      4  C   UNL     1      22.654   6.321  18.824  0.00  0.00    +0.077 A 
ATOM      5  C   UNL     1      22.137   5.252  18.019  0.00  0.00    +0.048 A 
ATOM      6  C   UNL     1      21.210   5.590  17.008  0.00  0.00    +0.116 A 
ATOM      7  N   UNL     1      20.836   6.903  16.823  0.00  0.00    -0.223 NA
ATOM      8  C   UNL     1      21.352   7.910  17.618  0.00  0.00    +0.220 A 
ATOM      9  N   UNL     1      20.995   9.239  17.445  0.00  0.00    -0.283 N 
ATOM     36  H   UNL     1      21.393   9.951  18.056  0.00  0.00    +0.155 HD
ATOM     37  N   UNL     1      22.237   7.613  18.591  0.00  0.00    -0.214 NA
BRANCH   4   3
ATOM      1  C   UNL     1      25.985   5.771  20.798  0.00  0.00    +0.020 A 
ATOM      2  C   UNL     1      25.072   5.958  19.695  0.00  0.00    +0.013 A 
ATOM      3  C   UNL     1      23.643   6.124  19.930  0.00  0.00    +0.019 A 
ATOM     38  C   UNL     1      23.167   6.097  21.305  0.00  0.00    +0.120 A 
ATOM     39  N   UNL     1      24.070   5.914  22.348  0.00  0.00    -0.263 NA
ATOM     40  C   UNL     1      25.447   5.751  22.133  0.00  0.00    +0.111 A 
ENDBRANCH   4   3
ENDBRANCH  10   9
BRANCH  12  13
ATOM     13  N   UNL     1      20.136  10.377  12.678  0.00  0.00    -0.281 N 
ATOM     14  C   UNL     1      20.325  11.574  12.006  0.00  0.00    +0.248 C 
ATOM     30  O   UNL     1      19.939  12.661  12.408  0.00  0.00    -0.270 OA
ATOM     31  H   UNL     1      20.330   9.529  12.146  0.00  0.00    +0.155 HD
BRANCH  14  15
ATOM     15  C   UNL     1      21.032  11.558  10.689  0.00  0.00    +0.037 A 
ATOM     16  C   UNL     1      21.785  12.723  10.217  0.00  0.00    +0.013 A 
ATOM     17  C   UNL     1      22.444  12.688   8.936  0.00  0.00    +0.005 A 
ATOM     18  C   UNL     1      22.353  11.481   8.117  0.00  0.00    -0.033 A 
ATOM     28  C   UNL     1      21.603  10.338   8.611  0.00  0.00    +0.005 A 
ATOM     29  C   UNL     1      20.956  10.370   9.867  0.00  0.00    +0.013 A 
BRANCH  18  19
ATOM     19  C   UNL     1      23.006  11.362   6.727  0.00  0.00    +0.119 C 
BRANCH  19  20
ATOM     20  N   UNL     1      24.469  11.065   6.682  0.00  0.00    -0.302 NA
ATOM     21  C   UNL     1      25.278  12.243   6.133  0.00  0.00    +0.066 C 
ATOM     22  C   UNL     1      26.809  11.922   6.114  0.00  0.00    -0.064 C 
ATOM     23  N   UNL     1      27.053  10.662   5.282  0.00  0.00    +0.379 N 
ATOM     24  C   UNL     1      28.496  10.391   5.215  0.00  0.00    -0.096 C 
ATOM     25  H   UNL     1      26.698  10.867   4.246  0.00  0.00    -0.082 HD
ATOM     26  C   UNL     1      26.250   9.487   5.821  0.00  0.00    -0.064 C 
ATOM     27  C   UNL     1      24.733   9.826   5.862  0.00  0.00    +0.066 C 
ENDBRANCH  19  20
ENDBRANCH  18  19
ENDBRANCH  14  15
ENDBRANCH  12  13
TORSDOF 6
ENDMDL
