MODEL 1
REMARK VINA RESULT:      -9.1      0.000      0.000
REMARK  Name = C:\Users\Docking\Desktop\test protocol\1iep_ligandH.pdb
REMARK  8 active torsions:
REMARK  status: ('A' for Active; 'I' for Inactive)
REMARK    1  A    between atoms: _5  and  _11
REMARK    2  A    between atoms: _19  and  _21
REMARK    3  A    between atoms: _22  and  _66
REMARK    4  A    between atoms: _27  and  _30
REMARK    5  A    between atoms: _32  and  _33
REMARK    6  A    between atoms: _38  and  _43
REMARK    7  A    between atoms: _43  and  _46
REMARK    8  A    between atoms: _53  and  _55
REMARK                            x       y       z     vdW  Elec       q    Type
REMARK                         _______ _______ _______ _____ _____    ______ ____
ROOT
ATOM     10  C   UNL     1      27.147  10.163  20.926  0.00  0.00    +0.038 A 
ATOM     11  C   UNL     1      28.091  10.274  21.979  0.00  0.00    +0.047 A 
ATOM     12  C   UNL     1      28.184   9.258  23.017  0.00  0.00    +0.035 A 
ATOM     32  C   UNL     1      27.301   8.141  22.949  0.00  0.00    +0.024 A 
ATOM     33  C   UNL     1      26.335   8.013  21.886  0.00  0.00    +0.007 A 
ATOM     34  C   UNL     1      26.238   9.013  20.862  0.00  0.00    -0.029 A 
ATOM     35  C   UNL     1      25.179   8.827  19.750  0.00  0.00    +0.045 C 
ENDROOT
BRANCH  10   9
ATOM      4  C   UNL     1      28.582  12.114  16.782  0.00  0.00    +0.077 A 
ATOM      5  C   UNL     1      29.521  11.056  16.541  0.00  0.00    +0.048 A 
ATOM      6  C   UNL     1      29.609  10.033  17.512  0.00  0.00    +0.116 A 
ATOM      7  N   UNL     1      28.812  10.074  18.635  0.00  0.00    -0.223 NA
ATOM      8  C   UNL     1      27.918  11.110  18.838  0.00  0.00    +0.220 A 
ATOM      9  N   UNL     1      27.102  11.167  19.957  0.00  0.00    -0.283 N 
ATOM     36  H   UNL     1      26.461  11.952  20.073  0.00  0.00    +0.155 HD
ATOM     37  N   UNL     1      27.816  12.099  17.927  0.00  0.00    -0.214 NA
BRANCH   4   3
ATOM      1  C   UNL     1      27.318  15.469  15.218  0.00  0.00    +0.020 A 
ATOM      2  C   UNL     1      27.486  14.382  16.155  0.00  0.00    +0.013 A 
ATOM      3  C   UNL     1      28.370  13.264  15.848  0.00  0.00    +0.019 A 
ATOM     38  C   UNL     1      29.076  13.278  14.575  0.00  0.00    +0.120 A 
ATOM     39  N   UNL     1      28.893  14.338  13.692  0.00  0.00    -0.263 NA
ATOM     40  C   UNL     1      28.043  15.417  13.976  0.00  0.00    +0.111 A 
ENDBRANCH   4   3
ENDBRANCH  10   9
BRANCH  12  13
ATOM     13  N   UNL     1      29.116   9.321  24.115  0.00  0.00    -0.281 N 
ATOM     14  C   UNL     1      30.257   8.560  24.308  0.00  0.00    +0.248 C 
ATOM     30  O   UNL     1      30.535   7.556  23.668  0.00  0.00    -0.270 OA
ATOM     31  H   UNL     1      28.910  10.011  24.838  0.00  0.00    +0.155 HD
BRANCH  14  15
ATOM     15  C   UNL     1      31.223   8.963  25.375  0.00  0.00    +0.037 A 
ATOM     16  C   UNL     1      30.992  10.153  26.198  0.00  0.00    +0.013 A 
ATOM     17  C   UNL     1      31.948  10.529  27.209  0.00  0.00    +0.005 A 
ATOM     18  C   UNL     1      33.143   9.712  27.404  0.00  0.00    -0.033 A 
ATOM     28  C   UNL     1      33.344   8.534  26.577  0.00  0.00    +0.005 A 
ATOM     29  C   UNL     1      32.410   8.163  25.584  0.00  0.00    +0.013 A 
BRANCH  18  19
ATOM     19  C   UNL     1      34.227  10.051  28.445  0.00  0.00    +0.119 C 
BRANCH  19  20
ATOM     20  N   UNL     1      34.859  11.401  28.360  0.00  0.00    -0.302 NA
ATOM     21  C   UNL     1      35.460  11.667  26.977  0.00  0.00    +0.066 C 
ATOM     22  C   UNL     1      36.098  13.092  26.898  0.00  0.00    -0.064 C 
ATOM     23  N   UNL     1      37.163  13.232  27.987  0.00  0.00    +0.379 N 
ATOM     24  C   UNL     1      37.805  14.550  27.879  0.00  0.00    -0.096 C 
ATOM     25  H   UNL     1      37.943  12.459  27.797  0.00  0.00    -0.082 HD
ATOM     26  C   UNL     1      36.575  12.966  29.365  0.00  0.00    -0.064 C 
ATOM     27  C   UNL     1      35.918  11.559  29.424  0.00  0.00    +0.066 C 
ENDBRANCH  19  20
ENDBRANCH  18  19
ENDBRANCH  14  15
ENDBRANCH  12  13
TORSDOF 6
ENDMDL
MODEL 2
REMARK VINA RESULT:      -8.6      1.601     11.473
REMARK  Name = C:\Users\Docking\Desktop\test protocol\1iep_ligandH.pdb
REMARK  8 active torsions:
REMARK  status: ('A' for Active; 'I' for Inactive)
REMARK    1  A    between atoms: _5  and  _11
REMARK    2  A    between atoms: _19  and  _21
REMARK    3  A    between atoms: _22  and  _66
REMARK    4  A    between atoms: _27  and  _30
REMARK    5  A    between atoms: _32  and  _33
REMARK    6  A    between atoms: _38  and  _43
REMARK    7  A    between atoms: _43  and  _46
REMARK    8  A    between atoms: _53  and  _55
REMARK                            x       y       z     vdW  Elec       q    Type
REMARK                         _______ _______ _______ _____ _____    ______ ____
ROOT
ATOM     10  C   UNL     1      31.842   9.421  26.882  0.00  0.00    +0.038 A 
ATOM     11  C   UNL     1      31.088   9.678  25.709  0.00  0.00    +0.047 A 
ATOM     12  C   UNL     1      30.266   8.643  25.101  0.00  0.00    +0.035 A 
ATOM     32  C   UNL     1      30.234   7.357  25.716  0.00  0.00    +0.024 A 
ATOM     33  C   UNL     1      30.996   7.078  26.908  0.00  0.00    +0.007 A 
ATOM     34  C   UNL     1      31.810   8.095  27.511  0.00  0.00    -0.029 A 
ATOM     35  C   UNL     1      32.611   7.737  28.784  0.00  0.00    +0.045 C 
ENDROOT
BRANCH  10   9
ATOM      4  C   UNL     1      35.869  12.022  27.108  0.00  0.00    +0.077 A 
ATOM      5  C   UNL     1      36.499  11.246  26.079  0.00  0.00    +0.048 A 
ATOM      6  C   UNL     1      35.755  10.181  25.522  0.00  0.00    +0.116 A 
ATOM      7  N   UNL     1      34.478   9.922  25.969  0.00  0.00    -0.223 NA
ATOM      8  C   UNL     1      33.901  10.689  26.964  0.00  0.00    +0.220 A 
ATOM      9  N   UNL     1      32.614  10.451  27.423  0.00  0.00    -0.283 N 
ATOM     36  H   UNL     1      32.227  11.035  28.164  0.00  0.00    +0.155 HD
ATOM     37  N   UNL     1      34.591  11.711  27.513  0.00  0.00    -0.214 NA
BRANCH   4   3
ATOM      1  C   UNL     1      38.313  14.954  27.968  0.00  0.00    +0.020 A 
ATOM      2  C   UNL     1      37.718  13.837  27.269  0.00  0.00    +0.013 A 
ATOM      3  C   UNL     1      36.526  13.182  27.791  0.00  0.00    +0.019 A 
ATOM     38  C   UNL     1      35.954  13.685  29.031  0.00  0.00    +0.120 A 
ATOM     39  N   UNL     1      36.548  14.761  29.682  0.00  0.00    -0.263 NA
ATOM     40  C   UNL     1      37.697  15.399  29.191  0.00  0.00    +0.111 A 
ENDBRANCH   4   3
ENDBRANCH  10   9
BRANCH  12  13
ATOM     13  N   UNL     1      29.485   8.843  23.906  0.00  0.00    -0.281 N 
ATOM     14  C   UNL     1      28.396   9.681  23.731  0.00  0.00    +0.248 C 
ATOM     30  O   UNL     1      27.793  10.231  24.641  0.00  0.00    -0.270 OA
ATOM     31  H   UNL     1      29.768   8.300  23.090  0.00  0.00    +0.155 HD
BRANCH  14  15
ATOM     15  C   UNL     1      27.895   9.935  22.345  0.00  0.00    +0.037 A 
ATOM     16  C   UNL     1      26.816   9.130  21.768  0.00  0.00    +0.013 A 
ATOM     17  C   UNL     1      26.364   9.384  20.423  0.00  0.00    +0.005 A 
ATOM     18  C   UNL     1      26.991  10.451  19.646  0.00  0.00    -0.033 A 
ATOM     28  C   UNL     1      28.056  11.237  20.245  0.00  0.00    +0.005 A 
ATOM     29  C   UNL     1      28.503  10.990  21.563  0.00  0.00    +0.013 A 
BRANCH  18  19
ATOM     19  C   UNL     1      26.587  10.778  18.197  0.00  0.00    +0.119 C 
BRANCH  19  20
ATOM     20  N   UNL     1      27.537  11.602  17.391  0.00  0.00    -0.302 NA
ATOM     21  C   UNL     1      27.014  13.022  17.161  0.00  0.00    +0.066 C 
ATOM     22  C   UNL     1      28.030  13.877  16.336  0.00  0.00    -0.064 C 
ATOM     23  N   UNL     1      28.314  13.181  15.003  0.00  0.00    +0.379 N 
ATOM     24  C   UNL     1      29.224  14.011  14.201  0.00  0.00    -0.096 C 
ATOM     25  H   UNL     1      27.349  13.105  14.450  0.00  0.00    -0.082 HD
ATOM     26  C   UNL     1      28.832  11.767  15.223  0.00  0.00    -0.064 C 
ATOM     27  C   UNL     1      27.828  10.935  16.069  0.00  0.00    +0.066 C 
ENDBRANCH  19  20
ENDBRANCH  18  19
ENDBRANCH  14  15
ENDBRANCH  12  13
TORSDOF 6
ENDMDL
MODEL 3
REMARK VINA RESULT:      -8.3      3.215      5.808
REMARK  Name = C:\Users\Docking\Desktop\test protocol\1iep_ligandH.pdb
REMARK  8 active torsions:
REMARK  status: ('A' for Active; 'I' for Inactive)
REMARK    1  A    between atoms: _5  and  _11
REMARK    2  A    between atoms: _19  and  _21
REMARK    3  A    between atoms: _22  and  _66
REMARK    4  A    between atoms: _27  and  _30
REMARK    5  A    between atoms: _32  and  _33
REMARK    6  A    between atoms: _38  and  _43
REMARK    7  A    between atoms: _43  and  _46
REMARK    8  A    between atoms: _53  and  _55
REMARK                            x       y       z     vdW  Elec       q    Type
REMARK                         _______ _______ _______ _____ _____    ______ ____
ROOT
ATOM     10  C   UNL     1      29.572  10.265  25.399  0.00  0.00    +0.038 A 
ATOM     11  C   UNL     1      30.893  10.782  25.401  0.00  0.00    +0.047 A 
ATOM     12  C   UNL     1      31.800  10.524  26.509  0.00  0.00    +0.035 A 
ATOM     32  C   UNL     1      31.329   9.733  27.597  0.00  0.00    +0.024 A 
ATOM     33  C   UNL     1      29.990   9.200  27.611  0.00  0.00    +0.007 A 
ATOM     34  C   UNL     1      29.090   9.453  26.522  0.00  0.00    -0.029 A 
ATOM     35  C   UNL     1      27.663   8.862  26.594  0.00  0.00    +0.045 C 
ENDROOT
BRANCH  10   9
ATOM      4  C   UNL     1      27.782   9.227  21.068  0.00  0.00    +0.077 A 
ATOM      5  C   UNL     1      28.585   8.044  20.954  0.00  0.00    +0.048 A 
ATOM      6  C   UNL     1      29.451   7.742  22.029  0.00  0.00    +0.116 A 
ATOM      7  N   UNL     1      29.501   8.568  23.131  0.00  0.00    -0.223 NA
ATOM      8  C   UNL     1      28.715   9.703  23.208  0.00  0.00    +0.220 A 
ATOM      9  N   UNL     1      28.744  10.544  24.309  0.00  0.00    -0.283 N 
ATOM     36  H   UNL     1      28.153  11.375  24.325  0.00  0.00    +0.155 HD
ATOM     37  N   UNL     1      27.881  10.014  22.194  0.00  0.00    -0.214 NA
BRANCH   4   3
ATOM      1  C   UNL     1      26.156  11.130  18.062  0.00  0.00    +0.020 A 
ATOM      2  C   UNL     1      27.124  10.732  19.057  0.00  0.00    +0.013 A 
ATOM      3  C   UNL     1      26.816   9.679  20.017  0.00  0.00    +0.019 A 
ATOM     38  C   UNL     1      25.509   9.043  19.941  0.00  0.00    +0.120 A 
ATOM     39  N   UNL     1      24.596   9.449  18.972  0.00  0.00    -0.263 NA
ATOM     40  C   UNL     1      24.881  10.462  18.045  0.00  0.00    +0.111 A 
ENDBRANCH   4   3
ENDBRANCH  10   9
BRANCH  12  13
ATOM     13  N   UNL     1      33.149  11.030  26.571  0.00  0.00    -0.281 N 
ATOM     14  C   UNL     1      33.620  12.256  26.129  0.00  0.00    +0.248 C 
ATOM     30  O   UNL     1      32.989  13.023  25.417  0.00  0.00    -0.270 OA
ATOM     31  H   UNL     1      33.840  10.409  26.991  0.00  0.00    +0.155 HD
BRANCH  14  15
ATOM     15  C   UNL     1      34.995  12.685  26.525  0.00  0.00    +0.037 A 
ATOM     16  C   UNL     1      36.111  11.736  26.549  0.00  0.00    +0.013 A 
ATOM     17  C   UNL     1      37.424  12.173  26.951  0.00  0.00    +0.005 A 
ATOM     18  C   UNL     1      37.630  13.568  27.331  0.00  0.00    -0.033 A 
ATOM     28  C   UNL     1      36.507  14.490  27.294  0.00  0.00    +0.005 A 
ATOM     29  C   UNL     1      35.218  14.065  26.901  0.00  0.00    +0.013 A 
BRANCH  18  19
ATOM     19  C   UNL     1      38.992  14.117  27.794  0.00  0.00    +0.119 C 
BRANCH  19  20
ATOM     20  N   UNL     1      39.503  13.653  29.118  0.00  0.00    -0.302 NA
ATOM     21  C   UNL     1      38.603  14.106  30.271  0.00  0.00    +0.066 C 
ATOM     22  C   UNL     1      39.140  13.593  31.647  0.00  0.00    -0.064 C 
ATOM     23  N   UNL     1      40.572  14.090  31.850  0.00  0.00    +0.379 N 
ATOM     24  C   UNL     1      41.059  13.657  33.168  0.00  0.00    -0.096 C 
ATOM     25  H   UNL     1      40.547  15.204  31.847  0.00  0.00    -0.082 HD
ATOM     26  C   UNL     1      41.473  13.645  30.706  0.00  0.00    -0.064 C 
ATOM     27  C   UNL     1      40.915  14.136  29.341  0.00  0.00    +0.066 C 
ENDBRANCH  19  20
ENDBRANCH  18  19
ENDBRANCH  14  15
ENDBRANCH  12  13
TORSDOF 6
ENDMDL
MODEL 4
REMARK VINA RESULT:      -8.2      5.576     10.566
REMARK  Name = C:\Users\Docking\Desktop\test protocol\1iep_ligandH.pdb
REMARK  8 active torsions:
REMARK  status: ('A' for Active; 'I' for Inactive)
REMARK    1  A    between atoms: _5  and  _11
REMARK    2  A    between atoms: _19  and  _21
REMARK    3  A    between atoms: _22  and  _66
REMARK    4  A    between atoms: _27  and  _30
REMARK    5  A    between atoms: _32  and  _33
REMARK    6  A    between atoms: _38  and  _43
REMARK    7  A    between atoms: _43  and  _46
REMARK    8  A    between atoms: _53  and  _55
REMARK                            x       y       z     vdW  Elec       q    Type
REMARK                         _______ _______ _______ _____ _____    ______ ____
ROOT
ATOM     10  C   UNL     1      34.639  11.594  26.935  0.00  0.00    +0.038 A 
ATOM     11  C   UNL     1      34.834  12.290  28.156  0.00  0.00    +0.047 A 
ATOM     12  C   UNL     1      36.118  12.267  28.838  0.00  0.00    +0.035 A 
ATOM     32  C   UNL     1      37.184  11.526  28.248  0.00  0.00    +0.024 A 
ATOM     33  C   UNL     1      37.003  10.812  27.009  0.00  0.00    +0.007 A 
ATOM     34  C   UNL     1      35.737  10.829  26.332  0.00  0.00    -0.029 A 
ATOM     35  C   UNL     1      35.598  10.040  25.010  0.00  0.00    +0.045 C 
ENDROOT
BRANCH  10   9
ATOM      4  C   UNL     1      30.192   9.929  26.235  0.00  0.00    +0.077 A 
ATOM      5  C   UNL     1      30.393   8.839  27.146  0.00  0.00    +0.048 A 
ATOM      6  C   UNL     1      31.657   8.738  27.768  0.00  0.00    +0.116 A 
ATOM      7  N   UNL     1      32.640   9.665  27.493  0.00  0.00    -0.223 NA
ATOM      8  C   UNL     1      32.414  10.703  26.608  0.00  0.00    +0.220 A 
ATOM      9  N   UNL     1      33.385  11.650  26.323  0.00  0.00    -0.283 N 
ATOM     36  H   UNL     1      33.181  12.396  25.659  0.00  0.00    +0.155 HD
ATOM     37  N   UNL     1      31.215  10.820  26.000  0.00  0.00    -0.214 NA
BRANCH   4   3
ATOM      1  C   UNL     1      26.401  10.426  25.406  0.00  0.00    +0.020 A 
ATOM      2  C   UNL     1      27.610  10.187  26.161  0.00  0.00    +0.013 A 
ATOM      3  C   UNL     1      28.909  10.171  25.501  0.00  0.00    +0.019 A 
ATOM     38  C   UNL     1      28.952  10.405  24.065  0.00  0.00    +0.120 A 
ATOM     39  N   UNL     1      27.771  10.631  23.365  0.00  0.00    -0.263 NA
ATOM     40  C   UNL     1      26.515  10.646  23.989  0.00  0.00    +0.111 A 
ENDBRANCH   4   3
ENDBRANCH  10   9
BRANCH  12  13
ATOM     13  N   UNL     1      36.373  12.948  30.083  0.00  0.00    -0.281 N 
ATOM     14  C   UNL     1      36.609  14.298  30.283  0.00  0.00    +0.248 C 
ATOM     30  O   UNL     1      36.851  15.097  29.390  0.00  0.00    -0.270 OA
ATOM     31  H   UNL     1      36.380  12.363  30.919  0.00  0.00    +0.155 HD
BRANCH  14  15
ATOM     15  C   UNL     1      36.590  14.836  31.677  0.00  0.00    +0.037 A 
ATOM     16  C   UNL     1      37.150  14.072  32.795  0.00  0.00    +0.013 A 
ATOM     17  C   UNL     1      37.102  14.607  34.132  0.00  0.00    +0.005 A 
ATOM     18  C   UNL     1      36.493  15.915  34.359  0.00  0.00    -0.033 A 
ATOM     28  C   UNL     1      35.950  16.654  33.232  0.00  0.00    +0.005 A 
ATOM     29  C   UNL     1      35.993  16.133  31.919  0.00  0.00    +0.013 A 
BRANCH  18  19
ATOM     19  C   UNL     1      36.380  16.555  35.756  0.00  0.00    +0.119 C 
BRANCH  19  20
ATOM     20  N   UNL     1      37.555  17.334  36.249  0.00  0.00    -0.302 NA
ATOM     21  C   UNL     1      38.523  16.465  37.056  0.00  0.00    +0.066 C 
ATOM     22  C   UNL     1      39.757  17.291  37.545  0.00  0.00    -0.064 C 
ATOM     23  N   UNL     1      39.274  18.481  38.376  0.00  0.00    +0.379 N 
ATOM     24  C   UNL     1      40.434  19.227  38.885  0.00  0.00    -0.096 C 
ATOM     25  H   UNL     1      38.720  18.076  39.255  0.00  0.00    -0.082 HD
ATOM     26  C   UNL     1      38.309  19.349  37.581  0.00  0.00    -0.064 C 
ATOM     27  C   UNL     1      37.101  18.512  37.076  0.00  0.00    +0.066 C 
ENDBRANCH  19  20
ENDBRANCH  18  19
ENDBRANCH  14  15
ENDBRANCH  12  13
TORSDOF 6
ENDMDL
MODEL 5
REMARK VINA RESULT:      -8.2     10.093     15.597
REMARK  Name = C:\Users\Docking\Desktop\test protocol\1iep_ligandH.pdb
REMARK  8 active torsions:
REMARK  status: ('A' for Active; 'I' for Inactive)
REMARK    1  A    between atoms: _5  and  _11
REMARK    2  A    between atoms: _19  and  _21
REMARK    3  A    between atoms: _22  and  _66
REMARK    4  A    between atoms: _27  and  _30
REMARK    5  A    between atoms: _32  and  _33
REMARK    6  A    between atoms: _38  and  _43
REMARK    7  A    between atoms: _43  and  _46
REMARK    8  A    between atoms: _53  and  _55
REMARK                            x       y       z     vdW  Elec       q    Type
REMARK                         _______ _______ _______ _____ _____    ______ ____
ROOT
ATOM     10  C   UNL     1      19.450   7.581  25.323  0.00  0.00    +0.038 A 
ATOM     11  C   UNL     1      19.964   7.715  24.008  0.00  0.00    +0.047 A 
ATOM     12  C   UNL     1      21.232   7.110  23.630  0.00  0.00    +0.035 A 
ATOM     32  C   UNL     1      21.950   6.373  24.616  0.00  0.00    +0.024 A 
ATOM     33  C   UNL     1      21.443   6.228  25.958  0.00  0.00    +0.007 A 
ATOM     34  C   UNL     1      20.194   6.824  26.337  0.00  0.00    -0.029 A 
ATOM     35  C   UNL     1      19.702   6.641  27.792  0.00  0.00    +0.045 C 
ENDROOT
BRANCH  10   9
ATOM      4  C   UNL     1      14.651   7.616  25.401  0.00  0.00    +0.077 A 
ATOM      5  C   UNL     1      14.572   6.340  24.749  0.00  0.00    +0.048 A 
ATOM      6  C   UNL     1      15.790   5.712  24.403  0.00  0.00    +0.116 A 
ATOM      7  N   UNL     1      16.991   6.322  24.694  0.00  0.00    -0.223 NA
ATOM      8  C   UNL     1      17.031   7.553  25.322  0.00  0.00    +0.220 A 
ATOM      9  N   UNL     1      18.228   8.182  25.631  0.00  0.00    -0.283 N 
ATOM     36  H   UNL     1      18.215   9.093  26.088  0.00  0.00    +0.155 HD
ATOM     37  N   UNL     1      15.883   8.175  25.661  0.00  0.00    -0.214 NA
BRANCH   4   3
ATOM      1  C   UNL     1      11.259   9.564  25.378  0.00  0.00    +0.020 A 
ATOM      2  C   UNL     1      12.396   8.804  24.911  0.00  0.00    +0.013 A 
ATOM      3  C   UNL     1      13.453   8.403  25.831  0.00  0.00    +0.019 A 
ATOM     38  C   UNL     1      13.327   8.788  27.229  0.00  0.00    +0.120 A 
ATOM     39  N   UNL     1      12.222   9.521  27.650  0.00  0.00    -0.263 NA
ATOM     40  C   UNL     1      11.200   9.914  26.773  0.00  0.00    +0.111 A 
ENDBRANCH   4   3
ENDBRANCH  10   9
BRANCH  12  13
ATOM     13  N   UNL     1      21.808   7.220  22.312  0.00  0.00    -0.281 N 
ATOM     14  C   UNL     1      21.351   6.653  21.134  0.00  0.00    +0.248 C 
ATOM     30  O   UNL     1      20.493   5.785  21.071  0.00  0.00    -0.270 OA
ATOM     31  H   UNL     1      22.654   7.784  22.240  0.00  0.00    +0.155 HD
BRANCH  14  15
ATOM     15  C   UNL     1      21.944   7.104  19.838  0.00  0.00    +0.037 A 
ATOM     16  C   UNL     1      21.705   6.366  18.595  0.00  0.00    +0.013 A 
ATOM     17  C   UNL     1      22.303   6.814  17.362  0.00  0.00    +0.005 A 
ATOM     18  C   UNL     1      23.144   8.008  17.366  0.00  0.00    -0.033 A 
ATOM     28  C   UNL     1      23.360   8.724  18.613  0.00  0.00    +0.005 A 
ATOM     29  C   UNL     1      22.776   8.288  19.823  0.00  0.00    +0.013 A 
BRANCH  18  19
ATOM     19  C   UNL     1      23.839   8.546  16.102  0.00  0.00    +0.119 C 
BRANCH  19  20
ATOM     20  N   UNL     1      23.568   7.834  14.817  0.00  0.00    -0.302 NA
ATOM     21  C   UNL     1      24.796   7.809  13.903  0.00  0.00    +0.066 C 
ATOM     22  C   UNL     1      24.501   7.041  12.574  0.00  0.00    -0.064 C 
ATOM     23  N   UNL     1      23.312   7.693  11.865  0.00  0.00    +0.379 N 
ATOM     24  C   UNL     1      23.069   7.009  10.586  0.00  0.00    -0.096 C 
ATOM     25  H   UNL     1      23.591   8.748  11.637  0.00  0.00    -0.082 HD
ATOM     26  C   UNL     1      22.087   7.724  12.768  0.00  0.00    -0.064 C 
ATOM     27  C   UNL     1      22.400   8.464  14.098  0.00  0.00    +0.066 C 
ENDBRANCH  19  20
ENDBRANCH  18  19
ENDBRANCH  14  15
ENDBRANCH  12  13
TORSDOF 6
ENDMDL
