MODEL 1
REMARK VINA RESULT:      -9.0      0.000      0.000
REMARK  Name = C:\Users\Docking\Desktop\test protocol\1iep_ligandH.pdb
REMARK  8 active torsions:
REMARK  status: ('A' for Active; 'I' for Inactive)
REMARK    1  A    between atoms: _5  and  _11
REMARK    2  A    between atoms: _19  and  _21
REMARK    3  A    between atoms: _22  and  _66
REMARK    4  A    between atoms: _27  and  _30
REMARK    5  A    between atoms: _32  and  _33
REMARK    6  A    between atoms: _38  and  _43
REMARK    7  A    between atoms: _43  and  _46
REMARK    8  A    between atoms: _53  and  _55
REMARK                            x       y       z     vdW  Elec       q    Type
REMARK                         _______ _______ _______ _____ _____    ______ ____
ROOT
ATOM     10  C   UNL     1       7.639  44.132  58.663  0.00  0.00    +0.038 A 
ATOM     11  C   UNL     1       6.387  43.466  58.674  0.00  0.00    +0.047 A 
ATOM     12  C   UNL     1       6.070  42.474  59.691  0.00  0.00    +0.035 A 
ATOM     32  C   UNL     1       7.052  42.187  60.683  0.00  0.00    +0.024 A 
ATOM     33  C   UNL     1       8.331  42.854  60.686  0.00  0.00    +0.007 A 
ATOM     34  C   UNL     1       8.649  43.831  59.685  0.00  0.00    -0.029 A 
ATOM     35  C   UNL     1      10.038  44.510  59.733  0.00  0.00    +0.045 C 
ENDROOT
BRANCH  10   9
ATOM      4  C   UNL     1       7.409  48.588  56.896  0.00  0.00    +0.077 A 
ATOM      5  C   UNL     1       6.706  49.073  58.049  0.00  0.00    +0.048 A 
ATOM      6  C   UNL     1       6.417  48.141  59.071  0.00  0.00    +0.116 A 
ATOM      7  N   UNL     1       6.807  46.826  58.940  0.00  0.00    -0.223 NA
ATOM      8  C   UNL     1       7.481  46.391  57.814  0.00  0.00    +0.220 A 
ATOM      9  N   UNL     1       7.889  45.075  57.664  0.00  0.00    -0.283 N 
ATOM     36  H   UNL     1       8.378  44.792  56.815  0.00  0.00    +0.155 HD
ATOM     37  N   UNL     1       7.768  47.261  56.823  0.00  0.00    -0.214 NA
BRANCH   4   3
ATOM      1  C   UNL     1       7.893  51.667  54.533  0.00  0.00    +0.020 A 
ATOM      2  C   UNL     1       7.504  50.879  55.679  0.00  0.00    +0.013 A 
ATOM      3  C   UNL     1       7.790  49.451  55.733  0.00  0.00    +0.019 A 
ATOM     38  C   UNL     1       8.478  48.847  54.602  0.00  0.00    +0.120 A 
ATOM     39  N   UNL     1       8.839  49.631  53.511  0.00  0.00    -0.263 NA
ATOM     40  C   UNL     1       8.568  51.006  53.447  0.00  0.00    +0.111 A 
ENDBRANCH   4   3
ENDBRANCH  10   9
BRANCH  12  13
ATOM     13  N   UNL     1       4.819  41.760  59.748  0.00  0.00    -0.281 N 
ATOM     14  C   UNL     1       4.597  40.412  59.522  0.00  0.00    +0.248 C 
ATOM     30  O   UNL     1       5.413  39.651  59.024  0.00  0.00    -0.270 OA
ATOM     31  H   UNL     1       3.997  42.317  59.983  0.00  0.00    +0.155 HD
BRANCH  14  15
ATOM     15  C   UNL     1       3.271  39.827  59.888  0.00  0.00    +0.037 A 
ATOM     16  C   UNL     1       2.229  39.616  58.880  0.00  0.00    +0.013 A 
ATOM     17  C   UNL     1       0.953  39.066  59.263  0.00  0.00    +0.005 A 
ATOM     18  C   UNL     1       0.712  38.722  60.662  0.00  0.00    -0.033 A 
ATOM     28  C   UNL     1       1.765  38.937  61.641  0.00  0.00    +0.005 A 
ATOM     29  C   UNL     1       3.017  39.477  61.269  0.00  0.00    +0.013 A 
BRANCH  18  19
ATOM     19  C   UNL     1      -0.627  38.150  61.165  0.00  0.00    +0.119 C 
BRANCH  19  20
ATOM     20  N   UNL     1      -1.602  39.113  61.757  0.00  0.00    -0.302 NA
ATOM     21  C   UNL     1      -3.051  38.657  61.561  0.00  0.00    +0.066 C 
ATOM     22  C   UNL     1      -4.057  39.664  62.207  0.00  0.00    -0.064 C 
ATOM     23  N   UNL     1      -3.841  41.053  61.603  0.00  0.00    +0.379 N 
ATOM     24  C   UNL     1      -4.825  41.990  62.166  0.00  0.00    -0.096 C 
ATOM     25  H   UNL     1      -4.032  40.979  60.508  0.00  0.00    -0.082 HD
ATOM     26  C   UNL     1      -2.403  41.514  61.791  0.00  0.00    -0.064 C 
ATOM     27  C   UNL     1      -1.410  40.491  61.172  0.00  0.00    +0.066 C 
ENDBRANCH  19  20
ENDBRANCH  18  19
ENDBRANCH  14  15
ENDBRANCH  12  13
TORSDOF 6
ENDMDL
MODEL 2
REMARK VINA RESULT:      -8.8      1.794      2.548
REMARK  Name = C:\Users\Docking\Desktop\test protocol\1iep_ligandH.pdb
REMARK  8 active torsions:
REMARK  status: ('A' for Active; 'I' for Inactive)
REMARK    1  A    between atoms: _5  and  _11
REMARK    2  A    between atoms: _19  and  _21
REMARK    3  A    between atoms: _22  and  _66
REMARK    4  A    between atoms: _27  and  _30
REMARK    5  A    between atoms: _32  and  _33
REMARK    6  A    between atoms: _38  and  _43
REMARK    7  A    between atoms: _43  and  _46
REMARK    8  A    between atoms: _53  and  _55
REMARK                            x       y       z     vdW  Elec       q    Type
REMARK                         _______ _______ _______ _____ _____    ______ ____
ROOT
ATOM     10  C   UNL     1       7.682  44.169  58.677  0.00  0.00    +0.038 A 
ATOM     11  C   UNL     1       6.440  43.485  58.689  0.00  0.00    +0.047 A 
ATOM     12  C   UNL     1       6.127  42.512  59.724  0.00  0.00    +0.035 A 
ATOM     32  C   UNL     1       7.102  42.260  60.733  0.00  0.00    +0.024 A 
ATOM     33  C   UNL     1       8.371  42.945  60.735  0.00  0.00    +0.007 A 
ATOM     34  C   UNL     1       8.686  43.905  59.715  0.00  0.00    -0.029 A 
ATOM     35  C   UNL     1      10.064  44.605  59.764  0.00  0.00    +0.045 C 
ENDROOT
BRANCH  10   9
ATOM      4  C   UNL     1       7.450  48.593  56.830  0.00  0.00    +0.077 A 
ATOM      5  C   UNL     1       6.751  49.098  57.976  0.00  0.00    +0.048 A 
ATOM      6  C   UNL     1       6.465  48.186  59.016  0.00  0.00    +0.116 A 
ATOM      7  N   UNL     1       6.853  46.868  58.907  0.00  0.00    -0.223 NA
ATOM      8  C   UNL     1       7.524  46.413  57.787  0.00  0.00    +0.220 A 
ATOM      9  N   UNL     1       7.930  45.093  57.660  0.00  0.00    -0.283 N 
ATOM     36  H   UNL     1       8.416  44.795  56.815  0.00  0.00    +0.155 HD
ATOM     37  N   UNL     1       7.808  47.264  56.780  0.00  0.00    -0.214 NA
BRANCH   4   3
ATOM      1  C   UNL     1       8.885  49.760  53.383  0.00  0.00    +0.020 A 
ATOM      2  C   UNL     1       8.544  48.905  54.497  0.00  0.00    +0.013 A 
ATOM      3  C   UNL     1       7.827  49.434  55.650  0.00  0.00    +0.019 A 
ATOM     38  C   UNL     1       7.466  50.843  55.645  0.00  0.00    +0.120 A 
ATOM     39  N   UNL     1       7.808  51.643  54.559  0.00  0.00    -0.263 NA
ATOM     40  C   UNL     1       8.500  51.146  53.445  0.00  0.00    +0.111 A 
ENDBRANCH   4   3
ENDBRANCH  10   9
BRANCH  12  13
ATOM     13  N   UNL     1       4.885  41.781  59.783  0.00  0.00    -0.281 N 
ATOM     14  C   UNL     1       4.681  40.429  59.560  0.00  0.00    +0.248 C 
ATOM     30  O   UNL     1       5.508  39.678  59.064  0.00  0.00    -0.270 OA
ATOM     31  H   UNL     1       4.056  42.327  60.017  0.00  0.00    +0.155 HD
BRANCH  14  15
ATOM     15  C   UNL     1       3.363  39.827  59.929  0.00  0.00    +0.037 A 
ATOM     16  C   UNL     1       2.305  39.646  58.931  0.00  0.00    +0.013 A 
ATOM     17  C   UNL     1       1.037  39.079  59.317  0.00  0.00    +0.005 A 
ATOM     18  C   UNL     1       0.822  38.687  60.708  0.00  0.00    -0.033 A 
ATOM     28  C   UNL     1       1.890  38.873  61.675  0.00  0.00    +0.005 A 
ATOM     29  C   UNL     1       3.134  39.430  61.301  0.00  0.00    +0.013 A 
BRANCH  18  19
ATOM     19  C   UNL     1      -0.507  38.093  61.213  0.00  0.00    +0.119 C 
BRANCH  19  20
ATOM     20  N   UNL     1      -0.442  37.173  62.387  0.00  0.00    -0.302 NA
ATOM     21  C   UNL     1      -1.206  35.870  62.139  0.00  0.00    +0.066 C 
ATOM     22  C   UNL     1      -1.108  34.910  63.369  0.00  0.00    -0.064 C 
ATOM     23  N   UNL     1      -1.644  35.622  64.612  0.00  0.00    +0.379 N 
ATOM     24  C   UNL     1      -1.608  34.703  65.758  0.00  0.00    -0.096 C 
ATOM     25  H   UNL     1      -2.711  35.882  64.419  0.00  0.00    -0.082 HD
ATOM     26  C   UNL     1      -0.892  36.921  64.865  0.00  0.00    -0.064 C 
ATOM     27  C   UNL     1      -0.970  37.856  63.625  0.00  0.00    +0.066 C 
ENDBRANCH  19  20
ENDBRANCH  18  19
ENDBRANCH  14  15
ENDBRANCH  12  13
TORSDOF 6
ENDMDL
MODEL 3
REMARK VINA RESULT:      -8.6      6.312      9.144
REMARK  Name = C:\Users\Docking\Desktop\test protocol\1iep_ligandH.pdb
REMARK  8 active torsions:
REMARK  status: ('A' for Active; 'I' for Inactive)
REMARK    1  A    between atoms: _5  and  _11
REMARK    2  A    between atoms: _19  and  _21
REMARK    3  A    between atoms: _22  and  _66
REMARK    4  A    between atoms: _27  and  _30
REMARK    5  A    between atoms: _32  and  _33
REMARK    6  A    between atoms: _38  and  _43
REMARK    7  A    between atoms: _43  and  _46
REMARK    8  A    between atoms: _53  and  _55
REMARK                            x       y       z     vdW  Elec       q    Type
REMARK                         _______ _______ _______ _____ _____    ______ ____
ROOT
ATOM     10  C   UNL     1       9.869  46.204  59.018  0.00  0.00    +0.038 A 
ATOM     11  C   UNL     1       9.750  44.852  59.429  0.00  0.00    +0.047 A 
ATOM     12  C   UNL     1       8.473  44.158  59.373  0.00  0.00    +0.035 A 
ATOM     32  C   UNL     1       7.337  44.871  58.890  0.00  0.00    +0.024 A 
ATOM     33  C   UNL     1       7.440  46.247  58.470  0.00  0.00    +0.007 A 
ATOM     34  C   UNL     1       8.697  46.937  58.525  0.00  0.00    -0.029 A 
ATOM     35  C   UNL     1       8.747  48.413  58.067  0.00  0.00    +0.045 C 
ENDROOT
BRANCH  10   9
ATOM      4  C   UNL     1      13.310  48.515  61.438  0.00  0.00    +0.077 A 
ATOM      5  C   UNL     1      12.540  48.516  62.649  0.00  0.00    +0.048 A 
ATOM      6  C   UNL     1      11.261  47.918  62.605  0.00  0.00    +0.116 A 
ATOM      7  N   UNL     1      10.796  47.363  61.432  0.00  0.00    -0.223 NA
ATOM      8  C   UNL     1      11.564  47.380  60.282  0.00  0.00    +0.220 A 
ATOM      9  N   UNL     1      11.120  46.821  59.094  0.00  0.00    -0.283 N 
ATOM     36  H   UNL     1      11.713  46.861  58.265  0.00  0.00    +0.155 HD
ATOM     37  N   UNL     1      12.788  47.946  60.298  0.00  0.00    -0.214 NA
BRANCH   4   3
ATOM      1  C   UNL     1      16.761  49.700  60.028  0.00  0.00    +0.020 A 
ATOM      2  C   UNL     1      15.440  49.117  60.082  0.00  0.00    +0.013 A 
ATOM      3  C   UNL     1      14.682  49.105  61.327  0.00  0.00    +0.019 A 
ATOM     38  C   UNL     1      15.293  49.696  62.507  0.00  0.00    +0.120 A 
ATOM     39  N   UNL     1      16.567  50.249  62.425  0.00  0.00    -0.263 NA
ATOM     40  C   UNL     1      17.307  50.265  61.234  0.00  0.00    +0.111 A 
ENDBRANCH   4   3
ENDBRANCH  10   9
BRANCH  12  13
ATOM     13  N   UNL     1       8.289  42.788  59.785  0.00  0.00    -0.281 N 
ATOM     14  C   UNL     1       7.933  41.704  59.000  0.00  0.00    +0.248 C 
ATOM     30  O   UNL     1       7.508  41.788  57.857  0.00  0.00    -0.270 OA
ATOM     31  H   UNL     1       8.440  42.595  60.775  0.00  0.00    +0.155 HD
BRANCH  14  15
ATOM     15  C   UNL     1       8.053  40.328  59.571  0.00  0.00    +0.037 A 
ATOM     16  C   UNL     1       7.903  39.139  58.729  0.00  0.00    +0.013 A 
ATOM     17  C   UNL     1       8.007  37.824  59.309  0.00  0.00    +0.005 A 
ATOM     18  C   UNL     1       8.264  37.691  60.741  0.00  0.00    -0.033 A 
ATOM     28  C   UNL     1       8.414  38.887  61.553  0.00  0.00    +0.005 A 
ATOM     29  C   UNL     1       8.312  40.178  60.988  0.00  0.00    +0.013 A 
BRANCH  18  19
ATOM     19  C   UNL     1       8.369  36.327  61.449  0.00  0.00    +0.119 C 
BRANCH  19  20
ATOM     20  N   UNL     1       9.730  35.875  61.864  0.00  0.00    -0.302 NA
ATOM     21  C   UNL     1      10.832  36.513  61.013  0.00  0.00    +0.066 C 
ATOM     22  C   UNL     1      12.250  36.047  61.476  0.00  0.00    -0.064 C 
ATOM     23  N   UNL     1      12.330  34.521  61.409  0.00  0.00    +0.379 N 
ATOM     24  C   UNL     1      13.681  34.083  61.788  0.00  0.00    -0.096 C 
ATOM     25  H   UNL     1      12.161  34.220  60.349  0.00  0.00    -0.082 HD
ATOM     26  C   UNL     1      11.236  33.878  62.250  0.00  0.00    -0.064 C 
ATOM     27  C   UNL     1       9.832  34.371  61.801  0.00  0.00    +0.066 C 
ENDBRANCH  19  20
ENDBRANCH  18  19
ENDBRANCH  14  15
ENDBRANCH  12  13
TORSDOF 6
ENDMDL
MODEL 4
REMARK VINA RESULT:      -8.3      5.727      7.997
REMARK  Name = C:\Users\Docking\Desktop\test protocol\1iep_ligandH.pdb
REMARK  8 active torsions:
REMARK  status: ('A' for Active; 'I' for Inactive)
REMARK    1  A    between atoms: _5  and  _11
REMARK    2  A    between atoms: _19  and  _21
REMARK    3  A    between atoms: _22  and  _66
REMARK    4  A    between atoms: _27  and  _30
REMARK    5  A    between atoms: _32  and  _33
REMARK    6  A    between atoms: _38  and  _43
REMARK    7  A    between atoms: _43  and  _46
REMARK    8  A    between atoms: _53  and  _55
REMARK                            x       y       z     vdW  Elec       q    Type
REMARK                         _______ _______ _______ _____ _____    ______ ____
ROOT
ATOM     10  C   UNL     1      10.214  49.510  62.118  0.00  0.00    +0.038 A 
ATOM     11  C   UNL     1       9.632  48.360  61.527  0.00  0.00    +0.047 A 
ATOM     12  C   UNL     1       8.317  47.889  61.931  0.00  0.00    +0.035 A 
ATOM     32  C   UNL     1       7.621  48.616  62.940  0.00  0.00    +0.024 A 
ATOM     33  C   UNL     1       8.197  49.787  63.553  0.00  0.00    +0.007 A 
ATOM     34  C   UNL     1       9.496  50.254  63.159  0.00  0.00    -0.029 A 
ATOM     35  C   UNL     1      10.068  51.511  63.855  0.00  0.00    +0.045 C 
ENDROOT
BRANCH  10   9
ATOM      4  C   UNL     1      15.003  49.194  62.169  0.00  0.00    +0.077 A 
ATOM      5  C   UNL     1      14.983  48.146  63.149  0.00  0.00    +0.048 A 
ATOM      6  C   UNL     1      13.720  47.722  63.619  0.00  0.00    +0.116 A 
ATOM      7  N   UNL     1      12.569  48.309  63.138  0.00  0.00    -0.223 NA
ATOM      8  C   UNL     1      12.625  49.318  62.194  0.00  0.00    +0.220 A 
ATOM      9  N   UNL     1      11.480  49.917  61.691  0.00  0.00    -0.283 N 
ATOM     36  H   UNL     1      11.563  50.664  61.001  0.00  0.00    +0.155 HD
ATOM     37  N   UNL     1      13.819  49.742  61.730  0.00  0.00    -0.214 NA
BRANCH   4   3
ATOM      1  C   UNL     1      17.774  50.254  59.619  0.00  0.00    +0.020 A 
ATOM      2  C   UNL     1      16.545  49.704  60.144  0.00  0.00    +0.013 A 
ATOM      3  C   UNL     1      16.260  49.747  61.572  0.00  0.00    +0.019 A 
ATOM     38  C   UNL     1      17.247  50.359  62.450  0.00  0.00    +0.120 A 
ATOM     39  N   UNL     1      18.422  50.879  61.916  0.00  0.00    -0.263 NA
ATOM     40  C   UNL     1      18.708  50.842  60.543  0.00  0.00    +0.111 A 
ENDBRANCH   4   3
ENDBRANCH  10   9
BRANCH  12  13
ATOM     13  N   UNL     1       7.679  46.723  61.372  0.00  0.00    -0.281 N 
ATOM     14  C   UNL     1       7.499  46.409  60.035  0.00  0.00    +0.248 C 
ATOM     30  O   UNL     1       7.672  47.192  59.113  0.00  0.00    -0.270 OA
ATOM     31  H   UNL     1       7.316  46.047  62.044  0.00  0.00    +0.155 HD
BRANCH  14  15
ATOM     15  C   UNL     1       7.049  45.031  59.671  0.00  0.00    +0.037 A 
ATOM     16  C   UNL     1       7.193  44.521  58.305  0.00  0.00    +0.013 A 
ATOM     17  C   UNL     1       6.735  43.195  57.976  0.00  0.00    +0.005 A 
ATOM     18  C   UNL     1       6.129  42.368  59.018  0.00  0.00    -0.033 A 
ATOM     28  C   UNL     1       6.003  42.897  60.366  0.00  0.00    +0.005 A 
ATOM     29  C   UNL     1       6.450  44.197  60.691  0.00  0.00    +0.013 A 
BRANCH  18  19
ATOM     19  C   UNL     1       5.593  40.949  58.752  0.00  0.00    +0.119 C 
BRANCH  19  20
ATOM     20  N   UNL     1       4.207  40.643  59.216  0.00  0.00    -0.302 NA
ATOM     21  C   UNL     1       4.059  39.187  59.666  0.00  0.00    +0.066 C 
ATOM     22  C   UNL     1       2.609  38.891  60.170  0.00  0.00    -0.064 C 
ATOM     23  N   UNL     1       1.610  39.219  59.059  0.00  0.00    +0.379 N 
ATOM     24  C   UNL     1       0.250  38.887  59.508  0.00  0.00    -0.096 C 
ATOM     25  H   UNL     1       1.847  38.565  58.187  0.00  0.00    -0.082 HD
ATOM     26  C   UNL     1       1.751  40.664  58.603  0.00  0.00    -0.064 C 
ATOM     27  C   UNL     1       3.204  40.956  58.133  0.00  0.00    +0.066 C 
ENDBRANCH  19  20
ENDBRANCH  18  19
ENDBRANCH  14  15
ENDBRANCH  12  13
TORSDOF 6
ENDMDL
MODEL 5
REMARK VINA RESULT:      -8.3      5.286      7.856
REMARK  Name = C:\Users\Docking\Desktop\test protocol\1iep_ligandH.pdb
REMARK  8 active torsions:
REMARK  status: ('A' for Active; 'I' for Inactive)
REMARK    1  A    between atoms: _5  and  _11
REMARK    2  A    between atoms: _19  and  _21
REMARK    3  A    between atoms: _22  and  _66
REMARK    4  A    between atoms: _27  and  _30
REMARK    5  A    between atoms: _32  and  _33
REMARK    6  A    between atoms: _38  and  _43
REMARK    7  A    between atoms: _43  and  _46
REMARK    8  A    between atoms: _53  and  _55
REMARK                            x       y       z     vdW  Elec       q    Type
REMARK                         _______ _______ _______ _____ _____    ______ ____
ROOT
ATOM     10  C   UNL     1       9.808  48.522  61.278  0.00  0.00    +0.038 A 
ATOM     11  C   UNL     1       9.470  47.248  60.754  0.00  0.00    +0.047 A 
ATOM     12  C   UNL     1       8.175  46.643  61.025  0.00  0.00    +0.035 A 
ATOM     32  C   UNL     1       7.248  47.364  61.832  0.00  0.00    +0.024 A 
ATOM     33  C   UNL     1       7.576  48.660  62.374  0.00  0.00    +0.007 A 
ATOM     34  C   UNL     1       8.852  49.260  62.112  0.00  0.00    -0.029 A 
ATOM     35  C   UNL     1       9.153  50.648  62.725  0.00  0.00    +0.045 C 
ENDROOT
BRANCH  10   9
ATOM      4  C   UNL     1      14.561  48.747  61.909  0.00  0.00    +0.077 A 
ATOM      5  C   UNL     1      14.534  47.734  62.925  0.00  0.00    +0.048 A 
ATOM      6  C   UNL     1      13.276  47.186  63.261  0.00  0.00    +0.116 A 
ATOM      7  N   UNL     1      12.136  47.625  62.622  0.00  0.00    -0.223 NA
ATOM      8  C   UNL     1      12.198  48.604  61.648  0.00  0.00    +0.220 A 
ATOM      9  N   UNL     1      11.066  49.055  60.987  0.00  0.00    -0.283 N 
ATOM     36  H   UNL     1      11.152  49.785  60.279  0.00  0.00    +0.155 HD
ATOM     37  N   UNL     1      13.387  49.145  61.310  0.00  0.00    -0.214 NA
BRANCH   4   3
ATOM      1  C   UNL     1      17.461  50.083  59.650  0.00  0.00    +0.020 A 
ATOM      2  C   UNL     1      16.243  49.417  60.049  0.00  0.00    +0.013 A 
ATOM      3  C   UNL     1      15.814  49.419  61.442  0.00  0.00    +0.019 A 
ATOM     38  C   UNL     1      16.648  50.110  62.414  0.00  0.00    +0.120 A 
ATOM     39  N   UNL     1      17.818  50.741  62.001  0.00  0.00    -0.263 NA
ATOM     40  C   UNL     1      18.241  50.744  60.663  0.00  0.00    +0.111 A 
ENDBRANCH   4   3
ENDBRANCH  10   9
BRANCH  12  13
ATOM     13  N   UNL     1       7.778  45.350  60.526  0.00  0.00    -0.281 N 
ATOM     14  C   UNL     1       7.848  44.880  59.225  0.00  0.00    +0.248 C 
ATOM     30  O   UNL     1       8.066  45.582  58.248  0.00  0.00    -0.270 OA
ATOM     31  H   UNL     1       7.400  44.701  61.217  0.00  0.00    +0.155 HD
BRANCH  14  15
ATOM     15  C   UNL     1       7.630  43.424  58.969  0.00  0.00    +0.037 A 
ATOM     16  C   UNL     1       6.794  42.964  57.858  0.00  0.00    +0.013 A 
ATOM     17  C   UNL     1       6.587  41.553  57.645  0.00  0.00    +0.005 A 
ATOM     18  C   UNL     1       7.219  40.592  58.545  0.00  0.00    -0.033 A 
ATOM     28  C   UNL     1       8.049  41.076  59.636  0.00  0.00    +0.005 A 
ATOM     29  C   UNL     1       8.253  42.458  59.849  0.00  0.00    +0.013 A 
BRANCH  18  19
ATOM     19  C   UNL     1       7.036  39.069  58.405  0.00  0.00    +0.119 C 
BRANCH  19  20
ATOM     20  N   UNL     1       5.938  38.437  59.195  0.00  0.00    -0.302 NA
ATOM     21  C   UNL     1       4.791  39.414  59.468  0.00  0.00    +0.066 C 
ATOM     22  C   UNL     1       3.641  38.730  60.276  0.00  0.00    -0.064 C 
ATOM     23  N   UNL     1       4.202  38.175  61.586  0.00  0.00    +0.379 N 
ATOM     24  C   UNL     1       3.112  37.582  62.375  0.00  0.00    -0.096 C 
ATOM     25  H   UNL     1       4.613  39.032  62.168  0.00  0.00    -0.082 HD
ATOM     26  C   UNL     1       5.345  37.204  61.324  0.00  0.00    -0.064 C 
ATOM     27  C   UNL     1       6.470  37.886  60.495  0.00  0.00    +0.066 C 
ENDBRANCH  19  20
ENDBRANCH  18  19
ENDBRANCH  14  15
ENDBRANCH  12  13
TORSDOF 6
ENDMDL
