MODEL 1
REMARK VINA RESULT:      -7.8      0.000      0.000
REMARK  Name = C:\Users\Docking\Desktop\test protocol\1iep_ligandH.pdb
REMARK  8 active torsions:
REMARK  status: ('A' for Active; 'I' for Inactive)
REMARK    1  A    between atoms: _5  and  _11
REMARK    2  A    between atoms: _19  and  _21
REMARK    3  A    between atoms: _22  and  _66
REMARK    4  A    between atoms: _27  and  _30
REMARK    5  A    between atoms: _32  and  _33
REMARK    6  A    between atoms: _38  and  _43
REMARK    7  A    between atoms: _43  and  _46
REMARK    8  A    between atoms: _53  and  _55
REMARK                            x       y       z     vdW  Elec       q    Type
REMARK                         _______ _______ _______ _____ _____    ______ ____
ROOT
ATOM     10  C   UNL     1      19.243   6.572  81.625  0.00  0.00    +0.038 A 
ATOM     11  C   UNL     1      19.544   5.571  80.666  0.00  0.00    +0.047 A 
ATOM     12  C   UNL     1      20.009   5.921  79.333  0.00  0.00    +0.035 A 
ATOM     32  C   UNL     1      20.158   7.302  79.010  0.00  0.00    +0.024 A 
ATOM     33  C   UNL     1      19.856   8.332  79.972  0.00  0.00    +0.007 A 
ATOM     34  C   UNL     1      19.395   7.993  81.288  0.00  0.00    -0.029 A 
ATOM     35  C   UNL     1      19.079   9.140  82.277  0.00  0.00    +0.045 C 
ENDROOT
BRANCH  10   9
ATOM      4  C   UNL     1      15.761   5.737  84.820  0.00  0.00    +0.077 A 
ATOM      5  C   UNL     1      14.738   6.143  83.900  0.00  0.00    +0.048 A 
ATOM      6  C   UNL     1      15.150   6.567  82.617  0.00  0.00    +0.116 A 
ATOM      7  N   UNL     1      16.489   6.579  82.289  0.00  0.00    -0.223 NA
ATOM      8  C   UNL     1      17.450   6.183  83.201  0.00  0.00    +0.220 A 
ATOM      9  N   UNL     1      18.801   6.179  82.890  0.00  0.00    -0.283 N 
ATOM     36  H   UNL     1      19.479   5.887  83.593  0.00  0.00    +0.155 HD
ATOM     37  N   UNL     1      17.082   5.775  84.433  0.00  0.00    -0.214 NA
BRANCH   4   3
ATOM      1  C   UNL     1      15.640   3.556  88.065  0.00  0.00    +0.020 A 
ATOM      2  C   UNL     1      15.934   3.968  86.712  0.00  0.00    +0.013 A 
ATOM      3  C   UNL     1      15.483   5.261  86.212  0.00  0.00    +0.019 A 
ATOM     38  C   UNL     1      14.731   6.120  87.114  0.00  0.00    +0.120 A 
ATOM     39  N   UNL     1      14.461   5.696  88.412  0.00  0.00    -0.263 NA
ATOM     40  C   UNL     1      14.889   4.453  88.903  0.00  0.00    +0.111 A 
ENDBRANCH   4   3
ENDBRANCH  10   9
BRANCH  12  13
ATOM     13  N   UNL     1      20.322   4.949  78.315  0.00  0.00    -0.281 N 
ATOM     14  C   UNL     1      20.364   5.135  76.943  0.00  0.00    +0.248 C 
ATOM     30  O   UNL     1      19.927   6.120  76.366  0.00  0.00    -0.270 OA
ATOM     31  H   UNL     1      20.539   4.009  78.647  0.00  0.00    +0.155 HD
BRANCH  14  15
ATOM     15  C   UNL     1      20.965   4.067  76.088  0.00  0.00    +0.037 A 
ATOM     16  C   UNL     1      20.263   2.804  75.844  0.00  0.00    +0.013 A 
ATOM     17  C   UNL     1      20.873   1.784  75.029  0.00  0.00    +0.005 A 
ATOM     18  C   UNL     1      22.192   2.023  74.449  0.00  0.00    -0.033 A 
ATOM     28  C   UNL     1      22.863   3.287  74.703  0.00  0.00    +0.005 A 
ATOM     29  C   UNL     1      22.270   4.289  75.502  0.00  0.00    +0.013 A 
BRANCH  18  19
ATOM     19  C   UNL     1      22.927   0.982  73.584  0.00  0.00    +0.119 C 
BRANCH  19  20
ATOM     20  N   UNL     1      23.749   1.496  72.448  0.00  0.00    -0.302 NA
ATOM     21  C   UNL     1      22.892   1.829  71.223  0.00  0.00    +0.066 C 
ATOM     22  C   UNL     1      23.765   2.386  70.052  0.00  0.00    -0.064 C 
ATOM     23  N   UNL     1      24.845   1.364  69.695  0.00  0.00    +0.379 N 
ATOM     24  C   UNL     1      25.631   1.859  68.555  0.00  0.00    -0.096 C 
ATOM     25  H   UNL     1      24.332   0.429  69.371  0.00  0.00    -0.082 HD
ATOM     26  C   UNL     1      25.701   1.025  70.907  0.00  0.00    -0.064 C 
ATOM     27  C   UNL     1      24.820   0.500  72.075  0.00  0.00    +0.066 C 
ENDBRANCH  19  20
ENDBRANCH  18  19
ENDBRANCH  14  15
ENDBRANCH  12  13
TORSDOF 6
ENDMDL
MODEL 2
REMARK VINA RESULT:      -7.6     29.230     33.517
REMARK  Name = C:\Users\Docking\Desktop\test protocol\1iep_ligandH.pdb
REMARK  8 active torsions:
REMARK  status: ('A' for Active; 'I' for Inactive)
REMARK    1  A    between atoms: _5  and  _11
REMARK    2  A    between atoms: _19  and  _21
REMARK    3  A    between atoms: _22  and  _66
REMARK    4  A    between atoms: _27  and  _30
REMARK    5  A    between atoms: _32  and  _33
REMARK    6  A    between atoms: _38  and  _43
REMARK    7  A    between atoms: _43  and  _46
REMARK    8  A    between atoms: _53  and  _55
REMARK                            x       y       z     vdW  Elec       q    Type
REMARK                         _______ _______ _______ _____ _____    ______ ____
ROOT
ATOM     10  C   UNL     1      28.358 -13.938 102.665  0.00  0.00    +0.038 A 
ATOM     11  C   UNL     1      26.978 -14.257 102.582  0.00  0.00    +0.047 A 
ATOM     12  C   UNL     1      26.137 -14.275 103.769  0.00  0.00    +0.035 A 
ATOM     32  C   UNL     1      26.735 -13.961 105.025  0.00  0.00    +0.024 A 
ATOM     33  C   UNL     1      28.136 -13.636 105.128  0.00  0.00    +0.007 A 
ATOM     34  C   UNL     1      28.970 -13.619 103.960  0.00  0.00    -0.029 A 
ATOM     35  C   UNL     1      30.467 -13.271 104.130  0.00  0.00    +0.045 C 
ENDROOT
BRANCH  10   9
ATOM      4  C   UNL     1      30.840 -16.184  99.226  0.00  0.00    +0.077 A 
ATOM      5  C   UNL     1      30.627 -17.469  99.828  0.00  0.00    +0.048 A 
ATOM      6  C   UNL     1      29.880 -17.507 101.027  0.00  0.00    +0.116 A 
ATOM      7  N   UNL     1      29.386 -16.342 101.572  0.00  0.00    -0.223 NA
ATOM      8  C   UNL     1      29.611 -15.119 100.967  0.00  0.00    +0.220 A 
ATOM      9  N   UNL     1      29.118 -13.936 101.494  0.00  0.00    -0.283 N 
ATOM     36  H   UNL     1      29.312 -13.054 101.020  0.00  0.00    +0.155 HD
ATOM     37  N   UNL     1      30.323 -15.056  99.822  0.00  0.00    -0.214 NA
BRANCH   4   3
ATOM      1  C   UNL     1      31.770 -15.816  95.444  0.00  0.00    +0.020 A 
ATOM      2  C   UNL     1      30.984 -16.020  96.639  0.00  0.00    +0.013 A 
ATOM      3  C   UNL     1      31.607 -15.980  97.956  0.00  0.00    +0.019 A 
ATOM     38  C   UNL     1      33.038 -15.730  98.030  0.00  0.00    +0.120 A 
ATOM     39  N   UNL     1      33.770 -15.538  96.862  0.00  0.00    -0.263 NA
ATOM     40  C   UNL     1      33.182 -15.576  95.589  0.00  0.00    +0.111 A 
ENDBRANCH   4   3
ENDBRANCH  10   9
BRANCH  12  13
ATOM     13  N   UNL     1      24.732 -14.598 103.748  0.00  0.00    -0.281 N 
ATOM     14  C   UNL     1      24.115 -15.746 104.220  0.00  0.00    +0.248 C 
ATOM     30  O   UNL     1      24.706 -16.766 104.540  0.00  0.00    -0.270 OA
ATOM     31  H   UNL     1      24.118 -13.896 103.335  0.00  0.00    +0.155 HD
BRANCH  14  15
ATOM     15  C   UNL     1      22.626 -15.767 104.338  0.00  0.00    +0.037 A 
ATOM     16  C   UNL     1      21.967 -16.279 105.543  0.00  0.00    +0.013 A 
ATOM     17  C   UNL     1      20.528 -16.305 105.625  0.00  0.00    +0.005 A 
ATOM     18  C   UNL     1      19.738 -15.815 104.498  0.00  0.00    -0.033 A 
ATOM     28  C   UNL     1      20.417 -15.307 103.318  0.00  0.00    +0.005 A 
ATOM     29  C   UNL     1      21.827 -15.282 103.233  0.00  0.00    +0.013 A 
BRANCH  18  19
ATOM     19  C   UNL     1      18.197 -15.824 104.490  0.00  0.00    +0.119 C 
BRANCH  19  20
ATOM     20  N   UNL     1      17.504 -14.560 104.879  0.00  0.00    -0.302 NA
ATOM     21  C   UNL     1      16.363 -14.812 105.868  0.00  0.00    +0.066 C 
ATOM     22  C   UNL     1      15.663 -13.476 106.282  0.00  0.00    -0.064 C 
ATOM     23  N   UNL     1      15.147 -12.765 105.030  0.00  0.00    +0.379 N 
ATOM     24  C   UNL     1      14.438 -11.538 105.421  0.00  0.00    -0.096 C 
ATOM     25  H   UNL     1      14.409 -13.440 104.538  0.00  0.00    -0.082 HD
ATOM     26  C   UNL     1      16.275 -12.513 104.040  0.00  0.00    -0.064 C 
ATOM     27  C   UNL     1      16.983 -13.843 103.658  0.00  0.00    +0.066 C 
ENDBRANCH  19  20
ENDBRANCH  18  19
ENDBRANCH  14  15
ENDBRANCH  12  13
TORSDOF 6
ENDMDL
MODEL 3
REMARK VINA RESULT:      -7.3     31.454     33.758
REMARK  Name = C:\Users\Docking\Desktop\test protocol\1iep_ligandH.pdb
REMARK  8 active torsions:
REMARK  status: ('A' for Active; 'I' for Inactive)
REMARK    1  A    between atoms: _5  and  _11
REMARK    2  A    between atoms: _19  and  _21
REMARK    3  A    between atoms: _22  and  _66
REMARK    4  A    between atoms: _27  and  _30
REMARK    5  A    between atoms: _32  and  _33
REMARK    6  A    between atoms: _38  and  _43
REMARK    7  A    between atoms: _43  and  _46
REMARK    8  A    between atoms: _53  and  _55
REMARK                            x       y       z     vdW  Elec       q    Type
REMARK                         _______ _______ _______ _____ _____    ______ ____
ROOT
ATOM     10  C   UNL     1      21.780 -15.511 103.131  0.00  0.00    +0.038 A 
ATOM     11  C   UNL     1      22.742 -14.717 103.805  0.00  0.00    +0.047 A 
ATOM     12  C   UNL     1      24.112 -15.176 103.974  0.00  0.00    +0.035 A 
ATOM     32  C   UNL     1      24.469 -16.449 103.441  0.00  0.00    +0.024 A 
ATOM     33  C   UNL     1      23.503 -17.270 102.754  0.00  0.00    +0.007 A 
ATOM     34  C   UNL     1      22.150 -16.823 102.586  0.00  0.00    -0.029 A 
ATOM     35  C   UNL     1      21.155 -17.748 101.847  0.00  0.00    +0.045 C 
ENDROOT
BRANCH  10   9
ATOM      4  C   UNL     1      17.308 -14.878 104.755  0.00  0.00    +0.077 A 
ATOM      5  C   UNL     1      17.579 -15.608 105.959  0.00  0.00    +0.048 A 
ATOM      6  C   UNL     1      18.880 -16.137 106.119  0.00  0.00    +0.116 A 
ATOM      7  N   UNL     1      19.831 -15.943 105.141  0.00  0.00    -0.223 NA
ATOM      8  C   UNL     1      19.536 -15.235 103.990  0.00  0.00    +0.220 A 
ATOM      9  N   UNL     1      20.479 -15.021 102.997  0.00  0.00    -0.283 N 
ATOM     36  H   UNL     1      20.220 -14.500 102.160  0.00  0.00    +0.155 HD
ATOM     37  N   UNL     1      18.301 -14.721 103.813  0.00  0.00    -0.214 NA
BRANCH   4   3
ATOM      1  C   UNL     1      13.509 -14.385 103.966  0.00  0.00    +0.020 A 
ATOM      2  C   UNL     1      14.763 -15.035 104.267  0.00  0.00    +0.013 A 
ATOM      3  C   UNL     1      15.983 -14.256 104.442  0.00  0.00    +0.019 A 
ATOM     38  C   UNL     1      15.897 -12.810 104.305  0.00  0.00    +0.120 A 
ATOM     39  N   UNL     1      14.675 -12.212 104.013  0.00  0.00    -0.263 NA
ATOM     40  C   UNL     1      13.496 -12.952 103.841  0.00  0.00    +0.111 A 
ENDBRANCH   4   3
ENDBRANCH  10   9
BRANCH  12  13
ATOM     13  N   UNL     1      25.131 -14.416 104.656  0.00  0.00    -0.281 N 
ATOM     14  C   UNL     1      25.627 -14.614 105.934  0.00  0.00    +0.248 C 
ATOM     30  O   UNL     1      25.117 -15.346 106.769  0.00  0.00    -0.270 OA
ATOM     31  H   UNL     1      25.534 -13.639 104.134  0.00  0.00    +0.155 HD
BRANCH  14  15
ATOM     15  C   UNL     1      26.861 -13.880 106.351  0.00  0.00    +0.037 A 
ATOM     16  C   UNL     1      27.728 -13.229 105.365  0.00  0.00    +0.013 A 
ATOM     17  C   UNL     1      28.921 -12.543 105.792  0.00  0.00    +0.005 A 
ATOM     18  C   UNL     1      29.254 -12.503 107.213  0.00  0.00    -0.033 A 
ATOM     28  C   UNL     1      28.374 -13.152 108.171  0.00  0.00    +0.005 A 
ATOM     29  C   UNL     1      27.204 -13.827 107.756  0.00  0.00    +0.013 A 
BRANCH  18  19
ATOM     19  C   UNL     1      30.519 -11.811 107.757  0.00  0.00    +0.119 C 
BRANCH  19  20
ATOM     20  N   UNL     1      30.353 -10.449 108.345  0.00  0.00    -0.302 NA
ATOM     21  C   UNL     1      31.263  -9.418 107.671  0.00  0.00    +0.066 C 
ATOM     22  C   UNL     1      31.061  -7.993 108.283  0.00  0.00    -0.064 C 
ATOM     23  N   UNL     1      31.326  -8.046 109.788  0.00  0.00    +0.379 N 
ATOM     24  C   UNL     1      31.193  -6.697 110.357  0.00  0.00    -0.096 C 
ATOM     25  H   UNL     1      32.381  -8.373 109.935  0.00  0.00    -0.082 HD
ATOM     26  C   UNL     1      30.427  -9.071 110.466  0.00  0.00    -0.064 C 
ATOM     27  C   UNL     1      30.614 -10.477 109.831  0.00  0.00    +0.066 C 
ENDBRANCH  19  20
ENDBRANCH  18  19
ENDBRANCH  14  15
ENDBRANCH  12  13
TORSDOF 6
ENDMDL
MODEL 4
REMARK VINA RESULT:      -7.2     30.224     33.758
REMARK  Name = C:\Users\Docking\Desktop\test protocol\1iep_ligandH.pdb
REMARK  8 active torsions:
REMARK  status: ('A' for Active; 'I' for Inactive)
REMARK    1  A    between atoms: _5  and  _11
REMARK    2  A    between atoms: _19  and  _21
REMARK    3  A    between atoms: _22  and  _66
REMARK    4  A    between atoms: _27  and  _30
REMARK    5  A    between atoms: _32  and  _33
REMARK    6  A    between atoms: _38  and  _43
REMARK    7  A    between atoms: _43  and  _46
REMARK    8  A    between atoms: _53  and  _55
REMARK                            x       y       z     vdW  Elec       q    Type
REMARK                         _______ _______ _______ _____ _____    ______ ____
ROOT
ATOM     10  C   UNL     1      20.487 -16.155 103.678  0.00  0.00    +0.038 A 
ATOM     11  C   UNL     1      19.716 -15.033 104.077  0.00  0.00    +0.047 A 
ATOM     12  C   UNL     1      18.393 -15.198 104.658  0.00  0.00    +0.035 A 
ATOM     32  C   UNL     1      17.886 -16.520 104.821  0.00  0.00    +0.024 A 
ATOM     33  C   UNL     1      18.656 -17.672 104.420  0.00  0.00    +0.007 A 
ATOM     34  C   UNL     1      19.961 -17.515 103.843  0.00  0.00    -0.029 A 
ATOM     35  C   UNL     1      20.738 -18.785 103.426  0.00  0.00    +0.045 C 
ENDROOT
BRANCH  10   9
ATOM      4  C   UNL     1      25.222 -15.479 104.080  0.00  0.00    +0.077 A 
ATOM      5  C   UNL     1      25.168 -15.535 105.512  0.00  0.00    +0.048 A 
ATOM      6  C   UNL     1      23.901 -15.732 106.107  0.00  0.00    +0.116 A 
ATOM      7  N   UNL     1      22.779 -15.863 105.318  0.00  0.00    -0.223 NA
ATOM      8  C   UNL     1      22.866 -15.802 103.939  0.00  0.00    +0.220 A 
ATOM      9  N   UNL     1      21.751 -15.939 103.126  0.00  0.00    -0.283 N 
ATOM     36  H   UNL     1      21.856 -15.881 102.113  0.00  0.00    +0.155 HD
ATOM     37  N   UNL     1      24.063 -15.614 103.347  0.00  0.00    -0.214 NA
BRANCH   4   3
ATOM      1  C   UNL     1      28.131 -13.845 102.039  0.00  0.00    +0.020 A 
ATOM      2  C   UNL     1      26.899 -13.984 102.781  0.00  0.00    +0.013 A 
ATOM      3  C   UNL     1      26.487 -15.280 103.304  0.00  0.00    +0.019 A 
ATOM     38  C   UNL     1      27.350 -16.425 103.057  0.00  0.00    +0.120 A 
ATOM     39  N   UNL     1      28.530 -16.262 102.338  0.00  0.00    -0.263 NA
ATOM     40  C   UNL     1      28.936 -15.019 101.828  0.00  0.00    +0.111 A 
ENDBRANCH   4   3
ENDBRANCH  10   9
BRANCH  12  13
ATOM     13  N   UNL     1      17.561 -14.097 105.074  0.00  0.00    -0.281 N 
ATOM     14  C   UNL     1      17.056 -13.068 104.295  0.00  0.00    +0.248 C 
ATOM     30  O   UNL     1      17.421 -12.822 103.155  0.00  0.00    -0.270 OA
ATOM     31  H   UNL     1      17.314 -14.072 106.064  0.00  0.00    +0.155 HD
BRANCH  14  15
ATOM     15  C   UNL     1      16.003 -12.177 104.870  0.00  0.00    +0.037 A 
ATOM     16  C   UNL     1      14.625 -12.211 104.374  0.00  0.00    +0.013 A 
ATOM     17  C   UNL     1      13.632 -11.328 104.934  0.00  0.00    +0.005 A 
ATOM     18  C   UNL     1      14.015 -10.404 105.999  0.00  0.00    -0.033 A 
ATOM     28  C   UNL     1      15.388 -10.395 106.476  0.00  0.00    +0.005 A 
ATOM     29  C   UNL     1      16.364 -11.258 105.928  0.00  0.00    +0.013 A 
BRANCH  18  19
ATOM     19  C   UNL     1      13.028  -9.412 106.641  0.00  0.00    +0.119 C 
BRANCH  19  20
ATOM     20  N   UNL     1      13.584  -8.118 107.138  0.00  0.00    -0.302 NA
ATOM     21  C   UNL     1      13.484  -7.997 108.661  0.00  0.00    +0.066 C 
ATOM     22  C   UNL     1      14.091  -6.648 109.166  0.00  0.00    -0.064 C 
ATOM     23  N   UNL     1      13.375  -5.482 108.482  0.00  0.00    +0.379 N 
ATOM     24  C   UNL     1      13.904  -4.211 108.998  0.00  0.00    -0.096 C 
ATOM     25  H   UNL     1      12.297  -5.538 108.760  0.00  0.00    -0.082 HD
ATOM     26  C   UNL     1      13.467  -5.596 106.967  0.00  0.00    -0.064 C 
ATOM     27  C   UNL     1      12.888  -6.953 106.478  0.00  0.00    +0.066 C 
ENDBRANCH  19  20
ENDBRANCH  18  19
ENDBRANCH  14  15
ENDBRANCH  12  13
TORSDOF 6
ENDMDL
MODEL 5
REMARK VINA RESULT:      -7.2     15.291     19.668
REMARK  Name = C:\Users\Docking\Desktop\test protocol\1iep_ligandH.pdb
REMARK  8 active torsions:
REMARK  status: ('A' for Active; 'I' for Inactive)
REMARK    1  A    between atoms: _5  and  _11
REMARK    2  A    between atoms: _19  and  _21
REMARK    3  A    between atoms: _22  and  _66
REMARK    4  A    between atoms: _27  and  _30
REMARK    5  A    between atoms: _32  and  _33
REMARK    6  A    between atoms: _38  and  _43
REMARK    7  A    between atoms: _43  and  _46
REMARK    8  A    between atoms: _53  and  _55
REMARK                            x       y       z     vdW  Elec       q    Type
REMARK                         _______ _______ _______ _____ _____    ______ ____
ROOT
ATOM     10  C   UNL     1      18.706 -14.663  79.387  0.00  0.00    +0.038 A 
ATOM     11  C   UNL     1      18.250 -13.347  79.123  0.00  0.00    +0.047 A 
ATOM     12  C   UNL     1      16.840 -13.070  78.895  0.00  0.00    +0.035 A 
ATOM     32  C   UNL     1      15.921 -14.159  78.947  0.00  0.00    +0.024 A 
ATOM     33  C   UNL     1      16.367 -15.504  79.214  0.00  0.00    +0.007 A 
ATOM     34  C   UNL     1      17.757 -15.783  79.436  0.00  0.00    -0.029 A 
ATOM     35  C   UNL     1      18.180 -17.245  79.711  0.00  0.00    +0.045 C 
ENDROOT
BRANCH  10   9
ATOM      4  C   UNL     1      23.155 -15.500  77.794  0.00  0.00    +0.077 A 
ATOM      5  C   UNL     1      22.720 -15.553  76.428  0.00  0.00    +0.048 A 
ATOM      6  C   UNL     1      21.342 -15.368  76.179  0.00  0.00    +0.116 A 
ATOM      7  N   UNL     1      20.473 -15.145  77.225  0.00  0.00    -0.223 NA
ATOM      8  C   UNL     1      20.925 -15.102  78.531  0.00  0.00    +0.220 A 
ATOM      9  N   UNL     1      20.071 -14.872  79.598  0.00  0.00    -0.283 N 
ATOM     36  H   UNL     1      20.443 -14.854  80.547  0.00  0.00    +0.155 HD
ATOM     37  N   UNL     1      22.237 -15.278  78.795  0.00  0.00    -0.214 NA
BRANCH   4   3
ATOM      1  C   UNL     1      26.398 -16.833  79.529  0.00  0.00    +0.020 A 
ATOM      2  C   UNL     1      25.009 -16.707  79.153  0.00  0.00    +0.013 A 
ATOM      3  C   UNL     1      24.581 -15.674  78.218  0.00  0.00    +0.019 A 
ATOM     38  C   UNL     1      25.592 -14.778  77.677  0.00  0.00    +0.120 A 
ATOM     39  N   UNL     1      26.922 -14.923  78.058  0.00  0.00    -0.263 NA
ATOM     40  C   UNL     1      27.345 -15.912  78.959  0.00  0.00    +0.111 A 
ENDBRANCH   4   3
ENDBRANCH  10   9
BRANCH  12  13
ATOM     13  N   UNL     1      16.319 -11.755  78.615  0.00  0.00    -0.281 N 
ATOM     14  C   UNL     1      16.119 -11.165  77.378  0.00  0.00    +0.248 C 
ATOM     30  O   UNL     1      16.560 -11.600  76.325  0.00  0.00    -0.270 OA
ATOM     31  H   UNL     1      16.067 -11.192  79.427  0.00  0.00    +0.155 HD
BRANCH  14  15
ATOM     15  C   UNL     1      15.327  -9.900  77.301  0.00  0.00    +0.037 A 
ATOM     16  C   UNL     1      15.353  -8.919  78.389  0.00  0.00    +0.013 A 
ATOM     17  C   UNL     1      14.566  -7.715  78.297  0.00  0.00    +0.005 A 
ATOM     18  C   UNL     1      13.746  -7.485  77.110  0.00  0.00    -0.033 A 
ATOM     28  C   UNL     1      13.743  -8.471  76.043  0.00  0.00    +0.005 A 
ATOM     29  C   UNL     1      14.512  -9.653  76.130  0.00  0.00    +0.013 A 
BRANCH  18  19
ATOM     19  C   UNL     1      12.858  -6.238  76.937  0.00  0.00    +0.119 C 
BRANCH  19  20
ATOM     20  N   UNL     1      13.547  -4.941  76.662  0.00  0.00    -0.302 NA
ATOM     21  C   UNL     1      12.552  -3.815  76.367  0.00  0.00    +0.066 C 
ATOM     22  C   UNL     1      13.289  -2.460  76.104  0.00  0.00    -0.064 C 
ATOM     23  N   UNL     1      14.270  -2.634  74.944  0.00  0.00    +0.379 N 
ATOM     24  C   UNL     1      14.921  -1.348  74.656  0.00  0.00    -0.096 C 
ATOM     25  H   UNL     1      13.680  -2.923  74.043  0.00  0.00    -0.082 HD
ATOM     26  C   UNL     1      15.260  -3.754  75.227  0.00  0.00    -0.064 C 
ATOM     27  C   UNL     1      14.518  -5.089  75.516  0.00  0.00    +0.066 C 
ENDBRANCH  19  20
ENDBRANCH  18  19
ENDBRANCH  14  15
ENDBRANCH  12  13
TORSDOF 6
ENDMDL
