MODEL 1
REMARK VINA RESULT:      -7.4      0.000      0.000
REMARK  Name = C:\Users\Docking\Desktop\test protocol\1iep_ligandH.pdb
REMARK  8 active torsions:
REMARK  status: ('A' for Active; 'I' for Inactive)
REMARK    1  A    between atoms: _5  and  _11
REMARK    2  A    between atoms: _19  and  _21
REMARK    3  A    between atoms: _22  and  _66
REMARK    4  A    between atoms: _27  and  _30
REMARK    5  A    between atoms: _32  and  _33
REMARK    6  A    between atoms: _38  and  _43
REMARK    7  A    between atoms: _43  and  _46
REMARK    8  A    between atoms: _53  and  _55
REMARK                            x       y       z     vdW  Elec       q    Type
REMARK                         _______ _______ _______ _____ _____    ______ ____
ROOT
ATOM     10  C   UNL     1     -13.171  29.327  43.405  0.00  0.00    +0.038 A 
ATOM     11  C   UNL     1     -14.413  28.649  43.306  0.00  0.00    +0.047 A 
ATOM     12  C   UNL     1     -15.673  29.373  43.358  0.00  0.00    +0.035 A 
ATOM     32  C   UNL     1     -15.632  30.790  43.510  0.00  0.00    +0.024 A 
ATOM     33  C   UNL     1     -14.379  31.496  43.613  0.00  0.00    +0.007 A 
ATOM     34  C   UNL     1     -13.133  30.786  43.564  0.00  0.00    -0.029 A 
ATOM     35  C   UNL     1     -11.820  31.594  43.686  0.00  0.00    +0.045 C 
ENDROOT
BRANCH  10   9
ATOM      4  C   UNL     1      -9.491  27.404  40.998  0.00  0.00    +0.077 A 
ATOM      5  C   UNL     1      -9.973  27.905  39.743  0.00  0.00    +0.048 A 
ATOM      6  C   UNL     1     -11.176  28.646  39.759  0.00  0.00    +0.116 A 
ATOM      7  N   UNL     1     -11.838  28.865  40.947  0.00  0.00    -0.223 NA
ATOM      8  C   UNL     1     -11.346  28.367  42.140  0.00  0.00    +0.220 A 
ATOM      9  N   UNL     1     -11.992  28.582  43.348  0.00  0.00    -0.283 N 
ATOM     36  H   UNL     1     -11.601  28.191  44.205  0.00  0.00    +0.155 HD
ATOM     37  N   UNL     1     -10.201  27.655  42.151  0.00  0.00    -0.214 NA
BRANCH   4   3
ATOM      1  C   UNL     1      -6.965  24.538  41.835  0.00  0.00    +0.020 A 
ATOM      2  C   UNL     1      -8.207  25.266  41.717  0.00  0.00    +0.013 A 
ATOM      3  C   UNL     1      -8.233  26.606  41.144  0.00  0.00    +0.019 A 
ATOM     38  C   UNL     1      -6.975  27.185  40.697  0.00  0.00    +0.120 A 
ATOM     39  N   UNL     1      -5.794  26.460  40.825  0.00  0.00    -0.263 NA
ATOM     40  C   UNL     1      -5.756  25.171  41.376  0.00  0.00    +0.111 A 
ENDBRANCH   4   3
ENDBRANCH  10   9
BRANCH  12  13
ATOM     13  N   UNL     1     -16.964  28.737  43.271  0.00  0.00    -0.281 N 
ATOM     14  C   UNL     1     -17.787  28.629  42.162  0.00  0.00    +0.248 C 
ATOM     30  O   UNL     1     -17.632  29.252  41.123  0.00  0.00    -0.270 OA
ATOM     31  H   UNL     1     -17.314  28.315  44.132  0.00  0.00    +0.155 HD
BRANCH  14  15
ATOM     15  C   UNL     1     -18.960  27.705  42.222  0.00  0.00    +0.037 A 
ATOM     16  C   UNL     1     -18.895  26.440  42.957  0.00  0.00    +0.013 A 
ATOM     17  C   UNL     1     -20.036  25.559  42.984  0.00  0.00    +0.005 A 
ATOM     18  C   UNL     1     -21.253  25.942  42.273  0.00  0.00    -0.033 A 
ATOM     28  C   UNL     1     -21.293  27.206  41.556  0.00  0.00    +0.005 A 
ATOM     29  C   UNL     1     -20.176  28.071  41.526  0.00  0.00    +0.013 A 
BRANCH  18  19
ATOM     19  C   UNL     1     -22.511  25.055  42.230  0.00  0.00    +0.119 C 
BRANCH  19  20
ATOM     20  N   UNL     1     -22.899  24.356  43.492  0.00  0.00    -0.302 NA
ATOM     21  C   UNL     1     -23.229  22.880  43.253  0.00  0.00    +0.066 C 
ATOM     22  C   UNL     1     -23.610  22.158  44.587  0.00  0.00    -0.064 C 
ATOM     23  N   UNL     1     -24.793  22.880  45.234  0.00  0.00    +0.379 N 
ATOM     24  C   UNL     1     -25.191  22.170  46.458  0.00  0.00    -0.096 C 
ATOM     25  H   UNL     1     -25.649  22.832  44.521  0.00  0.00    -0.082 HD
ATOM     26  C   UNL     1     -24.474  24.349  45.472  0.00  0.00    -0.064 C 
ATOM     27  C   UNL     1     -24.068  25.050  44.145  0.00  0.00    +0.066 C 
ENDBRANCH  19  20
ENDBRANCH  18  19
ENDBRANCH  14  15
ENDBRANCH  12  13
TORSDOF 6
ENDMDL
MODEL 2
REMARK VINA RESULT:      -7.4      2.783     13.046
REMARK  Name = C:\Users\Docking\Desktop\test protocol\1iep_ligandH.pdb
REMARK  8 active torsions:
REMARK  status: ('A' for Active; 'I' for Inactive)
REMARK    1  A    between atoms: _5  and  _11
REMARK    2  A    between atoms: _19  and  _21
REMARK    3  A    between atoms: _22  and  _66
REMARK    4  A    between atoms: _27  and  _30
REMARK    5  A    between atoms: _32  and  _33
REMARK    6  A    between atoms: _38  and  _43
REMARK    7  A    between atoms: _43  and  _46
REMARK    8  A    between atoms: _53  and  _55
REMARK                            x       y       z     vdW  Elec       q    Type
REMARK                         _______ _______ _______ _____ _____    ______ ____
ROOT
ATOM     10  C   UNL     1     -14.065  28.658  42.763  0.00  0.00    +0.038 A 
ATOM     11  C   UNL     1     -12.875  27.912  42.565  0.00  0.00    +0.047 A 
ATOM     12  C   UNL     1     -11.566  28.525  42.727  0.00  0.00    +0.035 A 
ATOM     32  C   UNL     1     -11.506  29.901  43.094  0.00  0.00    +0.024 A 
ATOM     33  C   UNL     1     -12.706  30.675  43.297  0.00  0.00    +0.007 A 
ATOM     34  C   UNL     1     -13.999  30.076  43.137  0.00  0.00    -0.029 A 
ATOM     35  C   UNL     1     -15.252  30.955  43.361  0.00  0.00    +0.045 C 
ENDROOT
BRANCH  10   9
ATOM      4  C   UNL     1     -17.607  25.817  44.319  0.00  0.00    +0.077 A 
ATOM      5  C   UNL     1     -16.938  25.564  45.562  0.00  0.00    +0.048 A 
ATOM      6  C   UNL     1     -15.680  26.178  45.759  0.00  0.00    +0.116 A 
ATOM      7  N   UNL     1     -15.143  26.984  44.779  0.00  0.00    -0.223 NA
ATOM      8  C   UNL     1     -15.814  27.206  43.590  0.00  0.00    +0.220 A 
ATOM      9  N   UNL     1     -15.295  28.018  42.594  0.00  0.00    -0.283 N 
ATOM     36  H   UNL     1     -15.818  28.151  41.728  0.00  0.00    +0.155 HD
ATOM     37  N   UNL     1     -17.015  26.629  43.377  0.00  0.00    -0.214 NA
BRANCH   4   3
ATOM      1  C   UNL     1     -21.054  25.177  42.584  0.00  0.00    +0.020 A 
ATOM      2  C   UNL     1     -19.771  25.769  42.886  0.00  0.00    +0.013 A 
ATOM      3  C   UNL     1     -18.943  25.242  43.964  0.00  0.00    +0.019 A 
ATOM     38  C   UNL     1     -19.445  24.106  44.721  0.00  0.00    +0.120 A 
ATOM     39  N   UNL     1     -20.685  23.557  44.408  0.00  0.00    -0.263 NA
ATOM     40  C   UNL     1     -21.492  24.057  43.375  0.00  0.00    +0.111 A 
ENDBRANCH   4   3
ENDBRANCH  10   9
BRANCH  12  13
ATOM     13  N   UNL     1     -10.324  27.820  42.532  0.00  0.00    -0.281 N 
ATOM     14  C   UNL     1      -9.930  27.078  41.430  0.00  0.00    +0.248 C 
ATOM     30  O   UNL     1     -10.677  26.731  40.527  0.00  0.00    -0.270 OA
ATOM     31  H   UNL     1      -9.654  27.873  43.299  0.00  0.00    +0.155 HD
BRANCH  14  15
ATOM     15  C   UNL     1      -8.502  26.649  41.322  0.00  0.00    +0.037 A 
ATOM     16  C   UNL     1      -7.460  27.579  40.881  0.00  0.00    +0.013 A 
ATOM     17  C   UNL     1      -6.093  27.134  40.770  0.00  0.00    +0.005 A 
ATOM     18  C   UNL     1      -5.762  25.750  41.102  0.00  0.00    -0.033 A 
ATOM     28  C   UNL     1      -6.814  24.850  41.542  0.00  0.00    +0.005 A 
ATOM     29  C   UNL     1      -8.155  25.283  41.651  0.00  0.00    +0.013 A 
BRANCH  18  19
ATOM     19  C   UNL     1      -4.334  25.183  40.992  0.00  0.00    +0.119 C 
BRANCH  19  20
ATOM     20  N   UNL     1      -3.987  24.028  41.872  0.00  0.00    -0.302 NA
ATOM     21  C   UNL     1      -2.882  24.380  42.872  0.00  0.00    +0.066 C 
ATOM     22  C   UNL     1      -2.547  23.167  43.801  0.00  0.00    -0.064 C 
ATOM     23  N   UNL     1      -2.140  21.968  42.942  0.00  0.00    +0.379 N 
ATOM     24  C   UNL     1      -1.769  20.844  43.814  0.00  0.00    -0.096 C 
ATOM     25  H   UNL     1      -1.233  22.261  42.363  0.00  0.00    -0.082 HD
ATOM     26  C   UNL     1      -3.232  21.614  41.943  0.00  0.00    -0.064 C 
ATOM     27  C   UNL     1      -3.577  22.834  41.045  0.00  0.00    +0.066 C 
ENDBRANCH  19  20
ENDBRANCH  18  19
ENDBRANCH  14  15
ENDBRANCH  12  13
TORSDOF 6
ENDMDL
MODEL 3
REMARK VINA RESULT:      -7.2      4.113      8.667
REMARK  Name = C:\Users\Docking\Desktop\test protocol\1iep_ligandH.pdb
REMARK  8 active torsions:
REMARK  status: ('A' for Active; 'I' for Inactive)
REMARK    1  A    between atoms: _5  and  _11
REMARK    2  A    between atoms: _19  and  _21
REMARK    3  A    between atoms: _22  and  _66
REMARK    4  A    between atoms: _27  and  _30
REMARK    5  A    between atoms: _32  and  _33
REMARK    6  A    between atoms: _38  and  _43
REMARK    7  A    between atoms: _43  and  _46
REMARK    8  A    between atoms: _53  and  _55
REMARK                            x       y       z     vdW  Elec       q    Type
REMARK                         _______ _______ _______ _____ _____    ______ ____
ROOT
ATOM     10  C   UNL     1      -5.350  27.416  39.894  0.00  0.00    +0.038 A 
ATOM     11  C   UNL     1      -6.566  27.415  40.624  0.00  0.00    +0.047 A 
ATOM     12  C   UNL     1      -7.444  28.575  40.625  0.00  0.00    +0.035 A 
ATOM     32  C   UNL     1      -7.054  29.718  39.869  0.00  0.00    +0.024 A 
ATOM     33  C   UNL     1      -5.820  29.737  39.122  0.00  0.00    +0.007 A 
ATOM     34  C   UNL     1      -4.949  28.597  39.120  0.00  0.00    -0.029 A 
ATOM     35  C   UNL     1      -3.636  28.675  38.306  0.00  0.00    +0.045 C 
ENDROOT
BRANCH  10   9
ATOM      4  C   UNL     1      -1.852  24.761  41.832  0.00  0.00    +0.077 A 
ATOM      5  C   UNL     1      -1.588  25.741  42.845  0.00  0.00    +0.048 A 
ATOM      6  C   UNL     1      -2.369  26.918  42.828  0.00  0.00    +0.116 A 
ATOM      7  N   UNL     1      -3.340  27.091  41.866  0.00  0.00    -0.223 NA
ATOM      8  C   UNL     1      -3.568  26.126  40.902  0.00  0.00    +0.220 A 
ATOM      9  N   UNL     1      -4.545  26.275  39.929  0.00  0.00    -0.283 N 
ATOM     36  H   UNL     1      -4.677  25.544  39.231  0.00  0.00    +0.155 HD
ATOM     37  N   UNL     1      -2.834  24.994  40.895  0.00  0.00    -0.214 NA
BRANCH   4   3
ATOM      1  C   UNL     1       0.638  21.815  42.482  0.00  0.00    +0.020 A 
ATOM      2  C   UNL     1      -0.045  23.079  42.634  0.00  0.00    +0.013 A 
ATOM      3  C   UNL     1      -1.112  23.464  41.719  0.00  0.00    +0.019 A 
ATOM     38  C   UNL     1      -1.469  22.539  40.654  0.00  0.00    +0.120 A 
ATOM     39  N   UNL     1      -0.793  21.329  40.531  0.00  0.00    -0.263 NA
ATOM     40  C   UNL     1       0.237  20.949  41.404  0.00  0.00    +0.111 A 
ENDBRANCH   4   3
ENDBRANCH  10   9
BRANCH  12  13
ATOM     13  N   UNL     1      -8.687  28.635  41.353  0.00  0.00    -0.281 N 
ATOM     14  C   UNL     1      -9.066  29.554  42.318  0.00  0.00    +0.248 C 
ATOM     30  O   UNL     1      -8.304  30.344  42.856  0.00  0.00    -0.270 OA
ATOM     31  H   UNL     1      -9.371  27.911  41.131  0.00  0.00    +0.155 HD
BRANCH  14  15
ATOM     15  C   UNL     1     -10.493  29.593  42.757  0.00  0.00    +0.037 A 
ATOM     16  C   UNL     1     -11.101  30.829  43.257  0.00  0.00    +0.013 A 
ATOM     17  C   UNL     1     -12.476  30.835  43.691  0.00  0.00    +0.005 A 
ATOM     18  C   UNL     1     -13.253  29.599  43.625  0.00  0.00    -0.033 A 
ATOM     28  C   UNL     1     -12.627  28.389  43.120  0.00  0.00    +0.005 A 
ATOM     29  C   UNL     1     -11.279  28.379  42.695  0.00  0.00    +0.013 A 
BRANCH  18  19
ATOM     19  C   UNL     1     -14.720  29.508  44.087  0.00  0.00    +0.119 C 
BRANCH  19  20
ATOM     20  N   UNL     1     -15.305  28.143  44.237  0.00  0.00    -0.302 NA
ATOM     21  C   UNL     1     -16.742  28.073  43.711  0.00  0.00    +0.066 C 
ATOM     22  C   UNL     1     -17.331  26.632  43.855  0.00  0.00    -0.064 C 
ATOM     23  N   UNL     1     -17.270  26.203  45.322  0.00  0.00    +0.379 N 
ATOM     24  C   UNL     1     -17.877  24.872  45.471  0.00  0.00    -0.096 C 
ATOM     25  H   UNL     1     -17.886  26.923  45.911  0.00  0.00    -0.082 HD
ATOM     26  C   UNL     1     -15.846  26.273  45.854  0.00  0.00    -0.064 C 
ATOM     27  C   UNL     1     -15.259  27.701  45.679  0.00  0.00    +0.066 C 
ENDBRANCH  19  20
ENDBRANCH  18  19
ENDBRANCH  14  15
ENDBRANCH  12  13
TORSDOF 6
ENDMDL
MODEL 4
REMARK VINA RESULT:      -7.2     11.763     18.176
REMARK  Name = C:\Users\Docking\Desktop\test protocol\1iep_ligandH.pdb
REMARK  8 active torsions:
REMARK  status: ('A' for Active; 'I' for Inactive)
REMARK    1  A    between atoms: _5  and  _11
REMARK    2  A    between atoms: _19  and  _21
REMARK    3  A    between atoms: _22  and  _66
REMARK    4  A    between atoms: _27  and  _30
REMARK    5  A    between atoms: _32  and  _33
REMARK    6  A    between atoms: _38  and  _43
REMARK    7  A    between atoms: _43  and  _46
REMARK    8  A    between atoms: _53  and  _55
REMARK                            x       y       z     vdW  Elec       q    Type
REMARK                         _______ _______ _______ _____ _____    ______ ____
ROOT
ATOM     10  C   UNL     1     -26.049  17.116  48.257  0.00  0.00    +0.038 A 
ATOM     11  C   UNL     1     -25.016  16.150  48.366  0.00  0.00    +0.047 A 
ATOM     12  C   UNL     1     -25.316  14.754  48.639  0.00  0.00    +0.035 A 
ATOM     32  C   UNL     1     -26.682  14.374  48.794  0.00  0.00    +0.024 A 
ATOM     33  C   UNL     1     -27.745  15.343  48.687  0.00  0.00    +0.007 A 
ATOM     34  C   UNL     1     -27.454  16.722  48.420  0.00  0.00    -0.029 A 
ATOM     35  C   UNL     1     -28.633  17.718  48.323  0.00  0.00    +0.045 C 
ENDROOT
BRANCH  10   9
ATOM      4  C   UNL     1     -25.478  20.826  45.266  0.00  0.00    +0.077 A 
ATOM      5  C   UNL     1     -25.877  20.048  44.129  0.00  0.00    +0.048 A 
ATOM      6  C   UNL     1     -26.214  18.694  44.356  0.00  0.00    +0.116 A 
ATOM      7  N   UNL     1     -26.154  18.170  45.629  0.00  0.00    -0.223 NA
ATOM      8  C   UNL     1     -25.764  18.948  46.703  0.00  0.00    +0.220 A 
ATOM      9  N   UNL     1     -25.703  18.443  47.993  0.00  0.00    -0.283 N 
ATOM     36  H   UNL     1     -25.404  19.047  48.757  0.00  0.00    +0.155 HD
ATOM     37  N   UNL     1     -25.435  20.243  46.513  0.00  0.00    -0.214 NA
BRANCH   4   3
ATOM      1  C   UNL     1     -24.328  24.440  46.225  0.00  0.00    +0.020 A 
ATOM      2  C   UNL     1     -24.688  23.047  46.354  0.00  0.00    +0.013 A 
ATOM      3  C   UNL     1     -25.095  22.272  45.189  0.00  0.00    +0.019 A 
ATOM     38  C   UNL     1     -25.126  22.941  43.897  0.00  0.00    +0.120 A 
ATOM     39  N   UNL     1     -24.775  24.284  43.804  0.00  0.00    -0.263 NA
ATOM     40  C   UNL     1     -24.384  25.041  44.918  0.00  0.00    +0.111 A 
ENDBRANCH   4   3
ENDBRANCH  10   9
BRANCH  12  13
ATOM     13  N   UNL     1     -24.309  13.731  48.769  0.00  0.00    -0.281 N 
ATOM     14  C   UNL     1     -24.035  12.689  47.897  0.00  0.00    +0.248 C 
ATOM     30  O   UNL     1     -24.761  12.353  46.973  0.00  0.00    -0.270 OA
ATOM     31  H   UNL     1     -23.726  13.780  49.605  0.00  0.00    +0.155 HD
BRANCH  14  15
ATOM     15  C   UNL     1     -22.782  11.898  48.088  0.00  0.00    +0.037 A 
ATOM     16  C   UNL     1     -22.172  11.747  49.412  0.00  0.00    +0.013 A 
ATOM     17  C   UNL     1     -20.954  10.993  49.565  0.00  0.00    +0.005 A 
ATOM     18  C   UNL     1     -20.337  10.382  48.390  0.00  0.00    -0.033 A 
ATOM     28  C   UNL     1     -20.966  10.542  47.090  0.00  0.00    +0.005 A 
ATOM     29  C   UNL     1     -22.160  11.282  46.935  0.00  0.00    +0.013 A 
BRANCH  18  19
ATOM     19  C   UNL     1     -19.025   9.577  48.457  0.00  0.00    +0.119 C 
BRANCH  19  20
ATOM     20  N   UNL     1     -18.367   9.453  49.792  0.00  0.00    -0.302 NA
ATOM     21  C   UNL     1     -17.089  10.291  49.882  0.00  0.00    +0.066 C 
ATOM     22  C   UNL     1     -16.425  10.167  51.293  0.00  0.00    -0.064 C 
ATOM     23  N   UNL     1     -16.129   8.696  51.586  0.00  0.00    +0.379 N 
ATOM     24  C   UNL     1     -15.453   8.581  52.886  0.00  0.00    -0.096 C 
ATOM     25  H   UNL     1     -15.424   8.330  50.804  0.00  0.00    -0.082 HD
ATOM     26  C   UNL     1     -17.395   7.854  51.496  0.00  0.00    -0.064 C 
ATOM     27  C   UNL     1     -18.062   8.008  50.101  0.00  0.00    +0.066 C 
ENDBRANCH  19  20
ENDBRANCH  18  19
ENDBRANCH  14  15
ENDBRANCH  12  13
TORSDOF 6
ENDMDL
MODEL 5
REMARK VINA RESULT:      -7.2     10.555     16.239
REMARK  Name = C:\Users\Docking\Desktop\test protocol\1iep_ligandH.pdb
REMARK  8 active torsions:
REMARK  status: ('A' for Active; 'I' for Inactive)
REMARK    1  A    between atoms: _5  and  _11
REMARK    2  A    between atoms: _19  and  _21
REMARK    3  A    between atoms: _22  and  _66
REMARK    4  A    between atoms: _27  and  _30
REMARK    5  A    between atoms: _32  and  _33
REMARK    6  A    between atoms: _38  and  _43
REMARK    7  A    between atoms: _43  and  _46
REMARK    8  A    between atoms: _53  and  _55
REMARK                            x       y       z     vdW  Elec       q    Type
REMARK                         _______ _______ _______ _____ _____    ______ ____
ROOT
ATOM     10  C   UNL     1     -25.833  15.610  48.443  0.00  0.00    +0.038 A 
ATOM     11  C   UNL     1     -25.412  16.818  47.832  0.00  0.00    +0.047 A 
ATOM     12  C   UNL     1     -26.375  17.755  47.273  0.00  0.00    +0.035 A 
ATOM     32  C   UNL     1     -27.760  17.429  47.356  0.00  0.00    +0.024 A 
ATOM     33  C   UNL     1     -28.206  16.205  47.973  0.00  0.00    +0.007 A 
ATOM     34  C   UNL     1     -27.260  15.276  48.524  0.00  0.00    -0.029 A 
ATOM     35  C   UNL     1     -27.795  13.975  49.168  0.00  0.00    +0.045 C 
ENDROOT
BRANCH  10   9
ATOM      4  C   UNL     1     -22.500  12.192  47.943  0.00  0.00    +0.077 A 
ATOM      5  C   UNL     1     -22.724  12.098  46.529  0.00  0.00    +0.048 A 
ATOM      6  C   UNL     1     -23.711  12.941  45.971  0.00  0.00    +0.116 A 
ATOM      7  N   UNL     1     -24.415  13.810  46.776  0.00  0.00    -0.223 NA
ATOM      8  C   UNL     1     -24.175  13.875  48.136  0.00  0.00    +0.220 A 
ATOM      9  N   UNL     1     -24.865  14.747  48.964  0.00  0.00    -0.283 N 
ATOM     36  H   UNL     1     -24.664  14.760  49.963  0.00  0.00    +0.155 HD
ATOM     37  N   UNL     1     -23.239  13.079  48.694  0.00  0.00    -0.214 NA
BRANCH   4   3
ATOM      1  C   UNL     1     -19.630   9.667  48.770  0.00  0.00    +0.020 A 
ATOM      2  C   UNL     1     -20.588  10.438  48.013  0.00  0.00    +0.013 A 
ATOM      3  C   UNL     1     -21.489  11.370  48.679  0.00  0.00    +0.019 A 
ATOM     38  C   UNL     1     -21.393  11.499  50.126  0.00  0.00    +0.120 A 
ATOM     39  N   UNL     1     -20.461  10.743  50.829  0.00  0.00    -0.263 NA
ATOM     40  C   UNL     1     -19.590   9.842  50.198  0.00  0.00    +0.111 A 
ENDBRANCH   4   3
ENDBRANCH  10   9
BRANCH  12  13
ATOM     13  N   UNL     1     -26.005  18.993  46.634  0.00  0.00    -0.281 N 
ATOM     14  C   UNL     1     -26.000  20.266  47.181  0.00  0.00    +0.248 C 
ATOM     30  O   UNL     1     -26.520  20.562  48.247  0.00  0.00    -0.270 OA
ATOM     31  H   UNL     1     -25.712  18.923  45.659  0.00  0.00    +0.155 HD
BRANCH  14  15
ATOM     15  C   UNL     1     -25.335  21.373  46.429  0.00  0.00    +0.037 A 
ATOM     16  C   UNL     1     -25.074  22.670  47.058  0.00  0.00    +0.013 A 
ATOM     17  C   UNL     1     -24.446  23.726  46.305  0.00  0.00    +0.005 A 
ATOM     18  C   UNL     1     -24.073  23.488  44.912  0.00  0.00    -0.033 A 
ATOM     28  C   UNL     1     -24.339  22.190  44.314  0.00  0.00    +0.005 A 
ATOM     29  C   UNL     1     -24.955  21.153  45.049  0.00  0.00    +0.013 A 
BRANCH  18  19
ATOM     19  C   UNL     1     -23.418  24.564  44.027  0.00  0.00    +0.119 C 
BRANCH  19  20
ATOM     20  N   UNL     1     -24.230  25.109  42.898  0.00  0.00    -0.302 NA
ATOM     21  C   UNL     1     -23.514  26.251  42.173  0.00  0.00    +0.066 C 
ATOM     22  C   UNL     1     -24.368  26.794  40.982  0.00  0.00    -0.064 C 
ATOM     23  N   UNL     1     -25.731  27.254  41.503  0.00  0.00    +0.379 N 
ATOM     24  C   UNL     1     -26.515  27.819  40.395  0.00  0.00    -0.096 C 
ATOM     25  H   UNL     1     -25.552  28.070  42.241  0.00  0.00    -0.082 HD
ATOM     26  C   UNL     1     -26.449  26.125  42.228  0.00  0.00    -0.064 C 
ATOM     27  C   UNL     1     -25.579  25.573  43.392  0.00  0.00    +0.066 C 
ENDBRANCH  19  20
ENDBRANCH  18  19
ENDBRANCH  14  15
ENDBRANCH  12  13
TORSDOF 6
ENDMDL
