MODEL 1
REMARK VINA RESULT:      -7.9      0.000      0.000
REMARK  Name = C:\Users\Docking\Desktop\test protocol\1iep_ligandH.pdb
REMARK  8 active torsions:
REMARK  status: ('A' for Active; 'I' for Inactive)
REMARK    1  A    between atoms: _5  and  _11
REMARK    2  A    between atoms: _19  and  _21
REMARK    3  A    between atoms: _22  and  _66
REMARK    4  A    between atoms: _27  and  _30
REMARK    5  A    between atoms: _32  and  _33
REMARK    6  A    between atoms: _38  and  _43
REMARK    7  A    between atoms: _43  and  _46
REMARK    8  A    between atoms: _53  and  _55
REMARK                            x       y       z     vdW  Elec       q    Type
REMARK                         _______ _______ _______ _____ _____    ______ ____
ROOT
ATOM     10  C   UNL     1      18.966  20.520  12.939  0.00  0.00    +0.038 A 
ATOM     11  C   UNL     1      17.927  19.564  12.801  0.00  0.00    +0.047 A 
ATOM     12  C   UNL     1      17.588  19.003  11.502  0.00  0.00    +0.035 A 
ATOM     32  C   UNL     1      18.330  19.437  10.364  0.00  0.00    +0.024 A 
ATOM     33  C   UNL     1      19.388  20.408  10.487  0.00  0.00    +0.007 A 
ATOM     34  C   UNL     1      19.725  20.967  11.765  0.00  0.00    -0.029 A 
ATOM     35  C   UNL     1      20.865  22.010  11.836  0.00  0.00    +0.045 C 
ENDROOT
BRANCH  10   9
ATOM      4  C   UNL     1      18.154  23.561  16.562  0.00  0.00    +0.077 A 
ATOM      5  C   UNL     1      17.094  24.217  15.852  0.00  0.00    +0.048 A 
ATOM      6  C   UNL     1      16.793  23.746  14.555  0.00  0.00    +0.116 A 
ATOM      7  N   UNL     1      17.506  22.696  14.017  0.00  0.00    -0.223 NA
ATOM      8  C   UNL     1      18.524  22.087  14.728  0.00  0.00    +0.220 A 
ATOM      9  N   UNL     1      19.249  21.025  14.210  0.00  0.00    -0.283 N 
ATOM     36  H   UNL     1      19.997  20.607  14.763  0.00  0.00    +0.155 HD
ATOM     37  N   UNL     1      18.831  22.519  15.968  0.00  0.00    -0.214 NA
BRANCH   4   3
ATOM      1  C   UNL     1      18.999  23.429  20.379  0.00  0.00    +0.020 A 
ATOM      2  C   UNL     1      18.570  23.011  19.065  0.00  0.00    +0.013 A 
ATOM      3  C   UNL     1      18.588  23.942  17.944  0.00  0.00    +0.019 A 
ATOM     38  C   UNL     1      19.050  25.300  18.188  0.00  0.00    +0.120 A 
ATOM     39  N   UNL     1      19.456  25.675  19.465  0.00  0.00    -0.263 NA
ATOM     40  C   UNL     1      19.442  24.788  20.552  0.00  0.00    +0.111 A 
ENDBRANCH   4   3
ENDBRANCH  10   9
BRANCH  12  13
ATOM     13  N   UNL     1      16.538  18.036  11.299  0.00  0.00    -0.281 N 
ATOM     14  C   UNL     1      16.657  16.660  11.191  0.00  0.00    +0.248 C 
ATOM     30  O   UNL     1      17.715  16.068  11.040  0.00  0.00    -0.270 OA
ATOM     31  H   UNL     1      15.592  18.411  11.225  0.00  0.00    +0.155 HD
BRANCH  14  15
ATOM     15  C   UNL     1      15.421  15.822  11.246  0.00  0.00    +0.037 A 
ATOM     16  C   UNL     1      15.395  14.554  11.979  0.00  0.00    +0.013 A 
ATOM     17  C   UNL     1      14.194  13.756  12.002  0.00  0.00    +0.005 A 
ATOM     18  C   UNL     1      13.008  14.227  11.290  0.00  0.00    -0.033 A 
ATOM     28  C   UNL     1      13.060  15.491  10.575  0.00  0.00    +0.005 A 
ATOM     29  C   UNL     1      14.236  16.275  10.550  0.00  0.00    +0.013 A 
BRANCH  18  19
ATOM     19  C   UNL     1      11.690  13.431  11.243  0.00  0.00    +0.119 C 
BRANCH  19  20
ATOM     20  N   UNL     1      10.480  14.077  11.831  0.00  0.00    -0.302 NA
ATOM     21  C   UNL     1      10.395  13.868  13.345  0.00  0.00    +0.066 C 
ATOM     22  C   UNL     1       9.135  14.570  13.947  0.00  0.00    -0.064 C 
ATOM     23  N   UNL     1       7.878  14.037  13.256  0.00  0.00    +0.379 N 
ATOM     24  C   UNL     1       6.688  14.653  13.860  0.00  0.00    -0.096 C 
ATOM     25  H   UNL     1       7.827  12.940  13.448  0.00  0.00    -0.082 HD
ATOM     26  C   UNL     1       7.955  14.239  11.750  0.00  0.00    -0.064 C 
ATOM     27  C   UNL     1       9.227  13.562  11.166  0.00  0.00    +0.066 C 
ENDBRANCH  19  20
ENDBRANCH  18  19
ENDBRANCH  14  15
ENDBRANCH  12  13
TORSDOF 6
ENDMDL
MODEL 2
REMARK VINA RESULT:      -7.8     20.754     22.056
REMARK  Name = C:\Users\Docking\Desktop\test protocol\1iep_ligandH.pdb
REMARK  8 active torsions:
REMARK  status: ('A' for Active; 'I' for Inactive)
REMARK    1  A    between atoms: _5  and  _11
REMARK    2  A    between atoms: _19  and  _21
REMARK    3  A    between atoms: _22  and  _66
REMARK    4  A    between atoms: _27  and  _30
REMARK    5  A    between atoms: _32  and  _33
REMARK    6  A    between atoms: _38  and  _43
REMARK    7  A    between atoms: _43  and  _46
REMARK    8  A    between atoms: _53  and  _55
REMARK                            x       y       z     vdW  Elec       q    Type
REMARK                         _______ _______ _______ _____ _____    ______ ____
ROOT
ATOM     10  C   UNL     1      26.628   4.434   1.873  0.00  0.00    +0.038 A 
ATOM     11  C   UNL     1      25.611   4.008   2.765  0.00  0.00    +0.047 A 
ATOM     12  C   UNL     1      25.800   2.849   3.623  0.00  0.00    +0.035 A 
ATOM     32  C   UNL     1      27.040   2.148   3.548  0.00  0.00    +0.024 A 
ATOM     33  C   UNL     1      28.084   2.567   2.647  0.00  0.00    +0.007 A 
ATOM     34  C   UNL     1      27.902   3.708   1.796  0.00  0.00    -0.029 A 
ATOM     35  C   UNL     1      29.053   4.108   0.844  0.00  0.00    +0.045 C 
ENDROOT
BRANCH  10   9
ATOM      4  C   UNL     1      24.971   6.504  -2.128  0.00  0.00    +0.077 A 
ATOM      5  C   UNL     1      24.564   5.244  -2.682  0.00  0.00    +0.048 A 
ATOM      6  C   UNL     1      24.805   4.087  -1.908  0.00  0.00    +0.116 A 
ATOM      7  N   UNL     1      25.409   4.193  -0.674  0.00  0.00    -0.223 NA
ATOM      8  C   UNL     1      25.791   5.423  -0.170  0.00  0.00    +0.220 A 
ATOM      9  N   UNL     1      26.393   5.554   1.072  0.00  0.00    -0.283 N 
ATOM     36  H   UNL     1      26.667   6.478   1.404  0.00  0.00    +0.155 HD
ATOM     37  N   UNL     1      25.573   6.543  -0.891  0.00  0.00    -0.214 NA
BRANCH   4   3
ATOM      1  C   UNL     1      25.403   9.536  -4.562  0.00  0.00    +0.020 A 
ATOM      2  C   UNL     1      25.629   8.260  -3.924  0.00  0.00    +0.013 A 
ATOM      3  C   UNL     1      24.781   7.816  -2.824  0.00  0.00    +0.019 A 
ATOM     38  C   UNL     1      23.705   8.694  -2.391  0.00  0.00    +0.120 A 
ATOM     39  N   UNL     1      23.512   9.918  -3.023  0.00  0.00    -0.263 NA
ATOM     40  C   UNL     1      24.322  10.357  -4.082  0.00  0.00    +0.111 A 
ENDBRANCH   4   3
ENDBRANCH  10   9
BRANCH  12  13
ATOM     13  N   UNL     1      24.801   2.364   4.542  0.00  0.00    -0.281 N 
ATOM     14  C   UNL     1      23.452   2.157   4.303  0.00  0.00    +0.248 C 
ATOM     30  O   UNL     1      22.856   2.562   3.316  0.00  0.00    -0.270 OA
ATOM     31  H   UNL     1      25.127   2.148   5.484  0.00  0.00    +0.155 HD
BRANCH  14  15
ATOM     15  C   UNL     1      22.647   1.404   5.312  0.00  0.00    +0.037 A 
ATOM     16  C   UNL     1      23.279   0.783   6.478  0.00  0.00    +0.013 A 
ATOM     17  C   UNL     1      22.482   0.047   7.427  0.00  0.00    +0.005 A 
ATOM     18  C   UNL     1      21.041  -0.069   7.214  0.00  0.00    -0.033 A 
ATOM     28  C   UNL     1      20.439   0.562   6.051  0.00  0.00    +0.005 A 
ATOM     29  C   UNL     1      21.218   1.283   5.118  0.00  0.00    +0.013 A 
BRANCH  18  19
ATOM     19  C   UNL     1      20.116  -0.852   8.164  0.00  0.00    +0.119 C 
BRANCH  19  20
ATOM     20  N   UNL     1      19.168  -1.827   7.546  0.00  0.00    -0.302 NA
ATOM     21  C   UNL     1      17.710  -1.384   7.693  0.00  0.00    +0.066 C 
ATOM     22  C   UNL     1      16.734  -2.404   7.021  0.00  0.00    -0.064 C 
ATOM     23  N   UNL     1      16.945  -3.788   7.637  0.00  0.00    +0.379 N 
ATOM     24  C   UNL     1      15.989  -4.737   7.048  0.00  0.00    -0.096 C 
ATOM     25  H   UNL     1      16.718  -3.711   8.726  0.00  0.00    -0.082 HD
ATOM     26  C   UNL     1      18.393  -4.236   7.497  0.00  0.00    -0.064 C 
ATOM     27  C   UNL     1      19.356  -3.200   8.142  0.00  0.00    +0.066 C 
ENDBRANCH  19  20
ENDBRANCH  18  19
ENDBRANCH  14  15
ENDBRANCH  12  13
TORSDOF 6
ENDMDL
MODEL 3
REMARK VINA RESULT:      -7.8      2.958      3.388
REMARK  Name = C:\Users\Docking\Desktop\test protocol\1iep_ligandH.pdb
REMARK  8 active torsions:
REMARK  status: ('A' for Active; 'I' for Inactive)
REMARK    1  A    between atoms: _5  and  _11
REMARK    2  A    between atoms: _19  and  _21
REMARK    3  A    between atoms: _22  and  _66
REMARK    4  A    between atoms: _27  and  _30
REMARK    5  A    between atoms: _32  and  _33
REMARK    6  A    between atoms: _38  and  _43
REMARK    7  A    between atoms: _43  and  _46
REMARK    8  A    between atoms: _53  and  _55
REMARK                            x       y       z     vdW  Elec       q    Type
REMARK                         _______ _______ _______ _____ _____    ______ ____
ROOT
ATOM     10  C   UNL     1      19.923  19.010  13.744  0.00  0.00    +0.038 A 
ATOM     11  C   UNL     1      18.781  18.222  13.451  0.00  0.00    +0.047 A 
ATOM     12  C   UNL     1      18.002  18.446  12.243  0.00  0.00    +0.035 A 
ATOM     32  C   UNL     1      18.417  19.479  11.353  0.00  0.00    +0.024 A 
ATOM     33  C   UNL     1      19.576  20.290  11.636  0.00  0.00    +0.007 A 
ATOM     34  C   UNL     1      20.346  20.075  12.827  0.00  0.00    -0.029 A 
ATOM     35  C   UNL     1      21.575  20.979  13.082  0.00  0.00    +0.045 C 
ENDROOT
BRANCH  10   9
ATOM      4  C   UNL     1      20.593  19.470  18.474  0.00  0.00    +0.077 A 
ATOM      5  C   UNL     1      19.445  20.318  18.614  0.00  0.00    +0.048 A 
ATOM      6  C   UNL     1      18.713  20.618  17.443  0.00  0.00    +0.116 A 
ATOM      7  N   UNL     1      19.109  20.102  16.228  0.00  0.00    -0.223 NA
ATOM      8  C   UNL     1      20.223  19.288  16.128  0.00  0.00    +0.220 A 
ATOM      9  N   UNL     1      20.634  18.751  14.918  0.00  0.00    -0.283 N 
ATOM     36  H   UNL     1      21.465  18.161  14.885  0.00  0.00    +0.155 HD
ATOM     37  N   UNL     1      20.939  18.988  17.231  0.00  0.00    -0.214 NA
BRANCH   4   3
ATOM      1  C   UNL     1      23.080  17.482  20.748  0.00  0.00    +0.020 A 
ATOM      2  C   UNL     1      22.252  17.832  19.616  0.00  0.00    +0.013 A 
ATOM      3  C   UNL     1      21.466  19.059  19.619  0.00  0.00    +0.019 A 
ATOM     38  C   UNL     1      21.542  19.919  20.791  0.00  0.00    +0.120 A 
ATOM     39  N   UNL     1      22.346  19.555  21.867  0.00  0.00    -0.263 NA
ATOM     40  C   UNL     1      23.106  18.376  21.876  0.00  0.00    +0.111 A 
ENDBRANCH   4   3
ENDBRANCH  10   9
BRANCH  12  13
ATOM     13  N   UNL     1      16.828  17.684  11.897  0.00  0.00    -0.281 N 
ATOM     14  C   UNL     1      16.765  16.473  11.227  0.00  0.00    +0.248 C 
ATOM     30  O   UNL     1      17.703  15.964  10.631  0.00  0.00    -0.270 OA
ATOM     31  H   UNL     1      15.934  18.085  12.182  0.00  0.00    +0.155 HD
BRANCH  14  15
ATOM     15  C   UNL     1      15.470  15.728  11.202  0.00  0.00    +0.037 A 
ATOM     16  C   UNL     1      15.335  14.419  11.846  0.00  0.00    +0.013 A 
ATOM     17  C   UNL     1      14.079  13.713  11.792  0.00  0.00    +0.005 A 
ATOM     18  C   UNL     1      12.948  14.316  11.092  0.00  0.00    -0.033 A 
ATOM     28  C   UNL     1      13.108  15.619  10.467  0.00  0.00    +0.005 A 
ATOM     29  C   UNL     1      14.338  16.313  10.517  0.00  0.00    +0.013 A 
BRANCH  18  19
ATOM     19  C   UNL     1      11.577  13.625  10.967  0.00  0.00    +0.119 C 
BRANCH  19  20
ATOM     20  N   UNL     1      10.408  14.306  11.600  0.00  0.00    -0.302 NA
ATOM     21  C   UNL     1      10.480  14.269  13.129  0.00  0.00    +0.066 C 
ATOM     22  C   UNL     1       9.261  15.005  13.775  0.00  0.00    -0.064 C 
ATOM     23  N   UNL     1       7.963  14.367  13.279  0.00  0.00    +0.379 N 
ATOM     24  C   UNL     1       6.816  15.018  13.928  0.00  0.00    -0.096 C 
ATOM     25  H   UNL     1       7.969  13.298  13.596  0.00  0.00    -0.082 HD
ATOM     26  C   UNL     1       7.884  14.396  11.759  0.00  0.00    -0.064 C 
ATOM     27  C   UNL     1       9.115  13.688  11.127  0.00  0.00    +0.066 C 
ENDBRANCH  19  20
ENDBRANCH  18  19
ENDBRANCH  14  15
ENDBRANCH  12  13
TORSDOF 6
ENDMDL
MODEL 4
REMARK VINA RESULT:      -7.7     20.518     25.298
REMARK  Name = C:\Users\Docking\Desktop\test protocol\1iep_ligandH.pdb
REMARK  8 active torsions:
REMARK  status: ('A' for Active; 'I' for Inactive)
REMARK    1  A    between atoms: _5  and  _11
REMARK    2  A    between atoms: _19  and  _21
REMARK    3  A    between atoms: _22  and  _66
REMARK    4  A    between atoms: _27  and  _30
REMARK    5  A    between atoms: _32  and  _33
REMARK    6  A    between atoms: _38  and  _43
REMARK    7  A    between atoms: _43  and  _46
REMARK    8  A    between atoms: _53  and  _55
REMARK                            x       y       z     vdW  Elec       q    Type
REMARK                         _______ _______ _______ _____ _____    ______ ____
ROOT
ATOM     10  C   UNL     1      17.393  -2.281   6.419  0.00  0.00    +0.038 A 
ATOM     11  C   UNL     1      17.462  -3.195   7.501  0.00  0.00    +0.047 A 
ATOM     12  C   UNL     1      16.562  -4.335   7.582  0.00  0.00    +0.035 A 
ATOM     32  C   UNL     1      15.606  -4.516   6.541  0.00  0.00    +0.024 A 
ATOM     33  C   UNL     1      15.520  -3.596   5.434  0.00  0.00    +0.007 A 
ATOM     34  C   UNL     1      16.404  -2.468   5.350  0.00  0.00    -0.029 A 
ATOM     35  C   UNL     1      16.263  -1.511   4.144  0.00  0.00    +0.045 C 
ENDROOT
BRANCH  10   9
ATOM      4  C   UNL     1      21.684  -0.357   5.462  0.00  0.00    +0.077 A 
ATOM      5  C   UNL     1      22.210  -1.610   5.003  0.00  0.00    +0.048 A 
ATOM      6  C   UNL     1      21.345  -2.727   5.035  0.00  0.00    +0.116 A 
ATOM      7  N   UNL     1      20.054  -2.589   5.495  0.00  0.00    -0.223 NA
ATOM      8  C   UNL     1      19.579  -1.367   5.932  0.00  0.00    +0.220 A 
ATOM      9  N   UNL     1      18.281  -1.203   6.391  0.00  0.00    -0.283 N 
ATOM     36  H   UNL     1      17.971  -0.286   6.712  0.00  0.00    +0.155 HD
ATOM     37  N   UNL     1      20.385  -0.285   5.912  0.00  0.00    -0.214 NA
BRANCH   4   3
ATOM      1  C   UNL     1      23.523   2.917   4.364  0.00  0.00    +0.020 A 
ATOM      2  C   UNL     1      22.756   1.695   4.287  0.00  0.00    +0.013 A 
ATOM      3  C   UNL     1      22.474   0.915   5.485  0.00  0.00    +0.019 A 
ATOM     38  C   UNL     1      22.986   1.404   6.757  0.00  0.00    +0.120 A 
ATOM     39  N   UNL     1      23.722   2.583   6.801  0.00  0.00    -0.263 NA
ATOM     40  C   UNL     1      24.002   3.341   5.654  0.00  0.00    +0.111 A 
ENDBRANCH   4   3
ENDBRANCH  10   9
BRANCH  12  13
ATOM     13  N   UNL     1      16.581  -5.291   8.661  0.00  0.00    -0.281 N 
ATOM     14  C   UNL     1      17.253  -6.502   8.715  0.00  0.00    +0.248 C 
ATOM     30  O   UNL     1      17.772  -7.047   7.752  0.00  0.00    -0.270 OA
ATOM     31  H   UNL     1      16.031  -5.047   9.485  0.00  0.00    +0.155 HD
BRANCH  14  15
ATOM     15  C   UNL     1      17.350  -7.216  10.024  0.00  0.00    +0.037 A 
ATOM     16  C   UNL     1      18.645  -7.627  10.571  0.00  0.00    +0.013 A 
ATOM     17  C   UNL     1      18.709  -8.330  11.828  0.00  0.00    +0.005 A 
ATOM     18  C   UNL     1      17.472  -8.625  12.547  0.00  0.00    -0.033 A 
ATOM     28  C   UNL     1      16.201  -8.201  11.984  0.00  0.00    +0.005 A 
ATOM     29  C   UNL     1      16.134  -7.513  10.752  0.00  0.00    +0.013 A 
BRANCH  18  19
ATOM     19  C   UNL     1      17.444  -9.389  13.884  0.00  0.00    +0.119 C 
BRANCH  19  20
ATOM     20  N   UNL     1      18.668  -9.320  14.737  0.00  0.00    -0.302 NA
ATOM     21  C   UNL     1      19.661 -10.439  14.409  0.00  0.00    +0.066 C 
ATOM     22  C   UNL     1      20.945 -10.338  15.295  0.00  0.00    -0.064 C 
ATOM     23  N   UNL     1      20.548 -10.382  16.772  0.00  0.00    +0.379 N 
ATOM     24  C   UNL     1      21.757 -10.346  17.607  0.00  0.00    -0.096 C 
ATOM     25  H   UNL     1      20.038 -11.356  16.956  0.00  0.00    -0.082 HD
ATOM     26  C   UNL     1      19.559  -9.274  17.106  0.00  0.00    -0.064 C 
ATOM     27  C   UNL     1      18.299  -9.366  16.200  0.00  0.00    +0.066 C 
ENDBRANCH  19  20
ENDBRANCH  18  19
ENDBRANCH  14  15
ENDBRANCH  12  13
TORSDOF 6
ENDMDL
MODEL 5
REMARK VINA RESULT:      -7.6     20.477     25.467
REMARK  Name = C:\Users\Docking\Desktop\test protocol\1iep_ligandH.pdb
REMARK  8 active torsions:
REMARK  status: ('A' for Active; 'I' for Inactive)
REMARK    1  A    between atoms: _5  and  _11
REMARK    2  A    between atoms: _19  and  _21
REMARK    3  A    between atoms: _22  and  _66
REMARK    4  A    between atoms: _27  and  _30
REMARK    5  A    between atoms: _32  and  _33
REMARK    6  A    between atoms: _38  and  _43
REMARK    7  A    between atoms: _43  and  _46
REMARK    8  A    between atoms: _53  and  _55
REMARK                            x       y       z     vdW  Elec       q    Type
REMARK                         _______ _______ _______ _____ _____    ______ ____
ROOT
ATOM     10  C   UNL     1      18.105  -3.328   7.809  0.00  0.00    +0.038 A 
ATOM     11  C   UNL     1      19.324  -2.609   7.722  0.00  0.00    +0.047 A 
ATOM     12  C   UNL     1      19.645  -1.813   6.548  0.00  0.00    +0.035 A 
ATOM     32  C   UNL     1      18.700  -1.769   5.482  0.00  0.00    +0.024 A 
ATOM     33  C   UNL     1      17.456  -2.495   5.554  0.00  0.00    +0.007 A 
ATOM     34  C   UNL     1      17.135  -3.284   6.708  0.00  0.00    -0.029 A 
ATOM     35  C   UNL     1      15.790  -4.047   6.728  0.00  0.00    +0.045 C 
ENDROOT
BRANCH  10   9
ATOM      4  C   UNL     1      18.147  -7.444  10.278  0.00  0.00    +0.077 A 
ATOM      5  C   UNL     1      18.704  -8.170   9.173  0.00  0.00    +0.048 A 
ATOM      6  C   UNL     1      18.958  -7.449   7.985  0.00  0.00    +0.116 A 
ATOM      7  N   UNL     1      18.673  -6.102   7.918  0.00  0.00    -0.223 NA
ATOM      8  C   UNL     1      18.135  -5.433   9.002  0.00  0.00    +0.220 A 
ATOM      9  N   UNL     1      17.848  -4.077   8.960  0.00  0.00    -0.283 N 
ATOM     36  H   UNL     1      17.445  -3.621   9.778  0.00  0.00    +0.155 HD
ATOM     37  N   UNL     1      17.882  -6.099  10.148  0.00  0.00    -0.214 NA
BRANCH   4   3
ATOM      1  C   UNL     1      16.220  -8.724  13.433  0.00  0.00    +0.020 A 
ATOM      2  C   UNL     1      16.477  -8.111  12.149  0.00  0.00    +0.013 A 
ATOM      3  C   UNL     1      17.827  -8.066  11.602  0.00  0.00    +0.019 A 
ATOM     38  C   UNL     1      18.903  -8.654  12.384  0.00  0.00    +0.120 A 
ATOM     39  N   UNL     1      18.627  -9.236  13.617  0.00  0.00    -0.263 NA
ATOM     40  C   UNL     1      17.332  -9.284  14.155  0.00  0.00    +0.111 A 
ENDBRANCH   4   3
ENDBRANCH  10   9
BRANCH  12  13
ATOM     13  N   UNL     1      20.871  -1.068   6.399  0.00  0.00    -0.281 N 
ATOM     14  C   UNL     1      21.203   0.149   6.971  0.00  0.00    +0.248 C 
ATOM     30  O   UNL     1      20.407   0.889   7.531  0.00  0.00    -0.270 OA
ATOM     31  H   UNL     1      21.580  -1.489   5.799  0.00  0.00    +0.155 HD
BRANCH  14  15
ATOM     15  C   UNL     1      22.620   0.619   6.898  0.00  0.00    +0.037 A 
ATOM     16  C   UNL     1      22.992   1.976   7.307  0.00  0.00    +0.013 A 
ATOM     17  C   UNL     1      24.364   2.410   7.211  0.00  0.00    +0.005 A 
ATOM     18  C   UNL     1      25.373   1.484   6.704  0.00  0.00    -0.033 A 
ATOM     28  C   UNL     1      24.977   0.142   6.310  0.00  0.00    +0.005 A 
ATOM     29  C   UNL     1      23.634  -0.286   6.402  0.00  0.00    +0.013 A 
BRANCH  18  19
ATOM     19  C   UNL     1      26.857   1.867   6.547  0.00  0.00    +0.119 C 
BRANCH  19  20
ATOM     20  N   UNL     1      27.679   1.940   7.791  0.00  0.00    -0.302 NA
ATOM     21  C   UNL     1      27.119   1.049   8.903  0.00  0.00    +0.066 C 
ATOM     22  C   UNL     1      28.005   1.120  10.190  0.00  0.00    -0.064 C 
ATOM     23  N   UNL     1      28.104   2.573  10.658  0.00  0.00    +0.379 N 
ATOM     24  C   UNL     1      28.888   2.636  11.900  0.00  0.00    -0.096 C 
ATOM     25  H   UNL     1      27.072   2.924  10.891  0.00  0.00    -0.082 HD
ATOM     26  C   UNL     1      28.657   3.466   9.557  0.00  0.00    -0.064 C 
ATOM     27  C   UNL     1      27.787   3.366   8.273  0.00  0.00    +0.066 C 
ENDBRANCH  19  20
ENDBRANCH  18  19
ENDBRANCH  14  15
ENDBRANCH  12  13
TORSDOF 6
ENDMDL
