MODEL 1
REMARK VINA RESULT:      -8.3      0.000      0.000
REMARK  Name = C:\Users\Docking\Desktop\test protocol\1iep_ligandH.pdb
REMARK  8 active torsions:
REMARK  status: ('A' for Active; 'I' for Inactive)
REMARK    1  A    between atoms: _5  and  _11
REMARK    2  A    between atoms: _19  and  _21
REMARK    3  A    between atoms: _22  and  _66
REMARK    4  A    between atoms: _27  and  _30
REMARK    5  A    between atoms: _32  and  _33
REMARK    6  A    between atoms: _38  and  _43
REMARK    7  A    between atoms: _43  and  _46
REMARK    8  A    between atoms: _53  and  _55
REMARK                            x       y       z     vdW  Elec       q    Type
REMARK                         _______ _______ _______ _____ _____    ______ ____
ROOT
ATOM     10  C   UNL     1      -6.740  -5.292 -13.671  0.00  0.00    +0.038 A 
ATOM     11  C   UNL     1      -5.559  -5.859 -13.127  0.00  0.00    +0.047 A 
ATOM     12  C   UNL     1      -4.244  -5.379 -13.521  0.00  0.00    +0.035 A 
ATOM     32  C   UNL     1      -4.168  -4.317 -14.469  0.00  0.00    +0.024 A 
ATOM     33  C   UNL     1      -5.359  -3.730 -15.032  0.00  0.00    +0.007 A 
ATOM     34  C   UNL     1      -6.659  -4.201 -14.649  0.00  0.00    -0.029 A 
ATOM     35  C   UNL     1      -7.901  -3.539 -15.290  0.00  0.00    +0.045 C 
ENDROOT
BRANCH  10   9
ATOM      4  C   UNL     1     -10.396  -8.381 -14.042  0.00  0.00    +0.077 A 
ATOM      5  C   UNL     1      -9.804  -9.037 -15.172  0.00  0.00    +0.048 A 
ATOM      6  C   UNL     1      -8.562  -8.544 -15.631  0.00  0.00    +0.116 A 
ATOM      7  N   UNL     1      -7.965  -7.475 -14.999  0.00  0.00    -0.223 NA
ATOM      8  C   UNL     1      -8.563  -6.864 -13.913  0.00  0.00    +0.220 A 
ATOM      9  N   UNL     1      -7.977  -5.792 -13.257  0.00  0.00    -0.283 N 
ATOM     36  H   UNL     1      -8.454  -5.364 -12.464  0.00  0.00    +0.155 HD
ATOM     37  N   UNL     1      -9.750  -7.315 -13.456  0.00  0.00    -0.214 NA
BRANCH   4   3
ATOM      1  C   UNL     1     -13.208 -10.437 -12.262  0.00  0.00    +0.020 A 
ATOM      2  C   UNL     1     -11.925 -10.094 -12.832  0.00  0.00    +0.013 A 
ATOM      3  C   UNL     1     -11.704  -8.787 -13.437  0.00  0.00    +0.019 A 
ATOM     38  C   UNL     1     -12.810  -7.841 -13.449  0.00  0.00    +0.120 A 
ATOM     39  N   UNL     1     -14.034  -8.199 -12.894  0.00  0.00    -0.263 NA
ATOM     40  C   UNL     1     -14.259  -9.455 -12.310  0.00  0.00    +0.111 A 
ENDBRANCH   4   3
ENDBRANCH  10   9
BRANCH  12  13
ATOM     13  N   UNL     1      -3.010  -5.921 -13.010  0.00  0.00    -0.281 N 
ATOM     14  C   UNL     1      -2.219  -6.913 -13.567  0.00  0.00    +0.248 C 
ATOM     30  O   UNL     1      -2.567  -7.638 -14.488  0.00  0.00    -0.270 OA
ATOM     31  H   UNL     1      -2.679  -5.526 -12.129  0.00  0.00    +0.155 HD
BRANCH  14  15
ATOM     15  C   UNL     1      -0.850  -7.142 -13.013  0.00  0.00    +0.037 A 
ATOM     16  C   UNL     1      -0.342  -6.348 -11.892  0.00  0.00    +0.013 A 
ATOM     17  C   UNL     1       0.989  -6.578 -11.388  0.00  0.00    +0.005 A 
ATOM     18  C   UNL     1       1.820  -7.609 -12.004  0.00  0.00    -0.033 A 
ATOM     28  C   UNL     1       1.288  -8.386 -13.112  0.00  0.00    +0.005 A 
ATOM     29  C   UNL     1      -0.015  -8.163 -13.609  0.00  0.00    +0.013 A 
BRANCH  18  19
ATOM     19  C   UNL     1       3.259  -7.909 -11.545  0.00  0.00    +0.119 C 
BRANCH  19  20
ATOM     20  N   UNL     1       3.426  -8.676 -10.274  0.00  0.00    -0.302 NA
ATOM     21  C   UNL     1       4.837  -8.533  -9.697  0.00  0.00    +0.066 C 
ATOM     22  C   UNL     1       4.987  -9.323  -8.357  0.00  0.00    -0.064 C 
ATOM     23  N   UNL     1       4.646 -10.795  -8.595  0.00  0.00    +0.379 N 
ATOM     24  C   UNL     1       4.842 -11.552  -7.350  0.00  0.00    -0.096 C 
ATOM     25  H   UNL     1       5.366 -11.191  -9.349  0.00  0.00    -0.082 HD
ATOM     26  C   UNL     1       3.246 -10.947  -9.171  0.00  0.00    -0.064 C 
ATOM     27  C   UNL     1       3.098 -10.133 -10.488  0.00  0.00    +0.066 C 
ENDBRANCH  19  20
ENDBRANCH  18  19
ENDBRANCH  14  15
ENDBRANCH  12  13
TORSDOF 6
ENDMDL
MODEL 2
REMARK VINA RESULT:      -7.7      2.496     12.477
REMARK  Name = C:\Users\Docking\Desktop\test protocol\1iep_ligandH.pdb
REMARK  8 active torsions:
REMARK  status: ('A' for Active; 'I' for Inactive)
REMARK    1  A    between atoms: _5  and  _11
REMARK    2  A    between atoms: _19  and  _21
REMARK    3  A    between atoms: _22  and  _66
REMARK    4  A    between atoms: _27  and  _30
REMARK    5  A    between atoms: _32  and  _33
REMARK    6  A    between atoms: _38  and  _43
REMARK    7  A    between atoms: _43  and  _46
REMARK    8  A    between atoms: _53  and  _55
REMARK                            x       y       z     vdW  Elec       q    Type
REMARK                         _______ _______ _______ _____ _____    ______ ____
ROOT
ATOM     10  C   UNL     1      -5.552  -4.960 -14.601  0.00  0.00    +0.038 A 
ATOM     11  C   UNL     1      -6.794  -5.557 -14.267  0.00  0.00    +0.047 A 
ATOM     12  C   UNL     1      -8.005  -5.241 -15.009  0.00  0.00    +0.035 A 
ATOM     32  C   UNL     1      -7.913  -4.314 -16.088  0.00  0.00    +0.024 A 
ATOM     33  C   UNL     1      -6.658  -3.697 -16.441  0.00  0.00    +0.007 A 
ATOM     34  C   UNL     1      -5.461  -4.003 -15.711  0.00  0.00    -0.029 A 
ATOM     35  C   UNL     1      -4.145  -3.307 -16.129  0.00  0.00    +0.045 C 
ENDROOT
BRANCH  10   9
ATOM      4  C   UNL     1      -1.662  -7.655 -13.801  0.00  0.00    +0.077 A 
ATOM      5  C   UNL     1      -1.918  -8.472 -14.952  0.00  0.00    +0.048 A 
ATOM      6  C   UNL     1      -3.066  -8.170 -15.719  0.00  0.00    +0.116 A 
ATOM      7  N   UNL     1      -3.888  -7.127 -15.354  0.00  0.00    -0.223 NA
ATOM      8  C   UNL     1      -3.612  -6.359 -14.237  0.00  0.00    +0.220 A 
ATOM      9  N   UNL     1      -4.421  -5.300 -13.855  0.00  0.00    -0.283 N 
ATOM     36  H   UNL     1      -4.188  -4.762 -13.021  0.00  0.00    +0.155 HD
ATOM     37  N   UNL     1      -2.523  -6.628 -13.487  0.00  0.00    -0.214 NA
BRANCH   4   3
ATOM      1  C   UNL     1       1.301  -9.267 -11.819  0.00  0.00    +0.020 A 
ATOM      2  C   UNL     1       0.170  -9.135 -12.709  0.00  0.00    +0.013 A 
ATOM      3  C   UNL     1      -0.487  -7.847 -12.893  0.00  0.00    +0.019 A 
ATOM     38  C   UNL     1       0.030  -6.703 -12.157  0.00  0.00    +0.120 A 
ATOM     39  N   UNL     1       1.120  -6.860 -11.307  0.00  0.00    -0.263 NA
ATOM     40  C   UNL     1       1.759  -8.095 -11.120  0.00  0.00    +0.111 A 
ENDBRANCH   4   3
ENDBRANCH  10   9
BRANCH  12  13
ATOM     13  N   UNL     1      -9.296  -5.809 -14.710  0.00  0.00    -0.281 N 
ATOM     14  C   UNL     1      -9.695  -7.129 -14.836  0.00  0.00    +0.248 C 
ATOM     30  O   UNL     1      -9.061  -7.989 -15.430  0.00  0.00    -0.270 OA
ATOM     31  H   UNL     1     -10.001  -5.159 -14.364  0.00  0.00    +0.155 HD
BRANCH  14  15
ATOM     15  C   UNL     1     -10.992  -7.553 -14.226  0.00  0.00    +0.037 A 
ATOM     16  C   UNL     1     -11.153  -8.882 -13.630  0.00  0.00    +0.013 A 
ATOM     17  C   UNL     1     -12.419  -9.272 -13.063  0.00  0.00    +0.005 A 
ATOM     18  C   UNL     1     -13.536  -8.329 -13.089  0.00  0.00    -0.033 A 
ATOM     28  C   UNL     1     -13.347  -7.016 -13.682  0.00  0.00    +0.005 A 
ATOM     29  C   UNL     1     -12.107  -6.631 -14.239  0.00  0.00    +0.013 A 
BRANCH  18  19
ATOM     19  C   UNL     1     -14.929  -8.668 -12.527  0.00  0.00    +0.119 C 
BRANCH  19  20
ATOM     20  N   UNL     1     -15.073  -8.717 -11.041  0.00  0.00    -0.302 NA
ATOM     21  C   UNL     1     -14.507 -10.011 -10.451  0.00  0.00    +0.066 C 
ATOM     22  C   UNL     1     -14.646 -10.036  -8.894  0.00  0.00    -0.064 C 
ATOM     23  N   UNL     1     -16.118  -9.865  -8.513  0.00  0.00    +0.379 N 
ATOM     24  C   UNL     1     -16.259  -9.946  -7.052  0.00  0.00    -0.096 C 
ATOM     25  H   UNL     1     -16.682 -10.719  -8.955  0.00  0.00    -0.082 HD
ATOM     26  C   UNL     1     -16.690  -8.582  -9.098  0.00  0.00    -0.064 C 
ATOM     27  C   UNL     1     -16.520  -8.554 -10.643  0.00  0.00    +0.066 C 
ENDBRANCH  19  20
ENDBRANCH  18  19
ENDBRANCH  14  15
ENDBRANCH  12  13
TORSDOF 6
ENDMDL
MODEL 3
REMARK VINA RESULT:      -7.7      2.482      5.234
REMARK  Name = C:\Users\Docking\Desktop\test protocol\1iep_ligandH.pdb
REMARK  8 active torsions:
REMARK  status: ('A' for Active; 'I' for Inactive)
REMARK    1  A    between atoms: _5  and  _11
REMARK    2  A    between atoms: _19  and  _21
REMARK    3  A    between atoms: _22  and  _66
REMARK    4  A    between atoms: _27  and  _30
REMARK    5  A    between atoms: _32  and  _33
REMARK    6  A    between atoms: _38  and  _43
REMARK    7  A    between atoms: _43  and  _46
REMARK    8  A    between atoms: _53  and  _55
REMARK                            x       y       z     vdW  Elec       q    Type
REMARK                         _______ _______ _______ _____ _____    ______ ____
ROOT
ATOM     10  C   UNL     1     -11.325  -7.045 -14.912  0.00  0.00    +0.038 A 
ATOM     11  C   UNL     1     -10.043  -6.672 -14.434  0.00  0.00    +0.047 A 
ATOM     12  C   UNL     1      -8.877  -6.709 -15.302  0.00  0.00    +0.035 A 
ATOM     32  C   UNL     1      -9.053  -7.129 -16.653  0.00  0.00    +0.024 A 
ATOM     33  C   UNL     1     -10.349  -7.512 -17.155  0.00  0.00    +0.007 A 
ATOM     34  C   UNL     1     -11.503  -7.480 -16.303  0.00  0.00    -0.029 A 
ATOM     35  C   UNL     1     -12.866  -7.908 -16.893  0.00  0.00    +0.045 C 
ENDROOT
BRANCH  10   9
ATOM      4  C   UNL     1     -14.262  -9.041 -11.683  0.00  0.00    +0.077 A 
ATOM      5  C   UNL     1     -13.594 -10.307 -11.770  0.00  0.00    +0.048 A 
ATOM      6  C   UNL     1     -12.503 -10.405 -12.663  0.00  0.00    +0.116 A 
ATOM      7  N   UNL     1     -12.119  -9.312 -13.408  0.00  0.00    -0.223 NA
ATOM      8  C   UNL     1     -12.786  -8.105 -13.302  0.00  0.00    +0.220 A 
ATOM      9  N   UNL     1     -12.411  -6.990 -14.035  0.00  0.00    -0.283 N 
ATOM     36  H   UNL     1     -12.934  -6.121 -13.934  0.00  0.00    +0.155 HD
ATOM     37  N   UNL     1     -13.831  -7.987 -12.457  0.00  0.00    -0.214 NA
BRANCH   4   3
ATOM      1  C   UNL     1     -17.810  -8.060 -10.360  0.00  0.00    +0.020 A 
ATOM      2  C   UNL     1     -16.715  -8.297 -11.272  0.00  0.00    +0.013 A 
ATOM      3  C   UNL     1     -15.429  -8.779 -10.783  0.00  0.00    +0.019 A 
ATOM     38  C   UNL     1     -15.284  -9.015  -9.354  0.00  0.00    +0.120 A 
ATOM     39  N   UNL     1     -16.357  -8.777  -8.500  0.00  0.00    -0.263 NA
ATOM     40  C   UNL     1     -17.598  -8.311  -8.959  0.00  0.00    +0.111 A 
ENDBRANCH   4   3
ENDBRANCH  10   9
BRANCH  12  13
ATOM     13  N   UNL     1      -7.548  -6.350 -14.871  0.00  0.00    -0.281 N 
ATOM     14  C   UNL     1      -6.675  -7.093 -14.094  0.00  0.00    +0.248 C 
ATOM     30  O   UNL     1      -6.988  -8.097 -13.471  0.00  0.00    -0.270 OA
ATOM     31  H   UNL     1      -7.211  -5.437 -15.175  0.00  0.00    +0.155 HD
BRANCH  14  15
ATOM     15  C   UNL     1      -5.252  -6.650 -13.982  0.00  0.00    +0.037 A 
ATOM     16  C   UNL     1      -4.257  -7.029 -14.988  0.00  0.00    +0.013 A 
ATOM     17  C   UNL     1      -2.887  -6.602 -14.846  0.00  0.00    +0.005 A 
ATOM     18  C   UNL     1      -2.506  -5.789 -13.694  0.00  0.00    -0.033 A 
ATOM     28  C   UNL     1      -3.515  -5.423 -12.714  0.00  0.00    +0.005 A 
ATOM     29  C   UNL     1      -4.858  -5.841 -12.848  0.00  0.00    +0.013 A 
BRANCH  18  19
ATOM     19  C   UNL     1      -1.063  -5.306 -13.451  0.00  0.00    +0.119 C 
BRANCH  19  20
ATOM     20  N   UNL     1      -0.039  -6.345 -13.131  0.00  0.00    -0.302 NA
ATOM     21  C   UNL     1       0.418  -6.271 -11.672  0.00  0.00    +0.066 C 
ATOM     22  C   UNL     1       1.472  -7.379 -11.348  0.00  0.00    -0.064 C 
ATOM     23  N   UNL     1       2.664  -7.238 -12.297  0.00  0.00    +0.379 N 
ATOM     24  C   UNL     1       3.683  -8.242 -11.958  0.00  0.00    -0.096 C 
ATOM     25  H   UNL     1       3.112  -6.231 -12.130  0.00  0.00    -0.082 HD
ATOM     26  C   UNL     1       2.217  -7.309 -13.751  0.00  0.00    -0.064 C 
ATOM     27  C   UNL     1       1.148  -6.222 -14.054  0.00  0.00    +0.066 C 
ENDBRANCH  19  20
ENDBRANCH  18  19
ENDBRANCH  14  15
ENDBRANCH  12  13
TORSDOF 6
ENDMDL
MODEL 4
REMARK VINA RESULT:      -7.6      2.805     14.271
REMARK  Name = C:\Users\Docking\Desktop\test protocol\1iep_ligandH.pdb
REMARK  8 active torsions:
REMARK  status: ('A' for Active; 'I' for Inactive)
REMARK    1  A    between atoms: _5  and  _11
REMARK    2  A    between atoms: _19  and  _21
REMARK    3  A    between atoms: _22  and  _66
REMARK    4  A    between atoms: _27  and  _30
REMARK    5  A    between atoms: _32  and  _33
REMARK    6  A    between atoms: _38  and  _43
REMARK    7  A    between atoms: _43  and  _46
REMARK    8  A    between atoms: _53  and  _55
REMARK                            x       y       z     vdW  Elec       q    Type
REMARK                         _______ _______ _______ _____ _____    ______ ____
ROOT
ATOM     10  C   UNL     1       3.134  -9.453 -10.432  0.00  0.00    +0.038 A 
ATOM     11  C   UNL     1       2.103  -8.504 -10.648  0.00  0.00    +0.047 A 
ATOM     12  C   UNL     1       1.039  -8.755 -11.608  0.00  0.00    +0.035 A 
ATOM     32  C   UNL     1       1.056  -9.985 -12.329  0.00  0.00    +0.024 A 
ATOM     33  C   UNL     1       2.097 -10.960 -12.122  0.00  0.00    +0.007 A 
ATOM     34  C   UNL     1       3.150 -10.717 -11.178  0.00  0.00    -0.029 A 
ATOM     35  C   UNL     1       4.245 -11.795 -11.001  0.00  0.00    +0.045 C 
ENDROOT
BRANCH  10   9
ATOM      4  C   UNL     1       7.358  -7.526  -9.212  0.00  0.00    +0.077 A 
ATOM      5  C   UNL     1       7.613  -7.089 -10.554  0.00  0.00    +0.048 A 
ATOM      6  C   UNL     1       6.636  -7.386 -11.530  0.00  0.00    +0.116 A 
ATOM      7  N   UNL     1       5.492  -8.070 -11.179  0.00  0.00    -0.223 NA
ATOM      8  C   UNL     1       5.278  -8.478  -9.875  0.00  0.00    +0.220 A 
ATOM      9  N   UNL     1       4.131  -9.160  -9.498  0.00  0.00    -0.283 N 
ATOM     36  H   UNL     1       4.013  -9.451  -8.527  0.00  0.00    +0.155 HD
ATOM     37  N   UNL     1       6.196  -8.208  -8.925  0.00  0.00    -0.214 NA
BRANCH   4   3
ATOM      1  C   UNL     1      10.600  -7.177  -7.050  0.00  0.00    +0.020 A 
ATOM      2  C   UNL     1       9.740  -7.423  -8.185  0.00  0.00    +0.013 A 
ATOM      3  C   UNL     1       8.294  -7.285  -8.068  0.00  0.00    +0.019 A 
ATOM     38  C   UNL     1       7.745  -6.894  -6.778  0.00  0.00    +0.120 A 
ATOM     39  N   UNL     1       8.597  -6.666  -5.703  0.00  0.00    -0.263 NA
ATOM     40  C   UNL     1       9.990  -6.797  -5.803  0.00  0.00    +0.111 A 
ENDBRANCH   4   3
ENDBRANCH  10   9
BRANCH  12  13
ATOM     13  N   UNL     1      -0.030  -7.825 -11.877  0.00  0.00    -0.281 N 
ATOM     14  C   UNL     1      -0.218  -7.047 -13.007  0.00  0.00    +0.248 C 
ATOM     30  O   UNL     1       0.625  -6.873 -13.875  0.00  0.00    -0.270 OA
ATOM     31  H   UNL     1      -0.733  -7.729 -11.144  0.00  0.00    +0.155 HD
BRANCH  14  15
ATOM     15  C   UNL     1      -1.527  -6.349 -13.194  0.00  0.00    +0.037 A 
ATOM     16  C   UNL     1      -1.879  -5.724 -14.471  0.00  0.00    +0.013 A 
ATOM     17  C   UNL     1      -3.141  -5.043 -14.619  0.00  0.00    +0.005 A 
ATOM     18  C   UNL     1      -4.061  -4.985 -13.486  0.00  0.00    -0.033 A 
ATOM     28  C   UNL     1      -3.688  -5.619 -12.232  0.00  0.00    +0.005 A 
ATOM     29  C   UNL     1      -2.452  -6.286 -12.083  0.00  0.00    +0.013 A 
BRANCH  18  19
ATOM     19  C   UNL     1      -5.419  -4.262 -13.547  0.00  0.00    +0.119 C 
BRANCH  19  20
ATOM     20  N   UNL     1      -6.498  -4.900 -14.359  0.00  0.00    -0.302 NA
ATOM     21  C   UNL     1      -7.458  -3.866 -14.954  0.00  0.00    +0.066 C 
ATOM     22  C   UNL     1      -8.567  -4.549 -15.818  0.00  0.00    -0.064 C 
ATOM     23  N   UNL     1      -9.326  -5.563 -14.960  0.00  0.00    +0.379 N 
ATOM     24  C   UNL     1     -10.407  -6.165 -15.754  0.00  0.00    -0.096 C 
ATOM     25  H   UNL     1      -9.796  -5.006 -14.116  0.00  0.00    -0.082 HD
ATOM     26  C   UNL     1      -8.379  -6.593 -14.362  0.00  0.00    -0.064 C 
ATOM     27  C   UNL     1      -7.264  -5.902 -13.530  0.00  0.00    +0.066 C 
ENDBRANCH  19  20
ENDBRANCH  18  19
ENDBRANCH  14  15
ENDBRANCH  12  13
TORSDOF 6
ENDMDL
MODEL 5
REMARK VINA RESULT:      -7.6      3.205     14.692
REMARK  Name = C:\Users\Docking\Desktop\test protocol\1iep_ligandH.pdb
REMARK  8 active torsions:
REMARK  status: ('A' for Active; 'I' for Inactive)
REMARK    1  A    between atoms: _5  and  _11
REMARK    2  A    between atoms: _19  and  _21
REMARK    3  A    between atoms: _22  and  _66
REMARK    4  A    between atoms: _27  and  _30
REMARK    5  A    between atoms: _32  and  _33
REMARK    6  A    between atoms: _38  and  _43
REMARK    7  A    between atoms: _43  and  _46
REMARK    8  A    between atoms: _53  and  _55
REMARK                            x       y       z     vdW  Elec       q    Type
REMARK                         _______ _______ _______ _____ _____    ______ ____
ROOT
ATOM     10  C   UNL     1       3.904  -9.192 -11.151  0.00  0.00    +0.038 A 
ATOM     11  C   UNL     1       2.905  -8.253 -11.513  0.00  0.00    +0.047 A 
ATOM     12  C   UNL     1       1.492  -8.580 -11.406  0.00  0.00    +0.035 A 
ATOM     32  C   UNL     1       1.131  -9.871 -10.924  0.00  0.00    +0.024 A 
ATOM     33  C   UNL     1       2.134 -10.839 -10.552  0.00  0.00    +0.007 A 
ATOM     34  C   UNL     1       3.530 -10.523 -10.658  0.00  0.00    -0.029 A 
ATOM     35  C   UNL     1       4.561 -11.601 -10.251  0.00  0.00    +0.045 C 
ENDROOT
BRANCH  10   9
ATOM      4  C   UNL     1       7.970  -7.358  -9.378  0.00  0.00    +0.077 A 
ATOM      5  C   UNL     1       7.361  -7.081  -8.109  0.00  0.00    +0.048 A 
ATOM      6  C   UNL     1       5.998  -7.420  -7.955  0.00  0.00    +0.116 A 
ATOM      7  N   UNL     1       5.305  -7.992  -9.000  0.00  0.00    -0.223 NA
ATOM      8  C   UNL     1       5.922  -8.244 -10.212  0.00  0.00    +0.220 A 
ATOM      9  N   UNL     1       5.247  -8.826 -11.273  0.00  0.00    -0.283 N 
ATOM     36  H   UNL     1       5.735  -8.989 -12.153  0.00  0.00    +0.155 HD
ATOM     37  N   UNL     1       7.222  -7.929 -10.384  0.00  0.00    -0.214 NA
BRANCH   4   3
ATOM      1  C   UNL     1      11.229  -6.212 -11.213  0.00  0.00    +0.020 A 
ATOM      2  C   UNL     1       9.832  -6.480 -10.959  0.00  0.00    +0.013 A 
ATOM      3  C   UNL     1       9.403  -7.060  -9.693  0.00  0.00    +0.019 A 
ATOM     38  C   UNL     1      10.421  -7.359  -8.697  0.00  0.00    +0.120 A 
ATOM     39  N   UNL     1      11.758  -7.092  -8.970  0.00  0.00    -0.263 NA
ATOM     40  C   UNL     1      12.183  -6.535 -10.186  0.00  0.00    +0.111 A 
ENDBRANCH   4   3
ENDBRANCH  10   9
BRANCH  12  13
ATOM     13  N   UNL     1       0.433  -7.670 -11.767  0.00  0.00    -0.281 N 
ATOM     14  C   UNL     1       0.050  -7.269 -13.037  0.00  0.00    +0.248 C 
ATOM     30  O   UNL     1       0.702  -7.469 -14.051  0.00  0.00    -0.270 OA
ATOM     31  H   UNL     1      -0.099  -7.273 -10.992  0.00  0.00    +0.155 HD
BRANCH  14  15
ATOM     15  C   UNL     1      -1.237  -6.527 -13.202  0.00  0.00    +0.037 A 
ATOM     16  C   UNL     1      -1.580  -5.873 -14.468  0.00  0.00    +0.013 A 
ATOM     17  C   UNL     1      -2.820  -5.149 -14.595  0.00  0.00    +0.005 A 
ATOM     18  C   UNL     1      -3.727  -5.076 -13.452  0.00  0.00    -0.033 A 
ATOM     28  C   UNL     1      -3.364  -5.738 -12.210  0.00  0.00    +0.005 A 
ATOM     29  C   UNL     1      -2.150  -6.448 -12.081  0.00  0.00    +0.013 A 
BRANCH  18  19
ATOM     19  C   UNL     1      -5.061  -4.307 -13.491  0.00  0.00    +0.119 C 
BRANCH  19  20
ATOM     20  N   UNL     1      -6.159  -4.884 -14.324  0.00  0.00    -0.302 NA
ATOM     21  C   UNL     1      -7.025  -3.797 -14.965  0.00  0.00    +0.066 C 
ATOM     22  C   UNL     1      -8.154  -4.417 -15.851  0.00  0.00    -0.064 C 
ATOM     23  N   UNL     1      -9.008  -5.358 -14.999  0.00  0.00    +0.379 N 
ATOM     24  C   UNL     1     -10.105  -5.899 -15.815  0.00  0.00    -0.096 C 
ATOM     25  H   UNL     1      -9.461  -4.754 -14.179  0.00  0.00    -0.082 HD
ATOM     26  C   UNL     1      -8.153  -6.441 -14.356  0.00  0.00    -0.064 C 
ATOM     27  C   UNL     1      -7.017  -5.814 -13.501  0.00  0.00    +0.066 C 
ENDBRANCH  19  20
ENDBRANCH  18  19
ENDBRANCH  14  15
ENDBRANCH  12  13
TORSDOF 6
ENDMDL
