MODEL 1
REMARK VINA RESULT:      -6.5      0.000      0.000
REMARK  Name = C:\Users\Docking\Desktop\test protocol\1iep_ligandH.pdb
REMARK  8 active torsions:
REMARK  status: ('A' for Active; 'I' for Inactive)
REMARK    1  A    between atoms: _5  and  _11
REMARK    2  A    between atoms: _19  and  _21
REMARK    3  A    between atoms: _22  and  _66
REMARK    4  A    between atoms: _27  and  _30
REMARK    5  A    between atoms: _32  and  _33
REMARK    6  A    between atoms: _38  and  _43
REMARK    7  A    between atoms: _43  and  _46
REMARK    8  A    between atoms: _53  and  _55
REMARK                            x       y       z     vdW  Elec       q    Type
REMARK                         _______ _______ _______ _____ _____    ______ ____
ROOT
ATOM     10  C   UNL     1     -20.309  -8.119  56.001  0.00  0.00    +0.038 A 
ATOM     11  C   UNL     1     -20.789  -9.206  55.226  0.00  0.00    +0.047 A 
ATOM     12  C   UNL     1     -20.284  -9.454  53.885  0.00  0.00    +0.035 A 
ATOM     32  C   UNL     1     -19.288  -8.577  53.365  0.00  0.00    +0.024 A 
ATOM     33  C   UNL     1     -18.790  -7.466  54.138  0.00  0.00    +0.007 A 
ATOM     34  C   UNL     1     -19.287  -7.215  55.461  0.00  0.00    -0.029 A 
ATOM     35  C   UNL     1     -18.722  -6.006  56.242  0.00  0.00    +0.045 C 
ENDROOT
BRANCH  10   9
ATOM      4  C   UNL     1     -20.339  -8.960  60.726  0.00  0.00    +0.077 A 
ATOM      5  C   UNL     1     -19.242  -9.880  60.629  0.00  0.00    +0.048 A 
ATOM      6  C   UNL     1     -18.704 -10.115  59.344  0.00  0.00    +0.116 A 
ATOM      7  N   UNL     1     -19.231  -9.471  58.245  0.00  0.00    -0.223 NA
ATOM      8  C   UNL     1     -20.289  -8.591  58.373  0.00  0.00    +0.220 A 
ATOM      9  N   UNL     1     -20.829  -7.927  57.283  0.00  0.00    -0.283 N 
ATOM     36  H   UNL     1     -21.615  -7.291  57.418  0.00  0.00    +0.155 HD
ATOM     37  N   UNL     1     -20.822  -8.351  59.590  0.00  0.00    -0.214 NA
BRANCH   4   3
ATOM      1  C   UNL     1     -21.005  -7.676  64.361  0.00  0.00    +0.020 A 
ATOM      2  C   UNL     1     -20.307  -7.999  63.138  0.00  0.00    +0.013 A 
ATOM      3  C   UNL     1     -21.013  -8.606  62.015  0.00  0.00    +0.019 A 
ATOM     38  C   UNL     1     -22.435  -8.873  62.164  0.00  0.00    +0.120 A 
ATOM     39  N   UNL     1     -23.081  -8.552  63.354  0.00  0.00    -0.263 NA
ATOM     40  C   UNL     1     -22.412  -7.970  64.441  0.00  0.00    +0.111 A 
ENDBRANCH   4   3
ENDBRANCH  10   9
BRANCH  12  13
ATOM     13  N   UNL     1     -20.738 -10.537  53.048  0.00  0.00    -0.281 N 
ATOM     14  C   UNL     1     -21.327 -10.457  51.797  0.00  0.00    +0.248 C 
ATOM     30  O   UNL     1     -21.749  -9.425  51.296  0.00  0.00    -0.270 OA
ATOM     31  H   UNL     1     -20.611 -11.477  53.424  0.00  0.00    +0.155 HD
BRANCH  14  15
ATOM     15  C   UNL     1     -21.483 -11.706  50.991  0.00  0.00    +0.037 A 
ATOM     16  C   UNL     1     -22.808 -12.240  50.665  0.00  0.00    +0.013 A 
ATOM     17  C   UNL     1     -22.929 -13.456  49.901  0.00  0.00    +0.005 A 
ATOM     18  C   UNL     1     -21.721 -14.146  49.456  0.00  0.00    -0.033 A 
ATOM     28  C   UNL     1     -20.419 -13.592  49.789  0.00  0.00    +0.005 A 
ATOM     29  C   UNL     1     -20.296 -12.401  50.539  0.00  0.00    +0.013 A 
BRANCH  18  19
ATOM     19  C   UNL     1     -21.756 -15.461  48.654  0.00  0.00    +0.119 C 
BRANCH  19  20
ATOM     20  N   UNL     1     -21.431 -16.719  49.389  0.00  0.00    -0.302 NA
ATOM     21  C   UNL     1     -21.537 -17.954  48.490  0.00  0.00    +0.066 C 
ATOM     22  C   UNL     1     -21.172 -19.259  49.269  0.00  0.00    -0.064 C 
ATOM     23  N   UNL     1     -22.087 -19.396  50.487  0.00  0.00    +0.379 N 
ATOM     24  C   UNL     1     -21.785 -20.651  51.189  0.00  0.00    -0.096 C 
ATOM     25  H   UNL     1     -23.136 -19.460  50.115  0.00  0.00    -0.082 HD
ATOM     26  C   UNL     1     -21.990 -18.171  51.385  0.00  0.00    -0.064 C 
ATOM     27  C   UNL     1     -22.326 -16.876  50.593  0.00  0.00    +0.066 C 
ENDBRANCH  19  20
ENDBRANCH  18  19
ENDBRANCH  14  15
ENDBRANCH  12  13
TORSDOF 6
ENDMDL
MODEL 2
REMARK VINA RESULT:      -6.4     42.770     45.607
REMARK  Name = C:\Users\Docking\Desktop\test protocol\1iep_ligandH.pdb
REMARK  8 active torsions:
REMARK  status: ('A' for Active; 'I' for Inactive)
REMARK    1  A    between atoms: _5  and  _11
REMARK    2  A    between atoms: _19  and  _21
REMARK    3  A    between atoms: _22  and  _66
REMARK    4  A    between atoms: _27  and  _30
REMARK    5  A    between atoms: _32  and  _33
REMARK    6  A    between atoms: _38  and  _43
REMARK    7  A    between atoms: _43  and  _46
REMARK    8  A    between atoms: _53  and  _55
REMARK                            x       y       z     vdW  Elec       q    Type
REMARK                         _______ _______ _______ _____ _____    ______ ____
ROOT
ATOM     10  C   UNL     1       8.937   1.469  27.319  0.00  0.00    +0.038 A 
ATOM     11  C   UNL     1       8.963   1.569  25.904  0.00  0.00    +0.047 A 
ATOM     12  C   UNL     1       9.942   0.836  25.116  0.00  0.00    +0.035 A 
ATOM     32  C   UNL     1      10.877   0.007  25.801  0.00  0.00    +0.024 A 
ATOM     33  C   UNL     1      10.865  -0.106  27.239  0.00  0.00    +0.007 A 
ATOM     34  C   UNL     1       9.904   0.617  28.022  0.00  0.00    -0.029 A 
ATOM     35  C   UNL     1       9.942   0.463  29.560  0.00  0.00    +0.045 C 
ENDROOT
BRANCH  10   9
ATOM      4  C   UNL     1       7.547   5.293  29.864  0.00  0.00    +0.077 A 
ATOM      5  C   UNL     1       8.854   5.882  29.803  0.00  0.00    +0.048 A 
ATOM      6  C   UNL     1       9.858   5.166  29.113  0.00  0.00    +0.116 A 
ATOM      7  N   UNL     1       9.565   3.951  28.531  0.00  0.00    -0.223 NA
ATOM      8  C   UNL     1       8.295   3.411  28.610  0.00  0.00    +0.220 A 
ATOM      9  N   UNL     1       7.976   2.195  28.026  0.00  0.00    -0.283 N 
ATOM     36  H   UNL     1       7.029   1.826  28.113  0.00  0.00    +0.155 HD
ATOM     37  N   UNL     1       7.319   4.075  29.265  0.00  0.00    -0.214 NA
BRANCH   4   3
ATOM      1  C   UNL     1       5.334   7.741  31.964  0.00  0.00    +0.020 A 
ATOM      2  C   UNL     1       6.492   7.167  31.317  0.00  0.00    +0.013 A 
ATOM      3  C   UNL     1       6.381   5.930  30.554  0.00  0.00    +0.019 A 
ATOM     38  C   UNL     1       5.076   5.295  30.463  0.00  0.00    +0.120 A 
ATOM     39  N   UNL     1       3.979   5.870  31.098  0.00  0.00    -0.263 NA
ATOM     40  C   UNL     1       4.073   7.059  31.837  0.00  0.00    +0.111 A 
ENDBRANCH   4   3
ENDBRANCH  10   9
BRANCH  12  13
ATOM     13  N   UNL     1      10.022   0.905  23.678  0.00  0.00    -0.281 N 
ATOM     14  C   UNL     1      10.396   1.986  22.897  0.00  0.00    +0.248 C 
ATOM     30  O   UNL     1      10.514   3.130  23.310  0.00  0.00    -0.270 OA
ATOM     31  H   UNL     1       9.773   0.053  23.175  0.00  0.00    +0.155 HD
BRANCH  14  15
ATOM     15  C   UNL     1      10.664   1.767  21.442  0.00  0.00    +0.037 A 
ATOM     16  C   UNL     1       9.852   0.840  20.651  0.00  0.00    +0.013 A 
ATOM     17  C   UNL     1      10.142   0.635  19.254  0.00  0.00    +0.005 A 
ATOM     18  C   UNL     1      11.251   1.361  18.639  0.00  0.00    -0.033 A 
ATOM     28  C   UNL     1      12.037   2.279  19.446  0.00  0.00    +0.005 A 
ATOM     29  C   UNL     1      11.756   2.482  20.816  0.00  0.00    +0.013 A 
BRANCH  18  19
ATOM     19  C   UNL     1      11.646   1.189  17.161  0.00  0.00    +0.119 C 
BRANCH  19  20
ATOM     20  N   UNL     1      10.820   1.906  16.144  0.00  0.00    -0.302 NA
ATOM     21  C   UNL     1      10.214   3.197  16.703  0.00  0.00    +0.066 C 
ATOM     22  C   UNL     1       9.372   3.946  15.620  0.00  0.00    -0.064 C 
ATOM     23  N   UNL     1       8.276   3.016  15.096  0.00  0.00    +0.379 N 
ATOM     24  C   UNL     1       7.447   3.736  14.119  0.00  0.00    -0.096 C 
ATOM     25  H   UNL     1       7.624   2.743  15.958  0.00  0.00    -0.082 HD
ATOM     26  C   UNL     1       8.870   1.729  14.541  0.00  0.00    -0.064 C 
ATOM     27  C   UNL     1       9.729   1.007  15.616  0.00  0.00    +0.066 C 
ENDBRANCH  19  20
ENDBRANCH  18  19
ENDBRANCH  14  15
ENDBRANCH  12  13
TORSDOF 6
ENDMDL
MODEL 3
REMARK VINA RESULT:      -6.3     36.468     40.467
REMARK  Name = C:\Users\Docking\Desktop\test protocol\1iep_ligandH.pdb
REMARK  8 active torsions:
REMARK  status: ('A' for Active; 'I' for Inactive)
REMARK    1  A    between atoms: _5  and  _11
REMARK    2  A    between atoms: _19  and  _21
REMARK    3  A    between atoms: _22  and  _66
REMARK    4  A    between atoms: _27  and  _30
REMARK    5  A    between atoms: _32  and  _33
REMARK    6  A    between atoms: _38  and  _43
REMARK    7  A    between atoms: _43  and  _46
REMARK    8  A    between atoms: _53  and  _55
REMARK                            x       y       z     vdW  Elec       q    Type
REMARK                         _______ _______ _______ _____ _____    ______ ____
ROOT
ATOM     10  C   UNL     1       8.650   3.627  28.157  0.00  0.00    +0.038 A 
ATOM     11  C   UNL     1       7.405   3.610  28.838  0.00  0.00    +0.047 A 
ATOM     12  C   UNL     1       7.031   4.682  29.747  0.00  0.00    +0.035 A 
ATOM     32  C   UNL     1       7.947   5.756  29.939  0.00  0.00    +0.024 A 
ATOM     33  C   UNL     1       9.217   5.789  29.256  0.00  0.00    +0.007 A 
ATOM     34  C   UNL     1       9.593   4.733  28.360  0.00  0.00    -0.029 A 
ATOM     35  C   UNL     1      10.969   4.817  27.660  0.00  0.00    +0.045 C 
ENDROOT
BRANCH  10   9
ATOM      4  C   UNL     1      10.155  -0.853  27.319  0.00  0.00    +0.077 A 
ATOM      5  C   UNL     1      10.371  -1.105  28.715  0.00  0.00    +0.048 A 
ATOM      6  C   UNL     1      10.089  -0.053  29.615  0.00  0.00    +0.116 A 
ATOM      7  N   UNL     1       9.626   1.156  29.144  0.00  0.00    -0.223 NA
ATOM      8  C   UNL     1       9.430   1.366  27.791  0.00  0.00    +0.220 A 
ATOM      9  N   UNL     1       8.958   2.572  27.295  0.00  0.00    -0.283 N 
ATOM     36  H   UNL     1       8.834   2.690  26.290  0.00  0.00    +0.155 HD
ATOM     37  N   UNL     1       9.693   0.378  26.911  0.00  0.00    -0.214 NA
BRANCH   4   3
ATOM      1  C   UNL     1      11.038  -2.522  23.893  0.00  0.00    +0.020 A 
ATOM      2  C   UNL     1      10.810  -1.504  24.893  0.00  0.00    +0.013 A 
ATOM      3  C   UNL     1      10.403  -1.866  26.245  0.00  0.00    +0.019 A 
ATOM     38  C   UNL     1      10.235  -3.278  26.555  0.00  0.00    +0.120 A 
ATOM     39  N   UNL     1      10.460  -4.236  25.571  0.00  0.00    -0.263 NA
ATOM     40  C   UNL     1      10.850  -3.899  24.267  0.00  0.00    +0.111 A 
ENDBRANCH   4   3
ENDBRANCH  10   9
BRANCH  12  13
ATOM     13  N   UNL     1       5.784   4.715  30.472  0.00  0.00    -0.281 N 
ATOM     14  C   UNL     1       5.567   4.412  31.806  0.00  0.00    +0.248 C 
ATOM     30  O   UNL     1       6.380   3.858  32.531  0.00  0.00    -0.270 OA
ATOM     31  H   UNL     1       4.963   4.996  29.936  0.00  0.00    +0.155 HD
BRANCH  14  15
ATOM     15  C   UNL     1       4.250   4.763  32.420  0.00  0.00    +0.037 A 
ATOM     16  C   UNL     1       3.217   5.466  31.654  0.00  0.00    +0.013 A 
ATOM     17  C   UNL     1       1.962   5.807  32.276  0.00  0.00    +0.005 A 
ATOM     18  C   UNL     1       1.733   5.445  33.673  0.00  0.00    -0.033 A 
ATOM     28  C   UNL     1       2.773   4.744  34.408  0.00  0.00    +0.005 A 
ATOM     29  C   UNL     1       4.004   4.408  33.802  0.00  0.00    +0.013 A 
BRANCH  18  19
ATOM     19  C   UNL     1       0.433   5.788  34.423  0.00  0.00    +0.119 C 
BRANCH  19  20
ATOM     20  N   UNL     1      -0.336   4.652  35.014  0.00  0.00    -0.302 NA
ATOM     21  C   UNL     1      -1.673   4.431  34.301  0.00  0.00    +0.066 C 
ATOM     22  C   UNL     1      -2.454   3.225  34.917  0.00  0.00    -0.064 C 
ATOM     23  N   UNL     1      -2.671   3.471  36.411  0.00  0.00    +0.379 N 
ATOM     24  C   UNL     1      -3.455   2.366  36.981  0.00  0.00    -0.096 C 
ATOM     25  H   UNL     1      -3.273   4.403  36.516  0.00  0.00    -0.082 HD
ATOM     26  C   UNL     1      -1.347   3.695  37.127  0.00  0.00    -0.064 C 
ATOM     27  C   UNL     1      -0.565   4.877  36.488  0.00  0.00    +0.066 C 
ENDBRANCH  19  20
ENDBRANCH  18  19
ENDBRANCH  14  15
ENDBRANCH  12  13
TORSDOF 6
ENDMDL
MODEL 4
REMARK VINA RESULT:      -6.3      1.627      2.568
REMARK  Name = C:\Users\Docking\Desktop\test protocol\1iep_ligandH.pdb
REMARK  8 active torsions:
REMARK  status: ('A' for Active; 'I' for Inactive)
REMARK    1  A    between atoms: _5  and  _11
REMARK    2  A    between atoms: _19  and  _21
REMARK    3  A    between atoms: _22  and  _66
REMARK    4  A    between atoms: _27  and  _30
REMARK    5  A    between atoms: _32  and  _33
REMARK    6  A    between atoms: _38  and  _43
REMARK    7  A    between atoms: _43  and  _46
REMARK    8  A    between atoms: _53  and  _55
REMARK                            x       y       z     vdW  Elec       q    Type
REMARK                         _______ _______ _______ _____ _____    ______ ____
ROOT
ATOM     10  C   UNL     1     -20.237  -8.062  56.054  0.00  0.00    +0.038 A 
ATOM     11  C   UNL     1     -20.699  -9.173  55.304  0.00  0.00    +0.047 A 
ATOM     12  C   UNL     1     -20.208  -9.429  53.959  0.00  0.00    +0.035 A 
ATOM     32  C   UNL     1     -19.243  -8.534  53.410  0.00  0.00    +0.024 A 
ATOM     33  C   UNL     1     -18.763  -7.400  54.159  0.00  0.00    +0.007 A 
ATOM     34  C   UNL     1     -19.246  -7.141  55.485  0.00  0.00    -0.029 A 
ATOM     35  C   UNL     1     -18.700  -5.905  56.239  0.00  0.00    +0.045 C 
ENDROOT
BRANCH  10   9
ATOM      4  C   UNL     1     -20.257  -8.932  60.775  0.00  0.00    +0.077 A 
ATOM      5  C   UNL     1     -19.188  -9.882  60.664  0.00  0.00    +0.048 A 
ATOM      6  C   UNL     1     -18.666 -10.124  59.374  0.00  0.00    +0.116 A 
ATOM      7  N   UNL     1     -19.181  -9.458  58.282  0.00  0.00    -0.223 NA
ATOM      8  C   UNL     1     -20.213  -8.549  58.424  0.00  0.00    +0.220 A 
ATOM      9  N   UNL     1     -20.742  -7.863  57.341  0.00  0.00    -0.283 N 
ATOM     36  H   UNL     1     -21.508  -7.206  57.486  0.00  0.00    +0.155 HD
ATOM     37  N   UNL     1     -20.731  -8.302  59.645  0.00  0.00    -0.214 NA
BRANCH   4   3
ATOM      1  C   UNL     1     -20.868  -7.626  64.411  0.00  0.00    +0.020 A 
ATOM      2  C   UNL     1     -20.188  -7.960  63.181  0.00  0.00    +0.013 A 
ATOM      3  C   UNL     1     -20.912  -8.566  62.071  0.00  0.00    +0.019 A 
ATOM     38  C   UNL     1     -22.334  -8.823  62.239  0.00  0.00    +0.120 A 
ATOM     39  N   UNL     1     -22.962  -8.492  63.436  0.00  0.00    -0.263 NA
ATOM     40  C   UNL     1     -22.275  -7.910  64.511  0.00  0.00    +0.111 A 
ENDBRANCH   4   3
ENDBRANCH  10   9
BRANCH  12  13
ATOM     13  N   UNL     1     -20.647 -10.536  53.146  0.00  0.00    -0.281 N 
ATOM     14  C   UNL     1     -21.249 -10.491  51.899  0.00  0.00    +0.248 C 
ATOM     30  O   UNL     1     -21.698  -9.477  51.385  0.00  0.00    -0.270 OA
ATOM     31  H   UNL     1     -20.495 -11.466  53.537  0.00  0.00    +0.155 HD
BRANCH  14  15
ATOM     15  C   UNL     1     -21.385 -11.757  51.117  0.00  0.00    +0.037 A 
ATOM     16  C   UNL     1     -22.685 -12.415  50.956  0.00  0.00    +0.013 A 
ATOM     17  C   UNL     1     -22.785 -13.645  50.211  0.00  0.00    +0.005 A 
ATOM     18  C   UNL     1     -21.582 -14.224  49.619  0.00  0.00    -0.033 A 
ATOM     28  C   UNL     1     -20.307 -13.547  49.789  0.00  0.00    +0.005 A 
ATOM     29  C   UNL     1     -20.204 -12.343  50.520  0.00  0.00    +0.013 A 
BRANCH  18  19
ATOM     19  C   UNL     1     -21.592 -15.544  48.825  0.00  0.00    +0.119 C 
BRANCH  19  20
ATOM     20  N   UNL     1     -22.399 -15.581  47.569  0.00  0.00    -0.302 NA
ATOM     21  C   UNL     1     -22.153 -16.860  46.765  0.00  0.00    +0.066 C 
ATOM     22  C   UNL     1     -23.022 -16.892  45.466  0.00  0.00    -0.064 C 
ATOM     23  N   UNL     1     -22.716 -15.654  44.621  0.00  0.00    +0.379 N 
ATOM     24  C   UNL     1     -23.489 -15.710  43.371  0.00  0.00    -0.096 C 
ATOM     25  H   UNL     1     -21.635 -15.687  44.352  0.00  0.00    -0.082 HD
ATOM     26  C   UNL     1     -22.956 -14.377  45.414  0.00  0.00    -0.064 C 
ATOM     27  C   UNL     1     -22.110 -14.369  46.718  0.00  0.00    +0.066 C 
ENDBRANCH  19  20
ENDBRANCH  18  19
ENDBRANCH  14  15
ENDBRANCH  12  13
TORSDOF 6
ENDMDL
MODEL 5
REMARK VINA RESULT:      -6.2     31.632     35.767
REMARK  Name = C:\Users\Docking\Desktop\test protocol\1iep_ligandH.pdb
REMARK  8 active torsions:
REMARK  status: ('A' for Active; 'I' for Inactive)
REMARK    1  A    between atoms: _5  and  _11
REMARK    2  A    between atoms: _19  and  _21
REMARK    3  A    between atoms: _22  and  _66
REMARK    4  A    between atoms: _27  and  _30
REMARK    5  A    between atoms: _32  and  _33
REMARK    6  A    between atoms: _38  and  _43
REMARK    7  A    between atoms: _43  and  _46
REMARK    8  A    between atoms: _53  and  _55
REMARK                            x       y       z     vdW  Elec       q    Type
REMARK                         _______ _______ _______ _____ _____    ______ ____
ROOT
ATOM     10  C   UNL     1      -2.281  -8.073  28.079  0.00  0.00    +0.038 A 
ATOM     11  C   UNL     1      -1.616  -9.325  28.077  0.00  0.00    +0.047 A 
ATOM     12  C   UNL     1      -1.825 -10.291  29.145  0.00  0.00    +0.035 A 
ATOM     32  C   UNL     1      -2.722  -9.948  30.198  0.00  0.00    +0.024 A 
ATOM     33  C   UNL     1      -3.406  -8.679  30.217  0.00  0.00    +0.007 A 
ATOM     34  C   UNL     1      -3.201  -7.722  29.167  0.00  0.00    -0.029 A 
ATOM     35  C   UNL     1      -3.955  -6.374  29.242  0.00  0.00    +0.045 C 
ENDROOT
BRANCH  10   9
ATOM      4  C   UNL     1      -3.234  -6.331  23.709  0.00  0.00    +0.077 A 
ATOM      5  C   UNL     1      -4.278  -7.291  23.490  0.00  0.00    +0.048 A 
ATOM      6  C   UNL     1      -4.533  -8.219  24.523  0.00  0.00    +0.116 A 
ATOM      7  N   UNL     1      -3.794  -8.182  25.686  0.00  0.00    -0.223 NA
ATOM      8  C   UNL     1      -2.793  -7.245  25.864  0.00  0.00    +0.220 A 
ATOM      9  N   UNL     1      -2.042  -7.184  27.028  0.00  0.00    -0.283 N 
ATOM     36  H   UNL     1      -1.308  -6.482  27.118  0.00  0.00    +0.155 HD
ATOM     37  N   UNL     1      -2.529  -6.348  24.892  0.00  0.00    -0.214 NA
BRANCH   4   3
ATOM      1  C   UNL     1      -1.785  -4.538  20.549  0.00  0.00    +0.020 A 
ATOM      2  C   UNL     1      -2.134  -5.587  21.479  0.00  0.00    +0.013 A 
ATOM      3  C   UNL     1      -2.848  -5.283  22.712  0.00  0.00    +0.019 A 
ATOM     38  C   UNL     1      -3.198  -3.895  22.977  0.00  0.00    +0.120 A 
ATOM     39  N   UNL     1      -2.847  -2.906  22.064  0.00  0.00    -0.263 NA
ATOM     40  C   UNL     1      -2.159  -3.186  20.875  0.00  0.00    +0.111 A 
ENDBRANCH   4   3
ENDBRANCH  10   9
BRANCH  12  13
ATOM     13  N   UNL     1      -1.172 -11.575  29.200  0.00  0.00    -0.281 N 
ATOM     14  C   UNL     1      -1.343 -12.655  28.350  0.00  0.00    +0.248 C 
ATOM     30  O   UNL     1      -2.248 -12.756  27.535  0.00  0.00    -0.270 OA
ATOM     31  H   UNL     1      -0.501 -11.703  29.958  0.00  0.00    +0.155 HD
BRANCH  14  15
ATOM     15  C   UNL     1      -0.379 -13.794  28.427  0.00  0.00    +0.037 A 
ATOM     16  C   UNL     1       0.336 -14.266  27.239  0.00  0.00    +0.013 A 
ATOM     17  C   UNL     1       1.248 -15.378  27.337  0.00  0.00    +0.005 A 
ATOM     18  C   UNL     1       1.451 -16.026  28.631  0.00  0.00    -0.033 A 
ATOM     28  C   UNL     1       0.732 -15.534  29.795  0.00  0.00    +0.005 A 
ATOM     29  C   UNL     1      -0.163 -14.445  29.702  0.00  0.00    +0.013 A 
BRANCH  18  19
ATOM     19  C   UNL     1       2.388 -17.232  28.825  0.00  0.00    +0.119 C 
BRANCH  19  20
ATOM     20  N   UNL     1       3.781 -16.949  29.282  0.00  0.00    -0.302 NA
ATOM     21  C   UNL     1       4.821 -17.327  28.223  0.00  0.00    +0.066 C 
ATOM     22  C   UNL     1       6.272 -17.003  28.709  0.00  0.00    -0.064 C 
ATOM     23  N   UNL     1       6.543 -17.739  30.022  0.00  0.00    +0.379 N 
ATOM     24  C   UNL     1       7.925 -17.483  30.452  0.00  0.00    -0.096 C 
ATOM     25  H   UNL     1       6.447 -18.832  29.823  0.00  0.00    -0.082 HD
ATOM     26  C   UNL     1       5.512 -17.371  31.080  0.00  0.00    -0.064 C 
ATOM     27  C   UNL     1       4.072 -17.670  30.575  0.00  0.00    +0.066 C 
ENDBRANCH  19  20
ENDBRANCH  18  19
ENDBRANCH  14  15
ENDBRANCH  12  13
TORSDOF 6
ENDMDL
