MODEL 1
REMARK VINA RESULT:      -8.7      0.000      0.000
REMARK  Name = C:\Users\Docking\Desktop\test protocol\1iep_ligandH.pdb
REMARK  8 active torsions:
REMARK  status: ('A' for Active; 'I' for Inactive)
REMARK    1  A    between atoms: _5  and  _11
REMARK    2  A    between atoms: _19  and  _21
REMARK    3  A    between atoms: _22  and  _66
REMARK    4  A    between atoms: _27  and  _30
REMARK    5  A    between atoms: _32  and  _33
REMARK    6  A    between atoms: _38  and  _43
REMARK    7  A    between atoms: _43  and  _46
REMARK    8  A    between atoms: _53  and  _55
REMARK                            x       y       z     vdW  Elec       q    Type
REMARK                         _______ _______ _______ _____ _____    ______ ____
ROOT
ATOM     10  C   UNL     1      18.157  32.917  95.470  0.00  0.00    +0.038 A 
ATOM     11  C   UNL     1      18.616  31.910  94.583  0.00  0.00    +0.047 A 
ATOM     12  C   UNL     1      17.698  31.215  93.694  0.00  0.00    +0.035 A 
ATOM     32  C   UNL     1      16.319  31.573  93.732  0.00  0.00    +0.024 A 
ATOM     33  C   UNL     1      15.835  32.594  94.628  0.00  0.00    +0.007 A 
ATOM     34  C   UNL     1      16.736  33.281  95.509  0.00  0.00    -0.029 A 
ATOM     35  C   UNL     1      16.160  34.363  96.453  0.00  0.00    +0.045 C 
ENDROOT
BRANCH  10   9
ATOM      4  C   UNL     1      20.431  33.417  99.667  0.00  0.00    +0.077 A 
ATOM      5  C   UNL     1      19.695  32.339 100.261  0.00  0.00    +0.048 A 
ATOM      6  C   UNL     1      18.735  31.686  99.455  0.00  0.00    +0.116 A 
ATOM      7  N   UNL     1      18.535  32.090  98.153  0.00  0.00    -0.223 NA
ATOM      8  C   UNL     1      19.261  33.135  97.611  0.00  0.00    +0.220 A 
ATOM      9  N   UNL     1      19.082  33.553  96.301  0.00  0.00    -0.283 N 
ATOM     36  H   UNL     1      19.632  34.332  95.941  0.00  0.00    +0.155 HD
ATOM     37  N   UNL     1      20.182  33.775  98.361  0.00  0.00    -0.214 NA
BRANCH   4   3
ATOM      1  C   UNL     1      23.775  34.461 101.407  0.00  0.00    +0.020 A 
ATOM      2  C   UNL     1      22.796  33.661 100.707  0.00  0.00    +0.013 A 
ATOM      3  C   UNL     1      21.481  34.202 100.389  0.00  0.00    +0.019 A 
ATOM     38  C   UNL     1      21.186  35.568 100.795  0.00  0.00    +0.120 A 
ATOM     39  N   UNL     1      22.148  36.315 101.468  0.00  0.00    -0.263 NA
ATOM     40  C   UNL     1      23.416  35.803 101.782  0.00  0.00    +0.111 A 
ENDBRANCH   4   3
ENDBRANCH  10   9
BRANCH  12  13
ATOM     13  N   UNL     1      18.105  30.178  92.778  0.00  0.00    -0.281 N 
ATOM     14  C   UNL     1      18.916  30.298  91.661  0.00  0.00    +0.248 C 
ATOM     30  O   UNL     1      19.243  31.361  91.156  0.00  0.00    -0.270 OA
ATOM     31  H   UNL     1      17.753  29.242  92.978  0.00  0.00    +0.155 HD
BRANCH  14  15
ATOM     15  C   UNL     1      19.425  29.057  91.002  0.00  0.00    +0.037 A 
ATOM     16  C   UNL     1      20.596  28.346  91.522  0.00  0.00    +0.013 A 
ATOM     17  C   UNL     1      21.077  27.161  90.857  0.00  0.00    +0.005 A 
ATOM     18  C   UNL     1      20.385  26.679  89.665  0.00  0.00    -0.033 A 
ATOM     28  C   UNL     1      19.223  27.400  89.173  0.00  0.00    +0.005 A 
ATOM     29  C   UNL     1      18.750  28.563  89.821  0.00  0.00    +0.013 A 
BRANCH  18  19
ATOM     19  C   UNL     1      20.841  25.435  88.879  0.00  0.00    +0.119 C 
BRANCH  19  20
ATOM     20  N   UNL     1      20.583  24.101  89.499  0.00  0.00    -0.302 NA
ATOM     21  C   UNL     1      21.643  23.069  89.105  0.00  0.00    +0.066 C 
ATOM     22  C   UNL     1      21.370  21.686  89.781  0.00  0.00    -0.064 C 
ATOM     23  N   UNL     1      19.971  21.200  89.396  0.00  0.00    +0.379 N 
ATOM     24  C   UNL     1      19.734  19.874  89.983  0.00  0.00    -0.096 C 
ATOM     25  H   UNL     1      19.946  21.090  88.287  0.00  0.00    -0.082 HD
ATOM     26  C   UNL     1      18.911  22.222  89.782  0.00  0.00    -0.064 C 
ATOM     27  C   UNL     1      19.208  23.601  89.128  0.00  0.00    +0.066 C 
ENDBRANCH  19  20
ENDBRANCH  18  19
ENDBRANCH  14  15
ENDBRANCH  12  13
TORSDOF 6
ENDMDL
MODEL 2
REMARK VINA RESULT:      -8.2      1.931      2.999
REMARK  Name = C:\Users\Docking\Desktop\test protocol\1iep_ligandH.pdb
REMARK  8 active torsions:
REMARK  status: ('A' for Active; 'I' for Inactive)
REMARK    1  A    between atoms: _5  and  _11
REMARK    2  A    between atoms: _19  and  _21
REMARK    3  A    between atoms: _22  and  _66
REMARK    4  A    between atoms: _27  and  _30
REMARK    5  A    between atoms: _32  and  _33
REMARK    6  A    between atoms: _38  and  _43
REMARK    7  A    between atoms: _43  and  _46
REMARK    8  A    between atoms: _53  and  _55
REMARK                            x       y       z     vdW  Elec       q    Type
REMARK                         _______ _______ _______ _____ _____    ______ ____
ROOT
ATOM     10  C   UNL     1      18.048  32.937  95.499  0.00  0.00    +0.038 A 
ATOM     11  C   UNL     1      18.567  31.920  94.657  0.00  0.00    +0.047 A 
ATOM     12  C   UNL     1      17.696  31.151  93.782  0.00  0.00    +0.035 A 
ATOM     32  C   UNL     1      16.302  31.446  93.787  0.00  0.00    +0.024 A 
ATOM     33  C   UNL     1      15.757  32.475  94.637  0.00  0.00    +0.007 A 
ATOM     34  C   UNL     1      16.611  33.235  95.505  0.00  0.00    -0.029 A 
ATOM     35  C   UNL     1      15.971  34.322  96.400  0.00  0.00    +0.045 C 
ENDROOT
BRANCH  10   9
ATOM      4  C   UNL     1      20.345  33.605  99.660  0.00  0.00    +0.077 A 
ATOM      5  C   UNL     1      19.716  32.463 100.259  0.00  0.00    +0.048 A 
ATOM      6  C   UNL     1      18.802  31.735  99.465  0.00  0.00    +0.116 A 
ATOM      7  N   UNL     1      18.544  32.128  98.169  0.00  0.00    -0.223 NA
ATOM      8  C   UNL     1      19.167  33.235  97.623  0.00  0.00    +0.220 A 
ATOM      9  N   UNL     1      18.929  33.644  96.320  0.00  0.00    -0.283 N 
ATOM     36  H   UNL     1      19.403  34.471  95.956  0.00  0.00    +0.155 HD
ATOM     37  N   UNL     1      20.043  33.948  98.361  0.00  0.00    -0.214 NA
BRANCH   4   3
ATOM      1  C   UNL     1      22.090  36.680 101.334  0.00  0.00    +0.020 A 
ATOM      2  C   UNL     1      21.100  35.885 100.644  0.00  0.00    +0.013 A 
ATOM      3  C   UNL     1      21.336  34.473 100.371  0.00  0.00    +0.019 A 
ATOM     38  C   UNL     1      22.594  33.891 100.813  0.00  0.00    +0.120 A 
ATOM     39  N   UNL     1      23.530  34.681 101.474  0.00  0.00    -0.263 NA
ATOM     40  C   UNL     1      23.314  36.041 101.741  0.00  0.00    +0.111 A 
ENDBRANCH   4   3
ENDBRANCH  10   9
BRANCH  12  13
ATOM     13  N   UNL     1      18.165  30.102  92.911  0.00  0.00    -0.281 N 
ATOM     14  C   UNL     1      18.746  30.229  91.660  0.00  0.00    +0.248 C 
ATOM     30  O   UNL     1      18.756  31.261  91.004  0.00  0.00    -0.270 OA
ATOM     31  H   UNL     1      18.055  29.149  93.259  0.00  0.00    +0.155 HD
BRANCH  14  15
ATOM     15  C   UNL     1      19.397  29.035  91.041  0.00  0.00    +0.037 A 
ATOM     16  C   UNL     1      20.573  28.409  91.651  0.00  0.00    +0.013 A 
ATOM     17  C   UNL     1      21.193  27.269  91.024  0.00  0.00    +0.005 A 
ATOM     18  C   UNL     1      20.635  26.745  89.779  0.00  0.00    -0.033 A 
ATOM     28  C   UNL     1      19.465  27.382  89.199  0.00  0.00    +0.005 A 
ATOM     29  C   UNL     1      18.856  28.501  89.810  0.00  0.00    +0.013 A 
BRANCH  18  19
ATOM     19  C   UNL     1      21.244  25.545  89.030  0.00  0.00    +0.119 C 
BRANCH  19  20
ATOM     20  N   UNL     1      22.599  25.729  88.430  0.00  0.00    -0.302 NA
ATOM     21  C   UNL     1      23.715  25.534  89.459  0.00  0.00    +0.066 C 
ATOM     22  C   UNL     1      25.126  25.708  88.809  0.00  0.00    -0.064 C 
ATOM     23  N   UNL     1      25.220  27.092  88.164  0.00  0.00    +0.379 N 
ATOM     24  C   UNL     1      26.565  27.281  87.602  0.00  0.00    -0.096 C 
ATOM     25  H   UNL     1      25.080  27.850  88.969  0.00  0.00    -0.082 HD
ATOM     26  C   UNL     1      24.112  27.295  87.141  0.00  0.00    -0.064 C 
ATOM     27  C   UNL     1      22.715  27.091  87.791  0.00  0.00    +0.066 C 
ENDBRANCH  19  20
ENDBRANCH  18  19
ENDBRANCH  14  15
ENDBRANCH  12  13
TORSDOF 6
ENDMDL
MODEL 3
REMARK VINA RESULT:      -8.2      9.530     18.213
REMARK  Name = C:\Users\Docking\Desktop\test protocol\1iep_ligandH.pdb
REMARK  8 active torsions:
REMARK  status: ('A' for Active; 'I' for Inactive)
REMARK    1  A    between atoms: _5  and  _11
REMARK    2  A    between atoms: _19  and  _21
REMARK    3  A    between atoms: _22  and  _66
REMARK    4  A    between atoms: _27  and  _30
REMARK    5  A    between atoms: _32  and  _33
REMARK    6  A    between atoms: _38  and  _43
REMARK    7  A    between atoms: _43  and  _46
REMARK    8  A    between atoms: _53  and  _55
REMARK                            x       y       z     vdW  Elec       q    Type
REMARK                         _______ _______ _______ _____ _____    ______ ____
ROOT
ATOM     10  C   UNL     1      18.058  38.037 103.137  0.00  0.00    +0.038 A 
ATOM     11  C   UNL     1      17.789  37.618 104.465  0.00  0.00    +0.047 A 
ATOM     12  C   UNL     1      18.054  38.490 105.598  0.00  0.00    +0.035 A 
ATOM     32  C   UNL     1      18.592  39.786 105.342  0.00  0.00    +0.024 A 
ATOM     33  C   UNL     1      18.873  40.228 103.999  0.00  0.00    +0.007 A 
ATOM     34  C   UNL     1      18.615  39.370 102.878  0.00  0.00    -0.029 A 
ATOM     35  C   UNL     1      18.942  39.894 101.460  0.00  0.00    +0.045 C 
ENDROOT
BRANCH  10   9
ATOM      4  C   UNL     1      19.345  34.581 100.066  0.00  0.00    +0.077 A 
ATOM      5  C   UNL     1      20.683  34.540 100.579  0.00  0.00    +0.048 A 
ATOM      6  C   UNL     1      21.003  35.431 101.629  0.00  0.00    +0.116 A 
ATOM      7  N   UNL     1      20.046  36.292 102.121  0.00  0.00    -0.223 NA
ATOM      8  C   UNL     1      18.765  36.306 101.602  0.00  0.00    +0.220 A 
ATOM      9  N   UNL     1      17.784  37.159 102.087  0.00  0.00    -0.283 N 
ATOM     36  H   UNL     1      16.853  37.144 101.672  0.00  0.00    +0.155 HD
ATOM     37  N   UNL     1      18.435  35.467 100.598  0.00  0.00    -0.214 NA
BRANCH   4   3
ATOM      1  C   UNL     1      17.118  32.219  97.883  0.00  0.00    +0.020 A 
ATOM      2  C   UNL     1      17.544  33.060  98.977  0.00  0.00    +0.013 A 
ATOM      3  C   UNL     1      18.854  33.700  98.959  0.00  0.00    +0.019 A 
ATOM     38  C   UNL     1      19.714  33.467  97.809  0.00  0.00    +0.120 A 
ATOM     39  N   UNL     1      19.278  32.651  96.770  0.00  0.00    -0.263 NA
ATOM     40  C   UNL     1      18.020  32.028  96.778  0.00  0.00    +0.111 A 
ENDBRANCH   4   3
ENDBRANCH  10   9
BRANCH  12  13
ATOM     13  N   UNL     1      17.809  38.116 106.969  0.00  0.00    -0.281 N 
ATOM     14  C   UNL     1      16.633  37.638 107.524  0.00  0.00    +0.248 C 
ATOM     30  O   UNL     1      15.546  37.662 106.966  0.00  0.00    -0.270 OA
ATOM     31  H   UNL     1      18.598  38.216 107.608  0.00  0.00    +0.155 HD
BRANCH  14  15
ATOM     15  C   UNL     1      16.666  37.064 108.903  0.00  0.00    +0.037 A 
ATOM     16  C   UNL     1      15.478  36.448 109.499  0.00  0.00    +0.013 A 
ATOM     17  C   UNL     1      15.533  35.917 110.838  0.00  0.00    +0.005 A 
ATOM     18  C   UNL     1      16.783  35.999 111.590  0.00  0.00    -0.033 A 
ATOM     28  C   UNL     1      17.948  36.611 110.973  0.00  0.00    +0.005 A 
ATOM     29  C   UNL     1      17.897  37.133 109.661  0.00  0.00    +0.013 A 
BRANCH  18  19
ATOM     19  C   UNL     1      16.927  35.477 113.032  0.00  0.00    +0.119 C 
BRANCH  19  20
ATOM     20  N   UNL     1      15.938  35.968 114.039  0.00  0.00    -0.302 NA
ATOM     21  C   UNL     1      16.207  37.419 114.448  0.00  0.00    +0.066 C 
ATOM     22  C   UNL     1      15.150  37.923 115.484  0.00  0.00    -0.064 C 
ATOM     23  N   UNL     1      15.161  37.004 116.707  0.00  0.00    +0.379 N 
ATOM     24  C   UNL     1      14.209  37.509 117.708  0.00  0.00    -0.096 C 
ATOM     25  H   UNL     1      16.180  37.050 117.156  0.00  0.00    -0.082 HD
ATOM     26  C   UNL     1      14.897  35.559 116.309  0.00  0.00    -0.064 C 
ATOM     27  C   UNL     1      15.935  35.077 115.257  0.00  0.00    +0.066 C 
ENDBRANCH  19  20
ENDBRANCH  18  19
ENDBRANCH  14  15
ENDBRANCH  12  13
TORSDOF 6
ENDMDL
MODEL 4
REMARK VINA RESULT:      -8.0      3.141     11.610
REMARK  Name = C:\Users\Docking\Desktop\test protocol\1iep_ligandH.pdb
REMARK  8 active torsions:
REMARK  status: ('A' for Active; 'I' for Inactive)
REMARK    1  A    between atoms: _5  and  _11
REMARK    2  A    between atoms: _19  and  _21
REMARK    3  A    between atoms: _22  and  _66
REMARK    4  A    between atoms: _27  and  _30
REMARK    5  A    between atoms: _32  and  _33
REMARK    6  A    between atoms: _38  and  _43
REMARK    7  A    between atoms: _43  and  _46
REMARK    8  A    between atoms: _53  and  _55
REMARK                            x       y       z     vdW  Elec       q    Type
REMARK                         _______ _______ _______ _____ _____    ______ ____
ROOT
ATOM     10  C   UNL     1      18.101  30.364  92.069  0.00  0.00    +0.038 A 
ATOM     11  C   UNL     1      18.298  31.076  93.280  0.00  0.00    +0.047 A 
ATOM     12  C   UNL     1      17.308  32.024  93.765  0.00  0.00    +0.035 A 
ATOM     32  C   UNL     1      16.126  32.221  92.992  0.00  0.00    +0.024 A 
ATOM     33  C   UNL     1      15.910  31.507  91.759  0.00  0.00    +0.007 A 
ATOM     34  C   UNL     1      16.885  30.572  91.274  0.00  0.00    -0.029 A 
ATOM     35  C   UNL     1      16.604  29.839  89.942  0.00  0.00    +0.045 C 
ENDROOT
BRANCH  10   9
ATOM      4  C   UNL     1      22.519  29.361  90.484  0.00  0.00    +0.077 A 
ATOM      5  C   UNL     1      22.890  30.747  90.462  0.00  0.00    +0.048 A 
ATOM      6  C   UNL     1      21.912  31.686  90.859  0.00  0.00    +0.116 A 
ATOM      7  N   UNL     1      20.661  31.261  91.248  0.00  0.00    -0.223 NA
ATOM      8  C   UNL     1      20.335  29.917  91.256  0.00  0.00    +0.220 A 
ATOM      9  N   UNL     1      19.085  29.465  91.651  0.00  0.00    -0.283 N 
ATOM     36  H   UNL     1      18.882  28.466  91.636  0.00  0.00    +0.155 HD
ATOM     37  N   UNL     1      21.251  29.000  90.880  0.00  0.00    -0.214 NA
BRANCH   4   3
ATOM      1  C   UNL     1      25.695  27.355  89.394  0.00  0.00    +0.020 A 
ATOM      2  C   UNL     1      24.845  28.464  89.762  0.00  0.00    +0.013 A 
ATOM      3  C   UNL     1      23.443  28.249  90.095  0.00  0.00    +0.019 A 
ATOM     38  C   UNL     1      22.927  26.889  90.046  0.00  0.00    +0.120 A 
ATOM     39  N   UNL     1      23.769  25.841  89.687  0.00  0.00    -0.263 NA
ATOM     40  C   UNL     1      25.120  26.036  89.362  0.00  0.00    +0.111 A 
ENDBRANCH   4   3
ENDBRANCH  10   9
BRANCH  12  13
ATOM     13  N   UNL     1      17.457  32.782  94.983  0.00  0.00    -0.281 N 
ATOM     14  C   UNL     1      16.933  32.496  96.233  0.00  0.00    +0.248 C 
ATOM     30  O   UNL     1      16.075  31.653  96.447  0.00  0.00    -0.270 OA
ATOM     31  H   UNL     1      18.016  33.633  94.914  0.00  0.00    +0.155 HD
BRANCH  14  15
ATOM     15  C   UNL     1      17.424  33.269  97.415  0.00  0.00    +0.037 A 
ATOM     16  C   UNL     1      18.317  34.419  97.253  0.00  0.00    +0.013 A 
ATOM     17  C   UNL     1      18.789  35.136  98.411  0.00  0.00    +0.005 A 
ATOM     18  C   UNL     1      18.366  34.706  99.742  0.00  0.00    -0.033 A 
ATOM     28  C   UNL     1      17.475  33.565  99.873  0.00  0.00    +0.005 A 
ATOM     29  C   UNL     1      17.011  32.859  98.740  0.00  0.00    +0.013 A 
BRANCH  18  19
ATOM     19  C   UNL     1      18.837  35.399 101.034  0.00  0.00    +0.119 C 
BRANCH  19  20
ATOM     20  N   UNL     1      20.252  35.172 101.455  0.00  0.00    -0.302 NA
ATOM     21  C   UNL     1      21.188  36.267 100.936  0.00  0.00    +0.066 C 
ATOM     22  C   UNL     1      22.660  36.026 101.405  0.00  0.00    -0.064 C 
ATOM     23  N   UNL     1      23.124  34.647 100.932  0.00  0.00    +0.379 N 
ATOM     24  C   UNL     1      24.527  34.441 101.321  0.00  0.00    -0.096 C 
ATOM     25  H   UNL     1      23.077  34.638  99.818  0.00  0.00    -0.082 HD
ATOM     26  C   UNL     1      22.196  33.553 101.441  0.00  0.00    -0.064 C 
ATOM     27  C   UNL     1      20.732  33.818 100.995  0.00  0.00    +0.066 C 
ENDBRANCH  19  20
ENDBRANCH  18  19
ENDBRANCH  14  15
ENDBRANCH  12  13
TORSDOF 6
ENDMDL
MODEL 5
REMARK VINA RESULT:      -7.8      3.117     11.707
REMARK  Name = C:\Users\Docking\Desktop\test protocol\1iep_ligandH.pdb
REMARK  8 active torsions:
REMARK  status: ('A' for Active; 'I' for Inactive)
REMARK    1  A    between atoms: _5  and  _11
REMARK    2  A    between atoms: _19  and  _21
REMARK    3  A    between atoms: _22  and  _66
REMARK    4  A    between atoms: _27  and  _30
REMARK    5  A    between atoms: _32  and  _33
REMARK    6  A    between atoms: _38  and  _43
REMARK    7  A    between atoms: _43  and  _46
REMARK    8  A    between atoms: _53  and  _55
REMARK                            x       y       z     vdW  Elec       q    Type
REMARK                         _______ _______ _______ _____ _____    ______ ____
ROOT
ATOM     10  C   UNL     1      18.442  29.899  91.357  0.00  0.00    +0.038 A 
ATOM     11  C   UNL     1      18.676  30.515  92.613  0.00  0.00    +0.047 A 
ATOM     12  C   UNL     1      17.697  31.412  93.206  0.00  0.00    +0.035 A 
ATOM     32  C   UNL     1      16.488  31.659  92.492  0.00  0.00    +0.024 A 
ATOM     33  C   UNL     1      16.234  31.042  91.214  0.00  0.00    +0.007 A 
ATOM     34  C   UNL     1      17.198  30.158  90.623  0.00  0.00    -0.029 A 
ATOM     35  C   UNL     1      16.875  29.530  89.247  0.00  0.00    +0.045 C 
ENDROOT
BRANCH  10   9
ATOM      4  C   UNL     1      22.968  28.907  90.104  0.00  0.00    +0.077 A 
ATOM      5  C   UNL     1      23.425  30.209  90.497  0.00  0.00    +0.048 A 
ATOM      6  C   UNL     1      22.462  31.107  91.011  0.00  0.00    +0.116 A 
ATOM      7  N   UNL     1      21.143  30.720  91.119  0.00  0.00    -0.223 NA
ATOM      8  C   UNL     1      20.736  29.458  90.728  0.00  0.00    +0.220 A 
ATOM      9  N   UNL     1      19.417  29.045  90.835  0.00  0.00    -0.283 N 
ATOM     36  H   UNL     1      19.155  28.108  90.530  0.00  0.00    +0.155 HD
ATOM     37  N   UNL     1      21.636  28.583  90.234  0.00  0.00    -0.214 NA
BRANCH   4   3
ATOM      1  C   UNL     1      25.939  27.086  88.328  0.00  0.00    +0.020 A 
ATOM      2  C   UNL     1      25.108  28.148  88.847  0.00  0.00    +0.013 A 
ATOM      3  C   UNL     1      23.866  27.847  89.547  0.00  0.00    +0.019 A 
ATOM     38  C   UNL     1      23.490  26.450  89.706  0.00  0.00    +0.120 A 
ATOM     39  N   UNL     1      24.310  25.449  89.195  0.00  0.00    -0.263 NA
ATOM     40  C   UNL     1      25.507  25.726  88.518  0.00  0.00    +0.111 A 
ENDBRANCH   4   3
ENDBRANCH  10   9
BRANCH  12  13
ATOM     13  N   UNL     1      17.883  32.072  94.474  0.00  0.00    -0.281 N 
ATOM     14  C   UNL     1      17.174  31.877  95.648  0.00  0.00    +0.248 C 
ATOM     30  O   UNL     1      16.125  31.255  95.726  0.00  0.00    -0.270 OA
ATOM     31  H   UNL     1      18.628  32.768  94.511  0.00  0.00    +0.155 HD
BRANCH  14  15
ATOM     15  C   UNL     1      17.697  32.473  96.915  0.00  0.00    +0.037 A 
ATOM     16  C   UNL     1      16.958  32.350  98.174  0.00  0.00    +0.013 A 
ATOM     17  C   UNL     1      17.477  32.948  99.379  0.00  0.00    +0.005 A 
ATOM     18  C   UNL     1      18.744  33.673  99.329  0.00  0.00    -0.033 A 
ATOM     28  C   UNL     1      19.460  33.775  98.068  0.00  0.00    +0.005 A 
ATOM     29  C   UNL     1      18.954  33.191  96.885  0.00  0.00    +0.013 A 
BRANCH  18  19
ATOM     19  C   UNL     1      19.363  34.361 100.561  0.00  0.00    +0.119 C 
BRANCH  19  20
ATOM     20  N   UNL     1      20.837  34.601 100.542  0.00  0.00    -0.302 NA
ATOM     21  C   UNL     1      21.627  33.348 100.929  0.00  0.00    +0.066 C 
ATOM     22  C   UNL     1      23.168  33.610 100.883  0.00  0.00    -0.064 C 
ATOM     23  N   UNL     1      23.512  34.775 101.811  0.00  0.00    +0.379 N 
ATOM     24  C   UNL     1      24.967  34.987 101.814  0.00  0.00    -0.096 C 
ATOM     25  H   UNL     1      23.211  34.485 102.844  0.00  0.00    -0.082 HD
ATOM     26  C   UNL     1      22.729  36.025 101.435  0.00  0.00    -0.064 C 
ATOM     27  C   UNL     1      21.200  35.745 101.456  0.00  0.00    +0.066 C 
ENDBRANCH  19  20
ENDBRANCH  18  19
ENDBRANCH  14  15
ENDBRANCH  12  13
TORSDOF 6
ENDMDL
