MODEL 1
REMARK VINA RESULT:      -9.9      0.000      0.000
REMARK  Name = C:\Users\Docking\Desktop\test protocol\1iep_ligandH.pdb
REMARK  8 active torsions:
REMARK  status: ('A' for Active; 'I' for Inactive)
REMARK    1  A    between atoms: _5  and  _11
REMARK    2  A    between atoms: _19  and  _21
REMARK    3  A    between atoms: _22  and  _66
REMARK    4  A    between atoms: _27  and  _30
REMARK    5  A    between atoms: _32  and  _33
REMARK    6  A    between atoms: _38  and  _43
REMARK    7  A    between atoms: _43  and  _46
REMARK    8  A    between atoms: _53  and  _55
REMARK                            x       y       z     vdW  Elec       q    Type
REMARK                         _______ _______ _______ _____ _____    ______ ____
ROOT
ATOM     10  C   UNL     1      78.421 138.021 125.568  0.00  0.00    +0.038 A 
ATOM     11  C   UNL     1      79.201 137.403 124.557  0.00  0.00    +0.047 A 
ATOM     12  C   UNL     1      80.587 137.035 124.796  0.00  0.00    +0.035 A 
ATOM     32  C   UNL     1      81.148 137.307 126.078  0.00  0.00    +0.024 A 
ATOM     33  C   UNL     1      80.370 137.936 127.116  0.00  0.00    +0.007 A 
ATOM     34  C   UNL     1      79.002 138.304 126.886  0.00  0.00    -0.029 A 
ATOM     35  C   UNL     1      78.218 138.981 128.034  0.00  0.00    +0.045 C 
ENDROOT
BRANCH  10   9
ATOM      4  C   UNL     1      73.734 136.995 125.443  0.00  0.00    +0.077 A 
ATOM      5  C   UNL     1      73.949 135.674 125.962  0.00  0.00    +0.048 A 
ATOM      6  C   UNL     1      75.281 135.296 126.241  0.00  0.00    +0.116 A 
ATOM      7  N   UNL     1      76.314 136.180 126.015  0.00  0.00    -0.223 NA
ATOM      8  C   UNL     1      76.072 137.445 125.512  0.00  0.00    +0.220 A 
ATOM      9  N   UNL     1      77.095 138.353 125.284  0.00  0.00    -0.283 N 
ATOM     36  H   UNL     1      76.876 139.274 124.905  0.00  0.00    +0.155 HD
ATOM     37  N   UNL     1      74.809 137.830 125.236  0.00  0.00    -0.214 NA
BRANCH   4   3
ATOM      1  C   UNL     1      69.869 137.372 124.969  0.00  0.00    +0.020 A 
ATOM      2  C   UNL     1      71.149 136.797 125.316  0.00  0.00    +0.013 A 
ATOM      3  C   UNL     1      72.383 137.542 125.102  0.00  0.00    +0.019 A 
ATOM     38  C   UNL     1      72.287 138.878 124.531  0.00  0.00    +0.120 A 
ATOM     39  N   UNL     1      71.041 139.405 124.206  0.00  0.00    -0.263 NA
ATOM     40  C   UNL     1      69.847 138.696 124.406  0.00  0.00    +0.111 A 
ENDBRANCH   4   3
ENDBRANCH  10   9
BRANCH  12  13
ATOM     13  N   UNL     1      81.430 136.412 123.805  0.00  0.00    -0.281 N 
ATOM     14  C   UNL     1      82.439 136.997 123.057  0.00  0.00    +0.248 C 
ATOM     30  O   UNL     1      82.628 138.201 122.973  0.00  0.00    -0.270 OA
ATOM     31  H   UNL     1      81.263 135.421 123.634  0.00  0.00    +0.155 HD
BRANCH  14  15
ATOM     15  C   UNL     1      83.363 136.117 122.278  0.00  0.00    +0.037 A 
ATOM     16  C   UNL     1      83.230 134.658 122.310  0.00  0.00    +0.013 A 
ATOM     17  C   UNL     1      84.145 133.832 121.563  0.00  0.00    +0.005 A 
ATOM     18  C   UNL     1      85.201 134.464 120.776  0.00  0.00    -0.033 A 
ATOM     28  C   UNL     1      85.307 135.913 120.758  0.00  0.00    +0.005 A 
ATOM     29  C   UNL     1      84.412 136.726 121.489  0.00  0.00    +0.013 A 
BRANCH  18  19
ATOM     19  C   UNL     1      86.235 133.660 119.965  0.00  0.00    +0.119 C 
BRANCH  19  20
ATOM     20  N   UNL     1      85.811 133.158 118.624  0.00  0.00    -0.302 NA
ATOM     21  C   UNL     1      85.174 134.260 117.773  0.00  0.00    +0.066 C 
ATOM     22  C   UNL     1      84.757 133.723 116.365  0.00  0.00    -0.064 C 
ATOM     23  N   UNL     1      83.795 132.546 116.535  0.00  0.00    +0.379 N 
ATOM     24  C   UNL     1      83.356 132.076 115.213  0.00  0.00    -0.096 C 
ATOM     25  H   UNL     1      82.896 132.921 117.077  0.00  0.00    -0.082 HD
ATOM     26  C   UNL     1      84.420 131.447 117.383  0.00  0.00    -0.064 C 
ATOM     27  C   UNL     1      84.857 131.998 118.769  0.00  0.00    +0.066 C 
ENDBRANCH  19  20
ENDBRANCH  18  19
ENDBRANCH  14  15
ENDBRANCH  12  13
TORSDOF 6
ENDMDL
MODEL 2
REMARK VINA RESULT:      -9.8     13.510     19.140
REMARK  Name = C:\Users\Docking\Desktop\test protocol\1iep_ligandH.pdb
REMARK  8 active torsions:
REMARK  status: ('A' for Active; 'I' for Inactive)
REMARK    1  A    between atoms: _5  and  _11
REMARK    2  A    between atoms: _19  and  _21
REMARK    3  A    between atoms: _22  and  _66
REMARK    4  A    between atoms: _27  and  _30
REMARK    5  A    between atoms: _32  and  _33
REMARK    6  A    between atoms: _38  and  _43
REMARK    7  A    between atoms: _43  and  _46
REMARK    8  A    between atoms: _53  and  _55
REMARK                            x       y       z     vdW  Elec       q    Type
REMARK                         _______ _______ _______ _____ _____    ______ ____
ROOT
ATOM     10  C   UNL     1      69.259 128.841 113.668  0.00  0.00    +0.038 A 
ATOM     11  C   UNL     1      68.422 129.271 114.730  0.00  0.00    +0.047 A 
ATOM     12  C   UNL     1      68.761 130.436 115.531  0.00  0.00    +0.035 A 
ATOM     32  C   UNL     1      69.959 131.143 115.222  0.00  0.00    +0.024 A 
ATOM     33  C   UNL     1      70.822 130.720 114.148  0.00  0.00    +0.007 A 
ATOM     34  C   UNL     1      70.495 129.570 113.355  0.00  0.00    -0.029 A 
ATOM     35  C   UNL     1      71.460 129.158 112.220  0.00  0.00    +0.045 C 
ENDROOT
BRANCH  10   9
ATOM      4  C   UNL     1      67.459 124.404 113.338  0.00  0.00    +0.077 A 
ATOM      5  C   UNL     1      67.273 124.311 114.758  0.00  0.00    +0.048 A 
ATOM      6  C   UNL     1      67.659 125.424 115.538  0.00  0.00    +0.116 A 
ATOM      7  N   UNL     1      68.191 126.541 114.933  0.00  0.00    -0.223 NA
ATOM      8  C   UNL     1      68.360 126.598 113.561  0.00  0.00    +0.220 A 
ATOM      9  N   UNL     1      68.885 127.716 112.931  0.00  0.00    -0.283 N 
ATOM     36  H   UNL     1      69.001 127.715 111.918  0.00  0.00    +0.155 HD
ATOM     37  N   UNL     1      68.000 125.548 112.795  0.00  0.00    -0.214 NA
BRANCH   4   3
ATOM      1  C   UNL     1      65.672 121.365 111.645  0.00  0.00    +0.020 A 
ATOM      2  C   UNL     1      65.980 122.402 112.602  0.00  0.00    +0.013 A 
ATOM      3  C   UNL     1      67.097 123.312 112.380  0.00  0.00    +0.019 A 
ATOM     38  C   UNL     1      67.887 123.146 111.170  0.00  0.00    +0.120 A 
ATOM     39  N   UNL     1      67.567 122.137 110.267  0.00  0.00    -0.263 NA
ATOM     40  C   UNL     1      66.496 121.254 110.470  0.00  0.00    +0.111 A 
ENDBRANCH   4   3
ENDBRANCH  10   9
BRANCH  12  13
ATOM     13  N   UNL     1      67.953 130.914 116.626  0.00  0.00    -0.281 N 
ATOM     14  C   UNL     1      67.455 130.190 117.696  0.00  0.00    +0.248 C 
ATOM     30  O   UNL     1      67.449 128.969 117.762  0.00  0.00    -0.270 OA
ATOM     31  H   UNL     1      67.722 131.908 116.611  0.00  0.00    +0.155 HD
BRANCH  14  15
ATOM     15  C   UNL     1      66.864 130.927 118.855  0.00  0.00    +0.037 A 
ATOM     16  C   UNL     1      66.536 130.238 120.106  0.00  0.00    +0.013 A 
ATOM     17  C   UNL     1      65.952 130.970 121.202  0.00  0.00    +0.005 A 
ATOM     18  C   UNL     1      65.692 132.399 121.051  0.00  0.00    -0.033 A 
ATOM     28  C   UNL     1      66.032 133.058 119.801  0.00  0.00    +0.005 A 
ATOM     29  C   UNL     1      66.604 132.344 118.724  0.00  0.00    +0.013 A 
BRANCH  18  19
ATOM     19  C   UNL     1      65.051 133.254 122.161  0.00  0.00    +0.119 C 
BRANCH  19  20
ATOM     20  N   UNL     1      64.971 134.727 121.928  0.00  0.00    -0.302 NA
ATOM     21  C   UNL     1      66.189 135.465 122.490  0.00  0.00    +0.066 C 
ATOM     22  C   UNL     1      66.099 137.002 122.218  0.00  0.00    -0.064 C 
ATOM     23  N   UNL     1      64.806 137.550 122.826  0.00  0.00    +0.379 N 
ATOM     24  C   UNL     1      64.746 139.005 122.622  0.00  0.00    -0.096 C 
ATOM     25  H   UNL     1      64.843 137.363 123.924  0.00  0.00    -0.082 HD
ATOM     26  C   UNL     1      63.590 136.820 122.274  0.00  0.00    -0.064 C 
ATOM     27  C   UNL     1      63.703 135.290 122.523  0.00  0.00    +0.066 C 
ENDBRANCH  19  20
ENDBRANCH  18  19
ENDBRANCH  14  15
ENDBRANCH  12  13
TORSDOF 6
ENDMDL
MODEL 3
REMARK VINA RESULT:      -9.7      2.004      2.431
REMARK  Name = C:\Users\Docking\Desktop\test protocol\1iep_ligandH.pdb
REMARK  8 active torsions:
REMARK  status: ('A' for Active; 'I' for Inactive)
REMARK    1  A    between atoms: _5  and  _11
REMARK    2  A    between atoms: _19  and  _21
REMARK    3  A    between atoms: _22  and  _66
REMARK    4  A    between atoms: _27  and  _30
REMARK    5  A    between atoms: _32  and  _33
REMARK    6  A    between atoms: _38  and  _43
REMARK    7  A    between atoms: _43  and  _46
REMARK    8  A    between atoms: _53  and  _55
REMARK                            x       y       z     vdW  Elec       q    Type
REMARK                         _______ _______ _______ _____ _____    ______ ____
ROOT
ATOM     10  C   UNL     1      79.365 137.989 125.678  0.00  0.00    +0.038 A 
ATOM     11  C   UNL     1      79.674 137.170 124.561  0.00  0.00    +0.047 A 
ATOM     12  C   UNL     1      80.982 136.550 124.422  0.00  0.00    +0.035 A 
ATOM     32  C   UNL     1      81.953 136.784 125.439  0.00  0.00    +0.024 A 
ATOM     33  C   UNL     1      81.656 137.615 126.580  0.00  0.00    +0.007 A 
ATOM     34  C   UNL     1      80.368 138.230 126.722  0.00  0.00    -0.029 A 
ATOM     35  C   UNL     1      80.108 139.116 127.963  0.00  0.00    +0.045 C 
ENDROOT
BRANCH  10   9
ATOM      4  C   UNL     1      74.696 137.777 126.772  0.00  0.00    +0.077 A 
ATOM      5  C   UNL     1      74.795 136.408 127.187  0.00  0.00    +0.048 A 
ATOM      6  C   UNL     1      76.064 135.792 127.096  0.00  0.00    +0.116 A 
ATOM      7  N   UNL     1      77.146 136.503 126.625  0.00  0.00    -0.223 NA
ATOM      8  C   UNL     1      77.016 137.822 126.231  0.00  0.00    +0.220 A 
ATOM      9  N   UNL     1      78.093 138.558 125.761  0.00  0.00    -0.283 N 
ATOM     36  H   UNL     1      77.954 139.527 125.474  0.00  0.00    +0.155 HD
ATOM     37  N   UNL     1      75.815 138.432 126.306  0.00  0.00    -0.214 NA
BRANCH   4   3
ATOM      1  C   UNL     1      71.304 139.443 125.763  0.00  0.00    +0.020 A 
ATOM      2  C   UNL     1      72.520 138.668 125.673  0.00  0.00    +0.013 A 
ATOM      3  C   UNL     1      73.425 138.567 126.811  0.00  0.00    +0.019 A 
ATOM     38  C   UNL     1      73.067 139.266 128.036  0.00  0.00    +0.120 A 
ATOM     39  N   UNL     1      71.890 140.006 128.093  0.00  0.00    -0.263 NA
ATOM     40  C   UNL     1      71.012 140.112 127.004  0.00  0.00    +0.111 A 
ENDBRANCH   4   3
ENDBRANCH  10   9
BRANCH  12  13
ATOM     13  N   UNL     1      81.356 135.716 123.307  0.00  0.00    -0.281 N 
ATOM     14  C   UNL     1      82.524 135.760 122.563  0.00  0.00    +0.248 C 
ATOM     30  O   UNL     1      83.338 136.670 122.609  0.00  0.00    -0.270 OA
ATOM     31  H   UNL     1      80.677 135.006 123.032  0.00  0.00    +0.155 HD
BRANCH  14  15
ATOM     15  C   UNL     1      82.824 134.639 121.622  0.00  0.00    +0.037 A 
ATOM     16  C   UNL     1      84.096 133.915 121.683  0.00  0.00    +0.013 A 
ATOM     17  C   UNL     1      84.367 132.848 120.752  0.00  0.00    +0.005 A 
ATOM     18  C   UNL     1      83.361 132.498 119.752  0.00  0.00    -0.033 A 
ATOM     28  C   UNL     1      82.106 133.229 119.717  0.00  0.00    +0.005 A 
ATOM     29  C   UNL     1      81.837 134.276 120.627  0.00  0.00    +0.013 A 
BRANCH  18  19
ATOM     19  C   UNL     1      83.574 131.388 118.705  0.00  0.00    +0.119 C 
BRANCH  19  20
ATOM     20  N   UNL     1      84.965 131.174 118.208  0.00  0.00    -0.302 NA
ATOM     21  C   UNL     1      85.452 132.340 117.343  0.00  0.00    +0.066 C 
ATOM     22  C   UNL     1      86.918 132.110 116.850  0.00  0.00    -0.064 C 
ATOM     23  N   UNL     1      86.992 130.793 116.076  0.00  0.00    +0.379 N 
ATOM     24  C   UNL     1      88.356 130.603 115.561  0.00  0.00    -0.096 C 
ATOM     25  H   UNL     1      86.308 130.878 115.199  0.00  0.00    -0.082 HD
ATOM     26  C   UNL     1      86.507 129.629 116.928  0.00  0.00    -0.064 C 
ATOM     27  C   UNL     1      85.060 129.881 117.436  0.00  0.00    +0.066 C 
ENDBRANCH  19  20
ENDBRANCH  18  19
ENDBRANCH  14  15
ENDBRANCH  12  13
TORSDOF 6
ENDMDL
MODEL 4
REMARK VINA RESULT:      -9.7     15.347     18.215
REMARK  Name = C:\Users\Docking\Desktop\test protocol\1iep_ligandH.pdb
REMARK  8 active torsions:
REMARK  status: ('A' for Active; 'I' for Inactive)
REMARK    1  A    between atoms: _5  and  _11
REMARK    2  A    between atoms: _19  and  _21
REMARK    3  A    between atoms: _22  and  _66
REMARK    4  A    between atoms: _27  and  _30
REMARK    5  A    between atoms: _32  and  _33
REMARK    6  A    between atoms: _38  and  _43
REMARK    7  A    between atoms: _43  and  _46
REMARK    8  A    between atoms: _53  and  _55
REMARK                            x       y       z     vdW  Elec       q    Type
REMARK                         _______ _______ _______ _____ _____    ______ ____
ROOT
ATOM     10  C   UNL     1      68.752 131.400 116.098  0.00  0.00    +0.038 A 
ATOM     11  C   UNL     1      68.242 130.103 115.835  0.00  0.00    +0.047 A 
ATOM     12  C   UNL     1      68.803 129.274 114.779  0.00  0.00    +0.035 A 
ATOM     32  C   UNL     1      69.883 129.797 114.011  0.00  0.00    +0.024 A 
ATOM     33  C   UNL     1      70.413 131.115 114.264  0.00  0.00    +0.007 A 
ATOM     34  C   UNL     1      69.863 131.937 115.303  0.00  0.00    -0.029 A 
ATOM     35  C   UNL     1      70.465 133.344 115.526  0.00  0.00    +0.045 C 
ENDROOT
BRANCH  10   9
ATOM      4  C   UNL     1      66.423 131.773 120.278  0.00  0.00    +0.077 A 
ATOM      5  C   UNL     1      66.320 130.349 120.416  0.00  0.00    +0.048 A 
ATOM      6  C   UNL     1      66.874 129.556 119.386  0.00  0.00    +0.116 A 
ATOM      7  N   UNL     1      67.482 130.154 118.303  0.00  0.00    -0.223 NA
ATOM      8  C   UNL     1      67.562 131.530 118.200  0.00  0.00    +0.220 A 
ATOM      9  N   UNL     1      68.176 132.152 117.124  0.00  0.00    -0.283 N 
ATOM     36  H   UNL     1      68.208 133.171 117.082  0.00  0.00    +0.155 HD
ATOM     37  N   UNL     1      67.040 132.310 119.170  0.00  0.00    -0.214 NA
BRANCH   4   3
ATOM      1  C   UNL     1      65.206 133.389 123.626  0.00  0.00    +0.020 A 
ATOM      2  C   UNL     1      65.725 132.414 122.695  0.00  0.00    +0.013 A 
ATOM      3  C   UNL     1      65.890 132.745 121.285  0.00  0.00    +0.019 A 
ATOM     38  C   UNL     1      65.518 134.082 120.847  0.00  0.00    +0.120 A 
ATOM     39  N   UNL     1      65.020 134.999 121.766  0.00  0.00    -0.263 NA
ATOM     40  C   UNL     1      64.855 134.692 123.125  0.00  0.00    +0.111 A 
ENDBRANCH   4   3
ENDBRANCH  10   9
BRANCH  12  13
ATOM     13  N   UNL     1      68.321 127.953 114.461  0.00  0.00    -0.281 N 
ATOM     14  C   UNL     1      67.646 127.543 113.323  0.00  0.00    +0.248 C 
ATOM     30  O   UNL     1      67.162 128.302 112.496  0.00  0.00    -0.270 OA
ATOM     31  H   UNL     1      68.501 127.231 115.160  0.00  0.00    +0.155 HD
BRANCH  14  15
ATOM     15  C   UNL     1      67.470 126.080 113.075  0.00  0.00    +0.037 A 
ATOM     16  C   UNL     1      68.171 125.405 111.980  0.00  0.00    +0.013 A 
ATOM     17  C   UNL     1      67.970 123.996 111.752  0.00  0.00    +0.005 A 
ATOM     18  C   UNL     1      67.063 123.252 112.624  0.00  0.00    -0.033 A 
ATOM     28  C   UNL     1      66.385 123.945 113.706  0.00  0.00    +0.005 A 
ATOM     29  C   UNL     1      66.578 125.326 113.931  0.00  0.00    +0.013 A 
BRANCH  18  19
ATOM     19  C   UNL     1      66.773 121.750 112.441  0.00  0.00    +0.119 C 
BRANCH  19  20
ATOM     20  N   UNL     1      65.428 121.373 111.913  0.00  0.00    -0.302 NA
ATOM     21  C   UNL     1      64.506 120.841 113.014  0.00  0.00    +0.066 C 
ATOM     22  C   UNL     1      63.096 120.473 112.447  0.00  0.00    -0.064 C 
ATOM     23  N   UNL     1      63.252 119.443 111.327  0.00  0.00    +0.379 N 
ATOM     24  C   UNL     1      61.925 119.052 110.832  0.00  0.00    -0.096 C 
ATOM     25  H   UNL     1      63.731 118.537 111.766  0.00  0.00    -0.082 HD
ATOM     26  C   UNL     1      64.169 119.964 110.229  0.00  0.00    -0.064 C 
ATOM     27  C   UNL     1      65.558 120.354 110.808  0.00  0.00    +0.066 C 
ENDBRANCH  19  20
ENDBRANCH  18  19
ENDBRANCH  14  15
ENDBRANCH  12  13
TORSDOF 6
ENDMDL
MODEL 5
REMARK VINA RESULT:      -9.6     16.668     20.084
REMARK  Name = C:\Users\Docking\Desktop\test protocol\1iep_ligandH.pdb
REMARK  8 active torsions:
REMARK  status: ('A' for Active; 'I' for Inactive)
REMARK    1  A    between atoms: _5  and  _11
REMARK    2  A    between atoms: _19  and  _21
REMARK    3  A    between atoms: _22  and  _66
REMARK    4  A    between atoms: _27  and  _30
REMARK    5  A    between atoms: _32  and  _33
REMARK    6  A    between atoms: _38  and  _43
REMARK    7  A    between atoms: _43  and  _46
REMARK    8  A    between atoms: _53  and  _55
REMARK                            x       y       z     vdW  Elec       q    Type
REMARK                         _______ _______ _______ _____ _____    ______ ____
ROOT
ATOM     10  C   UNL     1      67.333 123.527 112.551  0.00  0.00    +0.038 A 
ATOM     11  C   UNL     1      68.371 123.451 111.587  0.00  0.00    +0.047 A 
ATOM     12  C   UNL     1      68.355 122.439 110.542  0.00  0.00    +0.035 A 
ATOM     32  C   UNL     1      67.265 121.520 110.508  0.00  0.00    +0.024 A 
ATOM     33  C   UNL     1      66.203 121.582 111.480  0.00  0.00    +0.007 A 
ATOM     34  C   UNL     1      66.214 122.577 112.515  0.00  0.00    -0.029 A 
ATOM     35  C   UNL     1      65.052 122.593 113.535  0.00  0.00    +0.045 C 
ENDROOT
BRANCH  10   9
ATOM      4  C   UNL     1      67.579 128.123 113.912  0.00  0.00    +0.077 A 
ATOM      5  C   UNL     1      67.606 128.585 112.554  0.00  0.00    +0.048 A 
ATOM      6  C   UNL     1      67.562 127.607 111.535  0.00  0.00    +0.116 A 
ATOM      7  N   UNL     1      67.496 126.270 111.861  0.00  0.00    -0.223 NA
ATOM      8  C   UNL     1      67.473 125.858 113.181  0.00  0.00    +0.220 A 
ATOM      9  N   UNL     1      67.399 124.519 113.532  0.00  0.00    -0.283 N 
ATOM     36  H   UNL     1      67.392 124.255 114.517  0.00  0.00    +0.155 HD
ATOM     37  N   UNL     1      67.516 126.772 114.172  0.00  0.00    -0.214 NA
BRANCH   4   3
ATOM      1  C   UNL     1      67.413 129.494 117.572  0.00  0.00    +0.020 A 
ATOM      2  C   UNL     1      67.365 128.573 116.459  0.00  0.00    +0.013 A 
ATOM      3  C   UNL     1      67.616 129.034 115.100  0.00  0.00    +0.019 A 
ATOM     38  C   UNL     1      67.916 130.443 114.898  0.00  0.00    +0.120 A 
ATOM     39  N   UNL     1      67.954 131.307 115.988  0.00  0.00    -0.263 NA
ATOM     40  C   UNL     1      67.713 130.876 117.301  0.00  0.00    +0.111 A 
ENDBRANCH   4   3
ENDBRANCH  10   9
BRANCH  12  13
ATOM     13  N   UNL     1      69.384 122.308 109.541  0.00  0.00    -0.281 N 
ATOM     14  C   UNL     1      69.252 122.403 108.166  0.00  0.00    +0.248 C 
ATOM     30  O   UNL     1      68.183 122.404 107.573  0.00  0.00    -0.270 OA
ATOM     31  H   UNL     1      70.325 122.123 109.889  0.00  0.00    +0.155 HD
BRANCH  14  15
ATOM     15  C   UNL     1      70.485 122.497 107.326  0.00  0.00    +0.037 A 
ATOM     16  C   UNL     1      70.477 122.095 105.917  0.00  0.00    +0.013 A 
ATOM     17  C   UNL     1      71.685 122.180 105.134  0.00  0.00    +0.005 A 
ATOM     18  C   UNL     1      72.910 122.671 105.760  0.00  0.00    -0.033 A 
ATOM     28  C   UNL     1      72.888 123.068 107.158  0.00  0.00    +0.005 A 
ATOM     29  C   UNL     1      71.707 122.985 107.928  0.00  0.00    +0.013 A 
BRANCH  18  19
ATOM     19  C   UNL     1      74.250 122.775 105.006  0.00  0.00    +0.119 C 
BRANCH  19  20
ATOM     20  N   UNL     1      75.390 123.420 105.724  0.00  0.00    -0.302 NA
ATOM     21  C   UNL     1      75.957 124.611 104.947  0.00  0.00    +0.066 C 
ATOM     22  C   UNL     1      77.134 125.288 105.723  0.00  0.00    -0.064 C 
ATOM     23  N   UNL     1      78.224 124.250 105.996  0.00  0.00    +0.379 N 
ATOM     24  C   UNL     1      79.358 124.897 106.674  0.00  0.00    -0.096 C 
ATOM     25  H   UNL     1      78.588 123.875 105.011  0.00  0.00    -0.082 HD
ATOM     26  C   UNL     1      77.668 123.061 106.766  0.00  0.00    -0.064 C 
ATOM     27  C   UNL     1      76.480 122.414 106.000  0.00  0.00    +0.066 C 
ENDBRANCH  19  20
ENDBRANCH  18  19
ENDBRANCH  14  15
ENDBRANCH  12  13
TORSDOF 6
ENDMDL
