MODEL 1
REMARK VINA RESULT:      -9.8      0.000      0.000
REMARK  Name = C:\Users\Docking\Desktop\test protocol\1iep_ligandH.pdb
REMARK  8 active torsions:
REMARK  status: ('A' for Active; 'I' for Inactive)
REMARK    1  A    between atoms: _5  and  _11
REMARK    2  A    between atoms: _19  and  _21
REMARK    3  A    between atoms: _22  and  _66
REMARK    4  A    between atoms: _27  and  _30
REMARK    5  A    between atoms: _32  and  _33
REMARK    6  A    between atoms: _38  and  _43
REMARK    7  A    between atoms: _43  and  _46
REMARK    8  A    between atoms: _53  and  _55
REMARK                            x       y       z     vdW  Elec       q    Type
REMARK                         _______ _______ _______ _____ _____    ______ ____
ROOT
ATOM     10  C   UNL     1      73.187 138.641 125.818  0.00  0.00    +0.038 A 
ATOM     11  C   UNL     1      72.221 138.006 124.996  0.00  0.00    +0.047 A 
ATOM     12  C   UNL     1      70.799 138.110 125.287  0.00  0.00    +0.035 A 
ATOM     32  C   UNL     1      70.396 138.872 126.423  0.00  0.00    +0.024 A 
ATOM     33  C   UNL     1      71.365 139.523 127.270  0.00  0.00    +0.007 A 
ATOM     34  C   UNL     1      72.768 139.421 126.989  0.00  0.00    -0.029 A 
ATOM     35  C   UNL     1      73.762 140.135 127.935  0.00  0.00    +0.045 C 
ENDROOT
BRANCH  10   9
ATOM      4  C   UNL     1      77.288 136.151 125.707  0.00  0.00    +0.077 A 
ATOM      5  C   UNL     1      76.696 135.031 126.379  0.00  0.00    +0.048 A 
ATOM      6  C   UNL     1      75.335 135.139 126.743  0.00  0.00    +0.116 A 
ATOM      7  N   UNL     1      74.629 136.285 126.451  0.00  0.00    -0.223 NA
ATOM      8  C   UNL     1      75.231 137.348 125.803  0.00  0.00    +0.220 A 
ATOM      9  N   UNL     1      74.538 138.508 125.492  0.00  0.00    -0.283 N 
ATOM     36  H   UNL     1      75.020 139.272 125.020  0.00  0.00    +0.155 HD
ATOM     37  N   UNL     1      76.530 137.270 125.446  0.00  0.00    -0.214 NA
BRANCH   4   3
ATOM      1  C   UNL     1      80.494 136.273 123.469  0.00  0.00    +0.020 A 
ATOM      2  C   UNL     1      79.101 136.239 123.851  0.00  0.00    +0.013 A 
ATOM      3  C   UNL     1      78.716 136.188 125.256  0.00  0.00    +0.019 A 
ATOM     38  C   UNL     1      79.772 136.173 126.256  0.00  0.00    +0.120 A 
ATOM     39  N   UNL     1      81.105 136.205 125.858  0.00  0.00    -0.263 NA
ATOM     40  C   UNL     1      81.488 136.253 124.510  0.00  0.00    +0.111 A 
ENDBRANCH   4   3
ENDBRANCH  10   9
BRANCH  12  13
ATOM     13  N   UNL     1      69.773 137.481 124.493  0.00  0.00    -0.281 N 
ATOM     14  C   UNL     1      68.990 138.054 123.505  0.00  0.00    +0.248 C 
ATOM     30  O   UNL     1      68.905 139.256 123.300  0.00  0.00    -0.270 OA
ATOM     31  H   UNL     1      69.604 136.493 124.683  0.00  0.00    +0.155 HD
BRANCH  14  15
ATOM     15  C   UNL     1      68.171 137.165 122.626  0.00  0.00    +0.037 A 
ATOM     16  C   UNL     1      66.891 137.613 122.073  0.00  0.00    +0.013 A 
ATOM     17  C   UNL     1      66.113 136.729 121.242  0.00  0.00    +0.005 A 
ATOM     18  C   UNL     1      66.615 135.386 120.958  0.00  0.00    -0.033 A 
ATOM     28  C   UNL     1      67.891 134.970 121.515  0.00  0.00    +0.005 A 
ATOM     29  C   UNL     1      68.656 135.833 122.331  0.00  0.00    +0.013 A 
BRANCH  18  19
ATOM     19  C   UNL     1      65.842 134.369 120.098  0.00  0.00    +0.119 C 
BRANCH  19  20
ATOM     20  N   UNL     1      65.842 132.947 120.556  0.00  0.00    -0.302 NA
ATOM     21  C   UNL     1      65.459 131.981 119.431  0.00  0.00    +0.066 C 
ATOM     22  C   UNL     1      65.486 130.497 119.921  0.00  0.00    -0.064 C 
ATOM     23  N   UNL     1      64.543 130.340 121.115  0.00  0.00    +0.379 N 
ATOM     24  C   UNL     1      64.522 128.933 121.542  0.00  0.00    -0.096 C 
ATOM     25  H   UNL     1      63.516 130.604 120.771  0.00  0.00    -0.082 HD
ATOM     26  C   UNL     1      64.915 131.299 122.237  0.00  0.00    -0.064 C 
ATOM     27  C   UNL     1      64.913 132.768 121.732  0.00  0.00    +0.066 C 
ENDBRANCH  19  20
ENDBRANCH  18  19
ENDBRANCH  14  15
ENDBRANCH  12  13
TORSDOF 6
ENDMDL
MODEL 2
REMARK VINA RESULT:      -9.8      6.252     13.405
REMARK  Name = C:\Users\Docking\Desktop\test protocol\1iep_ligandH.pdb
REMARK  8 active torsions:
REMARK  status: ('A' for Active; 'I' for Inactive)
REMARK    1  A    between atoms: _5  and  _11
REMARK    2  A    between atoms: _19  and  _21
REMARK    3  A    between atoms: _22  and  _66
REMARK    4  A    between atoms: _27  and  _30
REMARK    5  A    between atoms: _32  and  _33
REMARK    6  A    between atoms: _38  and  _43
REMARK    7  A    between atoms: _43  and  _46
REMARK    8  A    between atoms: _53  and  _55
REMARK                            x       y       z     vdW  Elec       q    Type
REMARK                         _______ _______ _______ _____ _____    ______ ____
ROOT
ATOM     10  C   UNL     1      79.196 137.289 125.081  0.00  0.00    +0.038 A 
ATOM     11  C   UNL     1      79.442 136.438 123.973  0.00  0.00    +0.047 A 
ATOM     12  C   UNL     1      80.754 135.851 123.753  0.00  0.00    +0.035 A 
ATOM     32  C   UNL     1      81.793 136.149 124.682  0.00  0.00    +0.024 A 
ATOM     33  C   UNL     1      81.560 137.013 125.813  0.00  0.00    +0.007 A 
ATOM     34  C   UNL     1      80.269 137.598 126.034  0.00  0.00    -0.029 A 
ATOM     35  C   UNL     1      80.078 138.522 127.259  0.00  0.00    +0.045 C 
ENDROOT
BRANCH  10   9
ATOM      4  C   UNL     1      74.579 136.919 126.341  0.00  0.00    +0.077 A 
ATOM      5  C   UNL     1      74.721 135.531 126.676  0.00  0.00    +0.048 A 
ATOM      6  C   UNL     1      75.997 134.949 126.504  0.00  0.00    +0.116 A 
ATOM      7  N   UNL     1      77.045 135.707 126.030  0.00  0.00    -0.223 NA
ATOM      8  C   UNL     1      76.874 137.042 125.714  0.00  0.00    +0.220 A 
ATOM      9  N   UNL     1      77.917 137.826 125.244  0.00  0.00    -0.283 N 
ATOM     36  H   UNL     1      77.748 138.805 125.015  0.00  0.00    +0.155 HD
ATOM     37  N   UNL     1      75.665 137.621 125.869  0.00  0.00    -0.214 NA
BRANCH   4   3
ATOM      1  C   UNL     1      71.109 138.547 125.561  0.00  0.00    +0.020 A 
ATOM      2  C   UNL     1      72.335 137.804 125.382  0.00  0.00    +0.013 A 
ATOM      3  C   UNL     1      73.295 137.677 126.472  0.00  0.00    +0.019 A 
ATOM     38  C   UNL     1      72.981 138.318 127.740  0.00  0.00    +0.120 A 
ATOM     39  N   UNL     1      71.793 139.028 127.882  0.00  0.00    -0.263 NA
ATOM     40  C   UNL     1      70.863 139.159 126.840  0.00  0.00    +0.111 A 
ENDBRANCH   4   3
ENDBRANCH  10   9
BRANCH  12  13
ATOM     13  N   UNL     1      81.065 134.986 122.642  0.00  0.00    -0.281 N 
ATOM     14  C   UNL     1      82.202 134.993 121.849  0.00  0.00    +0.248 C 
ATOM     30  O   UNL     1      83.033 135.888 121.841  0.00  0.00    -0.270 OA
ATOM     31  H   UNL     1      80.363 134.283 122.412  0.00  0.00    +0.155 HD
BRANCH  14  15
ATOM     15  C   UNL     1      82.442 133.846 120.921  0.00  0.00    +0.037 A 
ATOM     16  C   UNL     1      83.525 132.889 121.161  0.00  0.00    +0.013 A 
ATOM     17  C   UNL     1      83.745 131.801 120.240  0.00  0.00    +0.005 A 
ATOM     18  C   UNL     1      82.879 131.665 119.072  0.00  0.00    -0.033 A 
ATOM     28  C   UNL     1      81.809 132.626 118.862  0.00  0.00    +0.005 A 
ATOM     29  C   UNL     1      81.590 133.694 119.761  0.00  0.00    +0.013 A 
BRANCH  18  19
ATOM     19  C   UNL     1      83.055 130.548 118.026  0.00  0.00    +0.119 C 
BRANCH  19  20
ATOM     20  N   UNL     1      84.448 130.226 117.598  0.00  0.00    -0.302 NA
ATOM     21  C   UNL     1      85.119 131.406 116.890  0.00  0.00    +0.066 C 
ATOM     22  C   UNL     1      86.584 131.059 116.468  0.00  0.00    -0.064 C 
ATOM     23  N   UNL     1      86.574 129.822 115.568  0.00  0.00    +0.379 N 
ATOM     24  C   UNL     1      87.944 129.527 115.123  0.00  0.00    -0.096 C 
ATOM     25  H   UNL     1      85.969 130.067 114.664  0.00  0.00    -0.082 HD
ATOM     26  C   UNL     1      85.906 128.644 116.264  0.00  0.00    -0.064 C 
ATOM     27  C   UNL     1      84.461 129.010 116.704  0.00  0.00    +0.066 C 
ENDBRANCH  19  20
ENDBRANCH  18  19
ENDBRANCH  14  15
ENDBRANCH  12  13
TORSDOF 6
ENDMDL
MODEL 3
REMARK VINA RESULT:      -9.7      9.997     15.314
REMARK  Name = C:\Users\Docking\Desktop\test protocol\1iep_ligandH.pdb
REMARK  8 active torsions:
REMARK  status: ('A' for Active; 'I' for Inactive)
REMARK    1  A    between atoms: _5  and  _11
REMARK    2  A    between atoms: _19  and  _21
REMARK    3  A    between atoms: _22  and  _66
REMARK    4  A    between atoms: _27  and  _30
REMARK    5  A    between atoms: _32  and  _33
REMARK    6  A    between atoms: _38  and  _43
REMARK    7  A    between atoms: _43  and  _46
REMARK    8  A    between atoms: _53  and  _55
REMARK                            x       y       z     vdW  Elec       q    Type
REMARK                         _______ _______ _______ _____ _____    ______ ____
ROOT
ATOM     10  C   UNL     1      68.297 130.601 114.919  0.00  0.00    +0.038 A 
ATOM     11  C   UNL     1      67.939 129.258 114.638  0.00  0.00    +0.047 A 
ATOM     12  C   UNL     1      68.493 128.556 113.490  0.00  0.00    +0.035 A 
ATOM     32  C   UNL     1      69.412 129.252 112.652  0.00  0.00    +0.024 A 
ATOM     33  C   UNL     1      69.786 130.618 112.922  0.00  0.00    +0.007 A 
ATOM     34  C   UNL     1      69.240 131.316 114.051  0.00  0.00    -0.029 A 
ATOM     35  C   UNL     1      69.672 132.782 114.289  0.00  0.00    +0.045 C 
ENDROOT
BRANCH  10   9
ATOM      4  C   UNL     1      66.275 130.478 119.270  0.00  0.00    +0.077 A 
ATOM      5  C   UNL     1      66.318 129.045 119.314  0.00  0.00    +0.048 A 
ATOM      6  C   UNL     1      66.862 128.377 118.194  0.00  0.00    +0.116 A 
ATOM      7  N   UNL     1      67.325 129.099 117.116  0.00  0.00    -0.223 NA
ATOM      8  C   UNL     1      67.267 130.481 117.104  0.00  0.00    +0.220 A 
ATOM      9  N   UNL     1      67.734 131.227 116.034  0.00  0.00    -0.283 N 
ATOM     36  H   UNL     1      67.667 132.244 116.060  0.00  0.00    +0.155 HD
ATOM     37  N   UNL     1      66.751 131.142 118.161  0.00  0.00    -0.214 NA
BRANCH   4   3
ATOM      1  C   UNL     1      65.197 131.762 122.804  0.00  0.00    +0.020 A 
ATOM      2  C   UNL     1      65.733 130.904 121.773  0.00  0.00    +0.013 A 
ATOM      3  C   UNL     1      65.732 131.327 120.378  0.00  0.00    +0.019 A 
ATOM     38  C   UNL     1      65.178 132.634 120.058  0.00  0.00    +0.120 A 
ATOM     39  N   UNL     1      64.668 133.438 121.073  0.00  0.00    -0.263 NA
ATOM     40  C   UNL     1      64.662 133.041 122.418  0.00  0.00    +0.111 A 
ENDBRANCH   4   3
ENDBRANCH  10   9
BRANCH  12  13
ATOM     13  N   UNL     1      68.161 127.195 113.150  0.00  0.00    -0.281 N 
ATOM     14  C   UNL     1      67.559 126.239 113.952  0.00  0.00    +0.248 C 
ATOM     30  O   UNL     1      67.407 126.347 115.160  0.00  0.00    -0.270 OA
ATOM     31  H   UNL     1      68.399 126.900 112.203  0.00  0.00    +0.155 HD
BRANCH  14  15
ATOM     15  C   UNL     1      67.066 124.976 113.324  0.00  0.00    +0.037 A 
ATOM     16  C   UNL     1      65.976 124.203 113.925  0.00  0.00    +0.013 A 
ATOM     17  C   UNL     1      65.532 122.979 113.307  0.00  0.00    +0.005 A 
ATOM     18  C   UNL     1      66.178 122.520 112.080  0.00  0.00    -0.033 A 
ATOM     28  C   UNL     1      67.254 123.308 111.503  0.00  0.00    +0.005 A 
ATOM     29  C   UNL     1      67.693 124.508 112.106  0.00  0.00    +0.013 A 
BRANCH  18  19
ATOM     19  C   UNL     1      65.784 121.214 111.365  0.00  0.00    +0.119 C 
BRANCH  19  20
ATOM     20  N   UNL     1      64.352 120.795 111.446  0.00  0.00    -0.302 NA
ATOM     21  C   UNL     1      64.197 119.392 112.039  0.00  0.00    +0.066 C 
ATOM     22  C   UNL     1      62.692 118.979 112.137  0.00  0.00    -0.064 C 
ATOM     23  N   UNL     1      62.053 119.055 110.750  0.00  0.00    +0.379 N 
ATOM     24  C   UNL     1      60.654 118.612 110.829  0.00  0.00    -0.096 C 
ATOM     25  H   UNL     1      62.597 118.342 110.088  0.00  0.00    -0.082 HD
ATOM     26  C   UNL     1      62.206 120.447 110.152  0.00  0.00    -0.064 C 
ATOM     27  C   UNL     1      63.703 120.859 110.086  0.00  0.00    +0.066 C 
ENDBRANCH  19  20
ENDBRANCH  18  19
ENDBRANCH  14  15
ENDBRANCH  12  13
TORSDOF 6
ENDMDL
MODEL 4
REMARK VINA RESULT:      -9.7      5.462     13.091
REMARK  Name = C:\Users\Docking\Desktop\test protocol\1iep_ligandH.pdb
REMARK  8 active torsions:
REMARK  status: ('A' for Active; 'I' for Inactive)
REMARK    1  A    between atoms: _5  and  _11
REMARK    2  A    between atoms: _19  and  _21
REMARK    3  A    between atoms: _22  and  _66
REMARK    4  A    between atoms: _27  and  _30
REMARK    5  A    between atoms: _32  and  _33
REMARK    6  A    between atoms: _38  and  _43
REMARK    7  A    between atoms: _43  and  _46
REMARK    8  A    between atoms: _53  and  _55
REMARK                            x       y       z     vdW  Elec       q    Type
REMARK                         _______ _______ _______ _____ _____    ______ ____
ROOT
ATOM     10  C   UNL     1      78.160 137.198 124.961  0.00  0.00    +0.038 A 
ATOM     11  C   UNL     1      78.912 136.564 123.939  0.00  0.00    +0.047 A 
ATOM     12  C   UNL     1      80.292 136.161 124.160  0.00  0.00    +0.035 A 
ATOM     32  C   UNL     1      80.875 136.417 125.435  0.00  0.00    +0.024 A 
ATOM     33  C   UNL     1      80.126 137.062 126.485  0.00  0.00    +0.007 A 
ATOM     34  C   UNL     1      78.765 137.464 126.272  0.00  0.00    -0.029 A 
ATOM     35  C   UNL     1      78.012 138.157 127.431  0.00  0.00    +0.045 C 
ENDROOT
BRANCH  10   9
ATOM      4  C   UNL     1      73.449 136.283 124.881  0.00  0.00    +0.077 A 
ATOM      5  C   UNL     1      73.639 134.954 125.387  0.00  0.00    +0.048 A 
ATOM      6  C   UNL     1      74.965 134.542 125.649  0.00  0.00    +0.116 A 
ATOM      7  N   UNL     1      76.016 135.404 125.418  0.00  0.00    -0.223 NA
ATOM      8  C   UNL     1      75.798 136.678 124.927  0.00  0.00    +0.220 A 
ATOM      9  N   UNL     1      76.839 137.564 124.695  0.00  0.00    -0.283 N 
ATOM     36  H   UNL     1      76.638 138.493 124.325  0.00  0.00    +0.155 HD
ATOM     37  N   UNL     1      74.541 137.095 124.668  0.00  0.00    -0.214 NA
BRANCH   4   3
ATOM      1  C   UNL     1      69.687 136.660 123.881  0.00  0.00    +0.020 A 
ATOM      2  C   UNL     1      70.961 136.049 124.182  0.00  0.00    +0.013 A 
ATOM      3  C   UNL     1      72.108 136.865 124.559  0.00  0.00    +0.019 A 
ATOM     38  C   UNL     1      71.931 138.307 124.623  0.00  0.00    +0.120 A 
ATOM     39  N   UNL     1      70.693 138.868 124.327  0.00  0.00    -0.263 NA
ATOM     40  C   UNL     1      69.582 138.094 123.961  0.00  0.00    +0.111 A 
ENDBRANCH   4   3
ENDBRANCH  10   9
BRANCH  12  13
ATOM     13  N   UNL     1      81.107 135.521 123.158  0.00  0.00    -0.281 N 
ATOM     14  C   UNL     1      82.064 136.100 122.341  0.00  0.00    +0.248 C 
ATOM     30  O   UNL     1      82.215 137.304 122.199  0.00  0.00    -0.270 OA
ATOM     31  H   UNL     1      80.960 134.519 123.035  0.00  0.00    +0.155 HD
BRANCH  14  15
ATOM     15  C   UNL     1      82.977 135.213 121.557  0.00  0.00    +0.037 A 
ATOM     16  C   UNL     1      82.807 133.758 121.557  0.00  0.00    +0.013 A 
ATOM     17  C   UNL     1      83.712 132.924 120.806  0.00  0.00    +0.005 A 
ATOM     18  C   UNL     1      84.794 133.545 120.046  0.00  0.00    -0.033 A 
ATOM     28  C   UNL     1      84.936 134.992 120.059  0.00  0.00    +0.005 A 
ATOM     29  C   UNL     1      84.052 135.812 120.795  0.00  0.00    +0.013 A 
BRANCH  18  19
ATOM     19  C   UNL     1      85.819 132.732 119.233  0.00  0.00    +0.119 C 
BRANCH  19  20
ATOM     20  N   UNL     1      85.399 132.261 117.879  0.00  0.00    -0.302 NA
ATOM     21  C   UNL     1      84.687 133.360 117.084  0.00  0.00    +0.066 C 
ATOM     22  C   UNL     1      84.275 132.857 115.662  0.00  0.00    -0.064 C 
ATOM     23  N   UNL     1      83.382 131.623 115.800  0.00  0.00    +0.379 N 
ATOM     24  C   UNL     1      82.945 131.182 114.467  0.00  0.00    -0.096 C 
ATOM     25  H   UNL     1      82.473 131.926 116.371  0.00  0.00    -0.082 HD
ATOM     26  C   UNL     1      84.081 130.527 116.591  0.00  0.00    -0.064 C 
ATOM     27  C   UNL     1      84.512 131.046 117.991  0.00  0.00    +0.066 C 
ENDBRANCH  19  20
ENDBRANCH  18  19
ENDBRANCH  14  15
ENDBRANCH  12  13
TORSDOF 6
ENDMDL
MODEL 5
REMARK VINA RESULT:      -9.7      7.834     15.678
REMARK  Name = C:\Users\Docking\Desktop\test protocol\1iep_ligandH.pdb
REMARK  8 active torsions:
REMARK  status: ('A' for Active; 'I' for Inactive)
REMARK    1  A    between atoms: _5  and  _11
REMARK    2  A    between atoms: _19  and  _21
REMARK    3  A    between atoms: _22  and  _66
REMARK    4  A    between atoms: _27  and  _30
REMARK    5  A    between atoms: _32  and  _33
REMARK    6  A    between atoms: _38  and  _43
REMARK    7  A    between atoms: _43  and  _46
REMARK    8  A    between atoms: _53  and  _55
REMARK                            x       y       z     vdW  Elec       q    Type
REMARK                         _______ _______ _______ _____ _____    ______ ____
ROOT
ATOM     10  C   UNL     1      68.179 127.925 113.344  0.00  0.00    +0.038 A 
ATOM     11  C   UNL     1      67.438 128.401 114.456  0.00  0.00    +0.047 A 
ATOM     12  C   UNL     1      67.907 129.528 115.247  0.00  0.00    +0.035 A 
ATOM     32  C   UNL     1      69.135 130.149 114.875  0.00  0.00    +0.024 A 
ATOM     33  C   UNL     1      69.902 129.678 113.749  0.00  0.00    +0.007 A 
ATOM     34  C   UNL     1      69.445 128.565 112.966  0.00  0.00    -0.029 A 
ATOM     35  C   UNL     1      70.311 128.099 111.773  0.00  0.00    +0.045 C 
ENDROOT
BRANCH  10   9
ATOM      4  C   UNL     1      66.574 123.412 113.050  0.00  0.00    +0.077 A 
ATOM      5  C   UNL     1      66.768 123.188 114.454  0.00  0.00    +0.048 A 
ATOM      6  C   UNL     1      67.290 124.258 115.215  0.00  0.00    +0.116 A 
ATOM      7  N   UNL     1      67.591 125.458 114.607  0.00  0.00    -0.223 NA
ATOM      8  C   UNL     1      67.393 125.639 113.250  0.00  0.00    +0.220 A 
ATOM      9  N   UNL     1      67.681 126.840 112.620  0.00  0.00    -0.283 N 
ATOM     36  H   UNL     1      67.528 126.931 111.616  0.00  0.00    +0.155 HD
ATOM     37  N   UNL     1      66.897 124.633 112.501  0.00  0.00    -0.214 NA
BRANCH   4   3
ATOM      1  C   UNL     1      64.124 121.140 111.015  0.00  0.00    +0.020 A 
ATOM      2  C   UNL     1      64.599 122.150 111.933  0.00  0.00    +0.013 A 
ATOM      3  C   UNL     1      66.027 122.379 112.114  0.00  0.00    +0.019 A 
ATOM     38  C   UNL     1      66.955 121.564 111.344  0.00  0.00    +0.120 A 
ATOM     39  N   UNL     1      66.468 120.598 110.469  0.00  0.00    -0.263 NA
ATOM     40  C   UNL     1      65.096 120.367 110.288  0.00  0.00    +0.111 A 
ENDBRANCH   4   3
ENDBRANCH  10   9
BRANCH  12  13
ATOM     13  N   UNL     1      67.201 130.049 116.391  0.00  0.00    -0.281 N 
ATOM     14  C   UNL     1      66.949 129.416 117.597  0.00  0.00    +0.248 C 
ATOM     30  O   UNL     1      67.109 128.221 117.797  0.00  0.00    -0.270 OA
ATOM     31  H   UNL     1      66.844 131.000 116.301  0.00  0.00    +0.155 HD
BRANCH  14  15
ATOM     15  C   UNL     1      66.432 130.225 118.743  0.00  0.00    +0.037 A 
ATOM     16  C   UNL     1      65.855 131.555 118.534  0.00  0.00    +0.013 A 
ATOM     17  C   UNL     1      65.378 132.321 119.659  0.00  0.00    +0.005 A 
ATOM     18  C   UNL     1      65.477 131.757 121.003  0.00  0.00    -0.033 A 
ATOM     28  C   UNL     1      66.049 130.433 121.180  0.00  0.00    +0.005 A 
ATOM     29  C   UNL     1      66.518 129.680 120.081  0.00  0.00    +0.013 A 
BRANCH  18  19
ATOM     19  C   UNL     1      65.013 132.512 122.263  0.00  0.00    +0.119 C 
BRANCH  19  20
ATOM     20  N   UNL     1      65.445 133.935 122.405  0.00  0.00    -0.302 NA
ATOM     21  C   UNL     1      64.780 134.844 121.368  0.00  0.00    +0.066 C 
ATOM     22  C   UNL     1      65.226 136.332 121.545  0.00  0.00    -0.064 C 
ATOM     23  N   UNL     1      66.750 136.420 121.445  0.00  0.00    +0.379 N 
ATOM     24  C   UNL     1      67.168 137.825 121.554  0.00  0.00    -0.096 C 
ATOM     25  H   UNL     1      67.043 136.057 120.433  0.00  0.00    -0.082 HD
ATOM     26  C   UNL     1      67.419 135.517 122.471  0.00  0.00    -0.064 C 
ATOM     27  C   UNL     1      66.947 134.046 122.305  0.00  0.00    +0.066 C 
ENDBRANCH  19  20
ENDBRANCH  18  19
ENDBRANCH  14  15
ENDBRANCH  12  13
TORSDOF 6
ENDMDL
