MODEL 1
REMARK VINA RESULT:      -9.8      0.000      0.000
REMARK  Name = C:\Users\Docking\Desktop\test protocol\1iep_ligandH.pdb
REMARK  8 active torsions:
REMARK  status: ('A' for Active; 'I' for Inactive)
REMARK    1  A    between atoms: _5  and  _11
REMARK    2  A    between atoms: _19  and  _21
REMARK    3  A    between atoms: _22  and  _66
REMARK    4  A    between atoms: _27  and  _30
REMARK    5  A    between atoms: _32  and  _33
REMARK    6  A    between atoms: _38  and  _43
REMARK    7  A    between atoms: _43  and  _46
REMARK    8  A    between atoms: _53  and  _55
REMARK                            x       y       z     vdW  Elec       q    Type
REMARK                         _______ _______ _______ _____ _____    ______ ____
ROOT
ATOM     10  C   UNL     1       6.409 -39.091  20.655  0.00  0.00    +0.038 A 
ATOM     11  C   UNL     1       6.615 -40.404  20.160  0.00  0.00    +0.047 A 
ATOM     12  C   UNL     1       7.942 -40.868  19.787  0.00  0.00    +0.035 A 
ATOM     32  C   UNL     1       9.038 -39.969  19.934  0.00  0.00    +0.024 A 
ATOM     33  C   UNL     1       8.847 -38.630  20.435  0.00  0.00    +0.007 A 
ATOM     34  C   UNL     1       7.540 -38.166  20.802  0.00  0.00    -0.029 A 
ATOM     35  C   UNL     1       7.393 -36.719  21.327  0.00  0.00    +0.045 C 
ENDROOT
BRANCH  10   9
ATOM      4  C   UNL     1       1.944 -37.759  19.502  0.00  0.00    +0.077 A 
ATOM      5  C   UNL     1       2.224 -37.826  18.096  0.00  0.00    +0.048 A 
ATOM      6  C   UNL     1       3.531 -38.200  17.712  0.00  0.00    +0.116 A 
ATOM      7  N   UNL     1       4.480 -38.484  18.671  0.00  0.00    -0.223 NA
ATOM      8  C   UNL     1       4.177 -38.408  20.018  0.00  0.00    +0.220 A 
ATOM      9  N   UNL     1       5.114 -38.698  20.999  0.00  0.00    -0.283 N 
ATOM     36  H   UNL     1       4.853 -38.623  21.982  0.00  0.00    +0.155 HD
ATOM     37  N   UNL     1       2.937 -38.052  20.410  0.00  0.00    -0.214 NA
BRANCH   4   3
ATOM      1  C   UNL     1      -1.794 -36.655  19.824  0.00  0.00    +0.020 A 
ATOM      2  C   UNL     1      -0.526 -37.011  19.230  0.00  0.00    +0.013 A 
ATOM      3  C   UNL     1       0.610 -37.381  20.065  0.00  0.00    +0.019 A 
ATOM     38  C   UNL     1       0.427 -37.383  21.509  0.00  0.00    +0.120 A 
ATOM     39  N   UNL     1      -0.805 -37.035  22.053  0.00  0.00    -0.263 NA
ATOM     40  C   UNL     1      -1.905 -36.675  21.259  0.00  0.00    +0.111 A 
ENDBRANCH   4   3
ENDBRANCH  10   9
BRANCH  12  13
ATOM     13  N   UNL     1       8.210 -42.187  19.271  0.00  0.00    -0.281 N 
ATOM     14  C   UNL     1       8.410 -42.561  17.952  0.00  0.00    +0.248 C 
ATOM     30  O   UNL     1       8.175 -41.848  16.988  0.00  0.00    -0.270 OA
ATOM     31  H   UNL     1       8.259 -42.936  19.962  0.00  0.00    +0.155 HD
BRANCH  14  15
ATOM     15  C   UNL     1       8.933 -43.931  17.661  0.00  0.00    +0.037 A 
ATOM     16  C   UNL     1       8.370 -45.114  18.317  0.00  0.00    +0.013 A 
ATOM     17  C   UNL     1       8.904 -46.422  18.031  0.00  0.00    +0.005 A 
ATOM     18  C   UNL     1      10.008 -46.554  17.083  0.00  0.00    -0.033 A 
ATOM     28  C   UNL     1      10.544 -45.364  16.444  0.00  0.00    +0.005 A 
ATOM     29  C   UNL     1      10.024 -44.080  16.722  0.00  0.00    +0.013 A 
BRANCH  18  19
ATOM     19  C   UNL     1      10.654 -47.908  16.735  0.00  0.00    +0.119 C 
BRANCH  19  20
ATOM     20  N   UNL     1      11.507 -48.548  17.780  0.00  0.00    -0.302 NA
ATOM     21  C   UNL     1      12.477 -47.551  18.420  0.00  0.00    +0.066 C 
ATOM     22  C   UNL     1      13.346 -48.232  19.527  0.00  0.00    -0.064 C 
ATOM     23  N   UNL     1      14.105 -49.413  18.920  0.00  0.00    +0.379 N 
ATOM     24  C   UNL     1      14.967 -50.020  19.945  0.00  0.00    -0.096 C 
ATOM     25  H   UNL     1      14.765 -49.014  18.116  0.00  0.00    -0.082 HD
ATOM     26  C   UNL     1      13.148 -50.408  18.280  0.00  0.00    -0.064 C 
ATOM     27  C   UNL     1      12.269 -49.715  17.202  0.00  0.00    +0.066 C 
ENDBRANCH  19  20
ENDBRANCH  18  19
ENDBRANCH  14  15
ENDBRANCH  12  13
TORSDOF 6
ENDMDL
MODEL 2
REMARK VINA RESULT:      -9.4      1.714      2.766
REMARK  Name = C:\Users\Docking\Desktop\test protocol\1iep_ligandH.pdb
REMARK  8 active torsions:
REMARK  status: ('A' for Active; 'I' for Inactive)
REMARK    1  A    between atoms: _5  and  _11
REMARK    2  A    between atoms: _19  and  _21
REMARK    3  A    between atoms: _22  and  _66
REMARK    4  A    between atoms: _27  and  _30
REMARK    5  A    between atoms: _32  and  _33
REMARK    6  A    between atoms: _38  and  _43
REMARK    7  A    between atoms: _43  and  _46
REMARK    8  A    between atoms: _53  and  _55
REMARK                            x       y       z     vdW  Elec       q    Type
REMARK                         _______ _______ _______ _____ _____    ______ ____
ROOT
ATOM     10  C   UNL     1       6.392 -38.827  20.234  0.00  0.00    +0.038 A 
ATOM     11  C   UNL     1       6.661 -40.155  19.814  0.00  0.00    +0.047 A 
ATOM     12  C   UNL     1       7.969 -40.758  20.017  0.00  0.00    +0.035 A 
ATOM     32  C   UNL     1       8.980 -39.980  20.652  0.00  0.00    +0.024 A 
ATOM     33  C   UNL     1       8.725 -38.629  21.084  0.00  0.00    +0.007 A 
ATOM     34  C   UNL     1       7.438 -38.028  20.885  0.00  0.00    -0.029 A 
ATOM     35  C   UNL     1       7.222 -36.573  21.362  0.00  0.00    +0.045 C 
ENDROOT
BRANCH  10   9
ATOM      4  C   UNL     1       1.688 -38.600  21.156  0.00  0.00    +0.077 A 
ATOM      5  C   UNL     1       1.770 -39.642  22.138  0.00  0.00    +0.048 A 
ATOM      6  C   UNL     1       3.040 -40.215  22.371  0.00  0.00    +0.116 A 
ATOM      7  N   UNL     1       4.139 -39.771  21.669  0.00  0.00    -0.223 NA
ATOM      8  C   UNL     1       4.025 -38.765  20.727  0.00  0.00    +0.220 A 
ATOM      9  N   UNL     1       5.119 -38.298  20.015  0.00  0.00    -0.283 N 
ATOM     36  H   UNL     1       4.992 -37.559  19.323  0.00  0.00    +0.155 HD
ATOM     37  N   UNL     1       2.823 -38.202  20.485  0.00  0.00    -0.214 NA
BRANCH   4   3
ATOM      1  C   UNL     1      -1.603 -36.496  21.378  0.00  0.00    +0.020 A 
ATOM      2  C   UNL     1      -0.383 -37.161  21.774  0.00  0.00    +0.013 A 
ATOM      3  C   UNL     1       0.416 -37.893  20.800  0.00  0.00    +0.019 A 
ATOM     38  C   UNL     1      -0.050 -37.932  19.422  0.00  0.00    +0.120 A 
ATOM     39  N   UNL     1      -1.229 -37.283  19.070  0.00  0.00    -0.263 NA
ATOM     40  C   UNL     1      -2.007 -36.577  20.000  0.00  0.00    +0.111 A 
ENDBRANCH   4   3
ENDBRANCH  10   9
BRANCH  12  13
ATOM     13  N   UNL     1       8.302 -42.099  19.604  0.00  0.00    -0.281 N 
ATOM     14  C   UNL     1       8.522 -42.565  18.318  0.00  0.00    +0.248 C 
ATOM     30  O   UNL     1       8.253 -41.941  17.302  0.00  0.00    -0.270 OA
ATOM     31  H   UNL     1       8.387 -42.788  20.351  0.00  0.00    +0.155 HD
BRANCH  14  15
ATOM     15  C   UNL     1       9.111 -43.926  18.134  0.00  0.00    +0.037 A 
ATOM     16  C   UNL     1      10.560 -44.120  18.035  0.00  0.00    +0.013 A 
ATOM     17  C   UNL     1      11.101 -45.442  17.840  0.00  0.00    +0.005 A 
ATOM     18  C   UNL     1      10.191 -46.581  17.745  0.00  0.00    -0.033 A 
ATOM     28  C   UNL     1       8.759 -46.361  17.853  0.00  0.00    +0.005 A 
ATOM     29  C   UNL     1       8.225 -45.067  18.042  0.00  0.00    +0.013 A 
BRANCH  18  19
ATOM     19  C   UNL     1      10.680 -48.024  17.517  0.00  0.00    +0.119 C 
BRANCH  19  20
ATOM     20  N   UNL     1      11.341 -48.323  16.212  0.00  0.00    -0.302 NA
ATOM     21  C   UNL     1      10.381 -48.160  15.030  0.00  0.00    +0.066 C 
ATOM     22  C   UNL     1      11.095 -48.456  13.671  0.00  0.00    -0.064 C 
ATOM     23  N   UNL     1      11.680 -49.869  13.702  0.00  0.00    +0.379 N 
ATOM     24  C   UNL     1      12.302 -50.171  12.405  0.00  0.00    -0.096 C 
ATOM     25  H   UNL     1      10.835 -50.581  13.847  0.00  0.00    -0.082 HD
ATOM     26  C   UNL     1      12.634 -50.040  14.876  0.00  0.00    -0.064 C 
ATOM     27  C   UNL     1      11.922 -49.716  16.219  0.00  0.00    +0.066 C 
ENDBRANCH  19  20
ENDBRANCH  18  19
ENDBRANCH  14  15
ENDBRANCH  12  13
TORSDOF 6
ENDMDL
MODEL 3
REMARK VINA RESULT:      -7.8     35.258     40.946
REMARK  Name = C:\Users\Docking\Desktop\test protocol\1iep_ligandH.pdb
REMARK  8 active torsions:
REMARK  status: ('A' for Active; 'I' for Inactive)
REMARK    1  A    between atoms: _5  and  _11
REMARK    2  A    between atoms: _19  and  _21
REMARK    3  A    between atoms: _22  and  _66
REMARK    4  A    between atoms: _27  and  _30
REMARK    5  A    between atoms: _32  and  _33
REMARK    6  A    between atoms: _38  and  _43
REMARK    7  A    between atoms: _43  and  _46
REMARK    8  A    between atoms: _53  and  _55
REMARK                            x       y       z     vdW  Elec       q    Type
REMARK                         _______ _______ _______ _____ _____    ______ ____
ROOT
ATOM     10  C   UNL     1       7.308  -1.975  25.691  0.00  0.00    +0.038 A 
ATOM     11  C   UNL     1       7.691  -2.574  26.918  0.00  0.00    +0.047 A 
ATOM     12  C   UNL     1       8.338  -1.798  27.964  0.00  0.00    +0.035 A 
ATOM     32  C   UNL     1       8.578  -0.413  27.728  0.00  0.00    +0.024 A 
ATOM     33  C   UNL     1       8.197   0.212  26.486  0.00  0.00    +0.007 A 
ATOM     34  C   UNL     1       7.560  -0.549  25.449  0.00  0.00    -0.029 A 
ATOM     35  C   UNL     1       7.179   0.171  24.135  0.00  0.00    +0.045 C 
ENDROOT
BRANCH  10   9
ATOM      4  C   UNL     1       7.439  -5.278  22.211  0.00  0.00    +0.077 A 
ATOM      5  C   UNL     1       8.863  -5.418  22.316  0.00  0.00    +0.048 A 
ATOM      6  C   UNL     1       9.525  -4.617  23.273  0.00  0.00    +0.116 A 
ATOM      7  N   UNL     1       8.806  -3.744  24.061  0.00  0.00    -0.223 NA
ATOM      8  C   UNL     1       7.434  -3.633  23.933  0.00  0.00    +0.220 A 
ATOM      9  N   UNL     1       6.690  -2.767  24.721  0.00  0.00    -0.283 N 
ATOM     36  H   UNL     1       5.681  -2.709  24.590  0.00  0.00    +0.155 HD
ATOM     37  N   UNL     1       6.779  -4.386  23.026  0.00  0.00    -0.214 NA
BRANCH   4   3
ATOM      1  C   UNL     1       6.133  -8.082  19.816  0.00  0.00    +0.020 A 
ATOM      2  C   UNL     1       6.982  -7.370  20.742  0.00  0.00    +0.013 A 
ATOM      3  C   UNL     1       6.597  -6.059  21.249  0.00  0.00    +0.019 A 
ATOM     38  C   UNL     1       5.336  -5.492  20.796  0.00  0.00    +0.120 A 
ATOM     39  N   UNL     1       4.539  -6.200  19.902  0.00  0.00    -0.263 NA
ATOM     40  C   UNL     1       4.901  -7.461  19.406  0.00  0.00    +0.111 A 
ENDBRANCH   4   3
ENDBRANCH  10   9
BRANCH  12  13
ATOM     13  N   UNL     1       8.757  -2.353  29.228  0.00  0.00    -0.281 N 
ATOM     14  C   UNL     1      10.045  -2.460  29.727  0.00  0.00    +0.248 C 
ATOM     30  O   UNL     1      11.058  -2.286  29.066  0.00  0.00    -0.270 OA
ATOM     31  H   UNL     1       8.013  -2.712  29.827  0.00  0.00    +0.155 HD
BRANCH  14  15
ATOM     15  C   UNL     1      10.234  -2.826  31.163  0.00  0.00    +0.037 A 
ATOM     16  C   UNL     1      10.425  -1.799  32.190  0.00  0.00    +0.013 A 
ATOM     17  C   UNL     1      10.623  -2.181  33.566  0.00  0.00    +0.005 A 
ATOM     18  C   UNL     1      10.630  -3.597  33.923  0.00  0.00    -0.033 A 
ATOM     28  C   UNL     1      10.433  -4.595  32.884  0.00  0.00    +0.005 A 
ATOM     29  C   UNL     1      10.240  -4.225  31.535  0.00  0.00    +0.013 A 
BRANCH  18  19
ATOM     19  C   UNL     1      10.855  -4.096  35.363  0.00  0.00    +0.119 C 
BRANCH  19  20
ATOM     20  N   UNL     1      10.720  -3.095  36.462  0.00  0.00    -0.302 NA
ATOM     21  C   UNL     1      12.076  -2.712  37.061  0.00  0.00    +0.066 C 
ATOM     22  C   UNL     1      11.918  -1.647  38.194  0.00  0.00    -0.064 C 
ATOM     23  N   UNL     1      10.983  -2.193  39.276  0.00  0.00    +0.379 N 
ATOM     24  C   UNL     1      10.878  -1.217  40.371  0.00  0.00    -0.096 C 
ATOM     25  H   UNL     1      11.449  -3.117  39.689  0.00  0.00    -0.082 HD
ATOM     26  C   UNL     1       9.633  -2.579  38.689  0.00  0.00    -0.064 C 
ATOM     27  C   UNL     1       9.804  -3.615  37.543  0.00  0.00    +0.066 C 
ENDBRANCH  19  20
ENDBRANCH  18  19
ENDBRANCH  14  15
ENDBRANCH  12  13
TORSDOF 6
ENDMDL
MODEL 4
REMARK VINA RESULT:      -7.8     27.702     33.401
REMARK  Name = C:\Users\Docking\Desktop\test protocol\1iep_ligandH.pdb
REMARK  8 active torsions:
REMARK  status: ('A' for Active; 'I' for Inactive)
REMARK    1  A    between atoms: _5  and  _11
REMARK    2  A    between atoms: _19  and  _21
REMARK    3  A    between atoms: _22  and  _66
REMARK    4  A    between atoms: _27  and  _30
REMARK    5  A    between atoms: _32  and  _33
REMARK    6  A    between atoms: _38  and  _43
REMARK    7  A    between atoms: _43  and  _46
REMARK    8  A    between atoms: _53  and  _55
REMARK                            x       y       z     vdW  Elec       q    Type
REMARK                         _______ _______ _______ _____ _____    ______ ____
ROOT
ATOM     10  C   UNL     1       4.216 -14.698  33.726  0.00  0.00    +0.038 A 
ATOM     11  C   UNL     1       4.639 -13.531  33.038  0.00  0.00    +0.047 A 
ATOM     12  C   UNL     1       5.911 -12.896  33.345  0.00  0.00    +0.035 A 
ATOM     32  C   UNL     1       6.729 -13.477  34.358  0.00  0.00    +0.024 A 
ATOM     33  C   UNL     1       6.315 -14.661  35.067  0.00  0.00    +0.007 A 
ATOM     34  C   UNL     1       5.060 -15.291  34.770  0.00  0.00    -0.029 A 
ATOM     35  C   UNL     1       4.664 -16.556  35.568  0.00  0.00    +0.045 C 
ENDROOT
BRANCH  10   9
ATOM      4  C   UNL     1       1.488 -17.621  31.071  0.00  0.00    +0.077 A 
ATOM      5  C   UNL     1       2.603 -18.029  30.267  0.00  0.00    +0.048 A 
ATOM      6  C   UNL     1       3.861 -17.458  30.565  0.00  0.00    +0.116 A 
ATOM      7  N   UNL     1       3.982 -16.547  31.592  0.00  0.00    -0.223 NA
ATOM      8  C   UNL     1       2.886 -16.174  32.347  0.00  0.00    +0.220 A 
ATOM      9  N   UNL     1       2.986 -15.267  33.391  0.00  0.00    -0.283 N 
ATOM     36  H   UNL     1       2.152 -15.012  33.919  0.00  0.00    +0.155 HD
ATOM     37  N   UNL     1       1.673 -16.704  32.082  0.00  0.00    -0.214 NA
BRANCH   4   3
ATOM      1  C   UNL     1      -2.020 -18.423  29.538  0.00  0.00    +0.020 A 
ATOM      2  C   UNL     1      -0.680 -17.901  29.670  0.00  0.00    +0.013 A 
ATOM      3  C   UNL     1       0.095 -18.138  30.882  0.00  0.00    +0.019 A 
ATOM     38  C   UNL     1      -0.520 -18.913  31.949  0.00  0.00    +0.120 A 
ATOM     39  N   UNL     1      -1.813 -19.402  31.793  0.00  0.00    -0.263 NA
ATOM     40  C   UNL     1      -2.569 -19.179  30.633  0.00  0.00    +0.111 A 
ENDBRANCH   4   3
ENDBRANCH  10   9
BRANCH  12  13
ATOM     13  N   UNL     1       6.389 -11.706  32.686  0.00  0.00    -0.281 N 
ATOM     14  C   UNL     1       6.921 -11.594  31.412  0.00  0.00    +0.248 C 
ATOM     30  O   UNL     1       7.266 -12.541  30.721  0.00  0.00    -0.270 OA
ATOM     31  H   UNL     1       6.327 -10.841  33.224  0.00  0.00    +0.155 HD
BRANCH  14  15
ATOM     15  C   UNL     1       7.111 -10.232  30.826  0.00  0.00    +0.037 A 
ATOM     16  C   UNL     1       7.676 -10.053  29.487  0.00  0.00    +0.013 A 
ATOM     17  C   UNL     1       7.864  -8.727  28.952  0.00  0.00    +0.005 A 
ATOM     18  C   UNL     1       7.485  -7.570  29.758  0.00  0.00    -0.033 A 
ATOM     28  C   UNL     1       6.921  -7.776  31.082  0.00  0.00    +0.005 A 
ATOM     29  C   UNL     1       6.736  -9.074  31.610  0.00  0.00    +0.013 A 
BRANCH  18  19
ATOM     19  C   UNL     1       7.670  -6.118  29.277  0.00  0.00    +0.119 C 
BRANCH  19  20
ATOM     20  N   UNL     1       7.407  -5.838  27.833  0.00  0.00    -0.302 NA
ATOM     21  C   UNL     1       8.676  -5.409  27.092  0.00  0.00    +0.066 C 
ATOM     22  C   UNL     1       8.388  -5.141  25.578  0.00  0.00    -0.064 C 
ATOM     23  N   UNL     1       7.298  -4.075  25.450  0.00  0.00    +0.379 N 
ATOM     24  C   UNL     1       7.066  -3.779  24.029  0.00  0.00    -0.096 C 
ATOM     25  H   UNL     1       7.678  -3.144  25.932  0.00  0.00    -0.082 HD
ATOM     26  C   UNL     1       6.034  -4.493  26.187  0.00  0.00    -0.064 C 
ATOM     27  C   UNL     1       6.337  -4.785  27.684  0.00  0.00    +0.066 C 
ENDBRANCH  19  20
ENDBRANCH  18  19
ENDBRANCH  14  15
ENDBRANCH  12  13
TORSDOF 6
ENDMDL
MODEL 5
REMARK VINA RESULT:      -7.8     35.933     38.099
REMARK  Name = C:\Users\Docking\Desktop\test protocol\1iep_ligandH.pdb
REMARK  8 active torsions:
REMARK  status: ('A' for Active; 'I' for Inactive)
REMARK    1  A    between atoms: _5  and  _11
REMARK    2  A    between atoms: _19  and  _21
REMARK    3  A    between atoms: _22  and  _66
REMARK    4  A    between atoms: _27  and  _30
REMARK    5  A    between atoms: _32  and  _33
REMARK    6  A    between atoms: _38  and  _43
REMARK    7  A    between atoms: _43  and  _46
REMARK    8  A    between atoms: _53  and  _55
REMARK                            x       y       z     vdW  Elec       q    Type
REMARK                         _______ _______ _______ _____ _____    ______ ____
ROOT
ATOM     10  C   UNL     1       2.281 -50.643  56.847  0.00  0.00    +0.038 A 
ATOM     11  C   UNL     1       3.033 -49.735  56.059  0.00  0.00    +0.047 A 
ATOM     12  C   UNL     1       2.492 -49.177  54.830  0.00  0.00    +0.035 A 
ATOM     32  C   UNL     1       1.178 -49.563  54.434  0.00  0.00    +0.024 A 
ATOM     33  C   UNL     1       0.399 -50.485  55.222  0.00  0.00    +0.007 A 
ATOM     34  C   UNL     1       0.929 -51.041  56.434  0.00  0.00    -0.029 A 
ATOM     35  C   UNL     1       0.052 -52.031  57.236  0.00  0.00    +0.045 C 
ENDROOT
BRANCH  10   9
ATOM      4  C   UNL     1       4.804 -53.950  59.241  0.00  0.00    +0.077 A 
ATOM      5  C   UNL     1       4.980 -54.752  58.065  0.00  0.00    +0.048 A 
ATOM      6  C   UNL     1       4.400 -54.282  56.866  0.00  0.00    +0.116 A 
ATOM      7  N   UNL     1       3.698 -53.096  56.855  0.00  0.00    -0.223 NA
ATOM      8  C   UNL     1       3.545 -52.348  58.007  0.00  0.00    +0.220 A 
ATOM      9  N   UNL     1       2.850 -51.148  58.018  0.00  0.00    -0.283 N 
ATOM     36  H   UNL     1       2.753 -50.629  58.890  0.00  0.00    +0.155 HD
ATOM     37  N   UNL     1       4.088 -52.776  59.166  0.00  0.00    -0.214 NA
BRANCH   4   3
ATOM      1  C   UNL     1       5.876 -55.964  62.419  0.00  0.00    +0.020 A 
ATOM      2  C   UNL     1       5.324 -55.668  61.117  0.00  0.00    +0.013 A 
ATOM      3  C   UNL     1       5.360 -54.312  60.583  0.00  0.00    +0.019 A 
ATOM     38  C   UNL     1       5.967 -53.270  61.399  0.00  0.00    +0.120 A 
ATOM     39  N   UNL     1       6.489 -53.585  62.649  0.00  0.00    -0.263 NA
ATOM     40  C   UNL     1       6.458 -54.886  63.174  0.00  0.00    +0.111 A 
ENDBRANCH   4   3
ENDBRANCH  10   9
BRANCH  12  13
ATOM     13  N   UNL     1       3.213 -48.257  53.986  0.00  0.00    -0.281 N 
ATOM     14  C   UNL     1       3.254 -46.875  54.072  0.00  0.00    +0.248 C 
ATOM     30  O   UNL     1       2.503 -46.203  54.763  0.00  0.00    -0.270 OA
ATOM     31  H   UNL     1       3.758 -48.675  53.232  0.00  0.00    +0.155 HD
BRANCH  14  15
ATOM     15  C   UNL     1       4.268 -46.131  53.264  0.00  0.00    +0.037 A 
ATOM     16  C   UNL     1       4.492 -44.696  53.460  0.00  0.00    +0.013 A 
ATOM     17  C   UNL     1       5.464 -43.999  52.655  0.00  0.00    +0.005 A 
ATOM     18  C   UNL     1       6.220 -44.738  51.647  0.00  0.00    -0.033 A 
ATOM     28  C   UNL     1       5.982 -46.162  51.477  0.00  0.00    +0.005 A 
ATOM     29  C   UNL     1       5.029 -46.848  52.263  0.00  0.00    +0.013 A 
BRANCH  18  19
ATOM     19  C   UNL     1       7.262 -44.072  50.728  0.00  0.00    +0.119 C 
BRANCH  19  20
ATOM     20  N   UNL     1       6.925 -43.965  49.277  0.00  0.00    -0.302 NA
ATOM     21  C   UNL     1       8.175 -43.801  48.408  0.00  0.00    +0.066 C 
ATOM     22  C   UNL     1       7.807 -43.713  46.891  0.00  0.00    -0.064 C 
ATOM     23  N   UNL     1       6.837 -42.550  46.671  0.00  0.00    +0.379 N 
ATOM     24  C   UNL     1       6.534 -42.429  45.238  0.00  0.00    -0.096 C 
ATOM     25  H   UNL     1       7.355 -41.615  46.988  0.00  0.00    -0.082 HD
ATOM     26  C   UNL     1       5.593 -42.704  47.534  0.00  0.00    -0.064 C 
ATOM     27  C   UNL     1       5.972 -42.820  49.037  0.00  0.00    +0.066 C 
ENDBRANCH  19  20
ENDBRANCH  18  19
ENDBRANCH  14  15
ENDBRANCH  12  13
TORSDOF 6
ENDMDL
