MODEL 1
REMARK VINA RESULT:     -11.8      0.000      0.000
REMARK  Name = C:\Users\Docking\Desktop\test protocol\1iep_ligandH.pdb
REMARK  8 active torsions:
REMARK  status: ('A' for Active; 'I' for Inactive)
REMARK    1  A    between atoms: _5  and  _11
REMARK    2  A    between atoms: _19  and  _21
REMARK    3  A    between atoms: _22  and  _66
REMARK    4  A    between atoms: _27  and  _30
REMARK    5  A    between atoms: _32  and  _33
REMARK    6  A    between atoms: _38  and  _43
REMARK    7  A    between atoms: _43  and  _46
REMARK    8  A    between atoms: _53  and  _55
REMARK                            x       y       z     vdW  Elec       q    Type
REMARK                         _______ _______ _______ _____ _____    ______ ____
ROOT
ATOM     10  C   UNL     1      53.044  80.605   5.806  0.00  0.00    +0.038 A 
ATOM     11  C   UNL     1      51.649  80.472   5.583  0.00  0.00    +0.047 A 
ATOM     12  C   UNL     1      51.069  80.727   4.274  0.00  0.00    +0.035 A 
ATOM     32  C   UNL     1      51.939  81.113   3.213  0.00  0.00    +0.024 A 
ATOM     33  C   UNL     1      53.359  81.253   3.422  0.00  0.00    +0.007 A 
ATOM     34  C   UNL     1      53.937  81.005   4.712  0.00  0.00    -0.029 A 
ATOM     35  C   UNL     1      55.464  81.178   4.880  0.00  0.00    +0.045 C 
ENDROOT
BRANCH  10   9
ATOM      4  C   UNL     1      55.252  77.778   8.996  0.00  0.00    +0.077 A 
ATOM      5  C   UNL     1      55.390  76.713   8.044  0.00  0.00    +0.048 A 
ATOM      6  C   UNL     1      54.873  76.930   6.748  0.00  0.00    +0.116 A 
ATOM      7  N   UNL     1      54.266  78.127   6.436  0.00  0.00    -0.223 NA
ATOM      8  C   UNL     1      54.147  79.133   7.377  0.00  0.00    +0.220 A 
ATOM      9  N   UNL     1      53.547  80.348   7.083  0.00  0.00    -0.283 N 
ATOM     36  H   UNL     1      53.473  81.062   7.808  0.00  0.00    +0.155 HD
ATOM     37  N   UNL     1      54.632  78.950   8.623  0.00  0.00    -0.214 NA
BRANCH   4   3
ATOM      1  C   UNL     1      57.480  78.126  12.191  0.00  0.00    +0.020 A 
ATOM      2  C   UNL     1      57.047  78.225  10.817  0.00  0.00    +0.013 A 
ATOM      3  C   UNL     1      55.750  77.701  10.405  0.00  0.00    +0.019 A 
ATOM     38  C   UNL     1      54.909  77.080  11.417  0.00  0.00    +0.120 A 
ATOM     39  N   UNL     1      55.354  76.997  12.733  0.00  0.00    -0.263 NA
ATOM     40  C   UNL     1      56.601  77.496  13.140  0.00  0.00    +0.111 A 
ENDBRANCH   4   3
ENDBRANCH  10   9
BRANCH  12  13
ATOM     13  N   UNL     1      49.660  80.617   3.990  0.00  0.00    -0.281 N 
ATOM     14  C   UNL     1      49.058  80.168   2.826  0.00  0.00    +0.248 C 
ATOM     30  O   UNL     1      49.644  79.994   1.768  0.00  0.00    -0.270 OA
ATOM     31  H   UNL     1      49.029  80.904   4.739  0.00  0.00    +0.155 HD
BRANCH  14  15
ATOM     15  C   UNL     1      47.590  79.887   2.834  0.00  0.00    +0.037 A 
ATOM     16  C   UNL     1      46.783  80.026   1.619  0.00  0.00    +0.013 A 
ATOM     17  C   UNL     1      45.366  79.764   1.658  0.00  0.00    +0.005 A 
ATOM     18  C   UNL     1      44.747  79.359   2.918  0.00  0.00    -0.033 A 
ATOM     28  C   UNL     1      45.572  79.223   4.107  0.00  0.00    +0.005 A 
ATOM     29  C   UNL     1      46.961  79.480   4.073  0.00  0.00    +0.013 A 
BRANCH  18  19
ATOM     19  C   UNL     1      43.239  79.080   3.057  0.00  0.00    +0.119 C 
BRANCH  19  20
ATOM     20  N   UNL     1      42.559  78.410   1.909  0.00  0.00    -0.302 NA
ATOM     21  C   UNL     1      41.868  79.416   0.984  0.00  0.00    +0.066 C 
ATOM     22  C   UNL     1      41.181  78.700  -0.224  0.00  0.00    -0.064 C 
ATOM     23  N   UNL     1      40.179  77.670   0.300  0.00  0.00    +0.379 N 
ATOM     24  C   UNL     1      39.489  77.036  -0.833  0.00  0.00    -0.096 C 
ATOM     25  H   UNL     1      39.414  78.217   0.899  0.00  0.00    -0.082 HD
ATOM     26  C   UNL     1      40.857  76.667   1.223  0.00  0.00    -0.064 C 
ATOM     27  C   UNL     1      41.562  77.391   2.404  0.00  0.00    +0.066 C 
ENDBRANCH  19  20
ENDBRANCH  18  19
ENDBRANCH  14  15
ENDBRANCH  12  13
TORSDOF 6
ENDMDL
MODEL 2
REMARK VINA RESULT:     -11.7      7.371     13.432
REMARK  Name = C:\Users\Docking\Desktop\test protocol\1iep_ligandH.pdb
REMARK  8 active torsions:
REMARK  status: ('A' for Active; 'I' for Inactive)
REMARK    1  A    between atoms: _5  and  _11
REMARK    2  A    between atoms: _19  and  _21
REMARK    3  A    between atoms: _22  and  _66
REMARK    4  A    between atoms: _27  and  _30
REMARK    5  A    between atoms: _32  and  _33
REMARK    6  A    between atoms: _38  and  _43
REMARK    7  A    between atoms: _43  and  _46
REMARK    8  A    between atoms: _53  and  _55
REMARK                            x       y       z     vdW  Elec       q    Type
REMARK                         _______ _______ _______ _____ _____    ______ ____
ROOT
ATOM     10  C   UNL     1      53.847  80.748   7.648  0.00  0.00    +0.038 A 
ATOM     11  C   UNL     1      54.052  81.988   8.306  0.00  0.00    +0.047 A 
ATOM     12  C   UNL     1      55.301  82.279   8.992  0.00  0.00    +0.035 A 
ATOM     32  C   UNL     1      56.322  81.284   8.985  0.00  0.00    +0.024 A 
ATOM     33  C   UNL     1      56.131  80.018   8.322  0.00  0.00    +0.007 A 
ATOM     34  C   UNL     1      54.899  79.725   7.647  0.00  0.00    -0.029 A 
ATOM     35  C   UNL     1      54.746  78.349   6.958  0.00  0.00    +0.045 C 
ENDROOT
BRANCH  10   9
ATOM      4  C   UNL     1      51.068  80.708   3.735  0.00  0.00    +0.077 A 
ATOM      5  C   UNL     1      52.128  81.205   2.905  0.00  0.00    +0.048 A 
ATOM      6  C   UNL     1      53.371  81.465   3.526  0.00  0.00    +0.116 A 
ATOM      7  N   UNL     1      53.530  81.240   4.876  0.00  0.00    -0.223 NA
ATOM      8  C   UNL     1      52.487  80.763   5.648  0.00  0.00    +0.220 A 
ATOM      9  N   UNL     1      52.627  80.523   7.006  0.00  0.00    -0.283 N 
ATOM     36  H   UNL     1      51.831  80.177   7.542  0.00  0.00    +0.155 HD
ATOM     37  N   UNL     1      51.290  80.508   5.079  0.00  0.00    -0.214 NA
BRANCH   4   3
ATOM      1  C   UNL     1      48.039  79.995   1.366  0.00  0.00    +0.020 A 
ATOM      2  C   UNL     1      49.378  80.313   1.805  0.00  0.00    +0.013 A 
ATOM      3  C   UNL     1      49.699  80.383   3.225  0.00  0.00    +0.019 A 
ATOM     38  C   UNL     1      48.634  80.123   4.182  0.00  0.00    +0.120 A 
ATOM     39  N   UNL     1      47.354  79.820   3.729  0.00  0.00    -0.263 NA
ATOM     40  C   UNL     1      47.033  79.751   2.365  0.00  0.00    +0.111 A 
ENDBRANCH   4   3
ENDBRANCH  10   9
BRANCH  12  13
ATOM     13  N   UNL     1      55.563  83.516   9.684  0.00  0.00    -0.281 N 
ATOM     14  C   UNL     1      55.688  84.785   9.142  0.00  0.00    +0.248 C 
ATOM     30  O   UNL     1      55.804  85.018   7.948  0.00  0.00    -0.270 OA
ATOM     31  H   UNL     1      55.670  83.448  10.696  0.00  0.00    +0.155 HD
BRANCH  14  15
ATOM     15  C   UNL     1      55.698  85.964  10.060  0.00  0.00    +0.037 A 
ATOM     16  C   UNL     1      56.823  86.903  10.079  0.00  0.00    +0.013 A 
ATOM     17  C   UNL     1      56.815  88.023  10.986  0.00  0.00    +0.005 A 
ATOM     18  C   UNL     1      55.677  88.211  11.883  0.00  0.00    -0.033 A 
ATOM     28  C   UNL     1      54.572  87.267  11.840  0.00  0.00    +0.005 A 
ATOM     29  C   UNL     1      54.576  86.168  10.952  0.00  0.00    +0.013 A 
BRANCH  18  19
ATOM     19  C   UNL     1      55.594  89.366  12.898  0.00  0.00    +0.119 C 
BRANCH  19  20
ATOM     20  N   UNL     1      54.438  90.303  12.775  0.00  0.00    -0.302 NA
ATOM     21  C   UNL     1      54.366  90.947  11.388  0.00  0.00    +0.066 C 
ATOM     22  C   UNL     1      53.138  91.907  11.269  0.00  0.00    -0.064 C 
ATOM     23  N   UNL     1      53.223  92.977  12.359  0.00  0.00    +0.379 N 
ATOM     24  C   UNL     1      52.101  93.916  12.213  0.00  0.00    -0.096 C 
ATOM     25  H   UNL     1      54.166  93.549  12.197  0.00  0.00    -0.082 HD
ATOM     26  C   UNL     1      53.298  92.345  13.741  0.00  0.00    -0.064 C 
ATOM     27  C   UNL     1      54.505  91.371  13.839  0.00  0.00    +0.066 C 
ENDBRANCH  19  20
ENDBRANCH  18  19
ENDBRANCH  14  15
ENDBRANCH  12  13
TORSDOF 6
ENDMDL
MODEL 3
REMARK VINA RESULT:     -11.7      2.085      2.527
REMARK  Name = C:\Users\Docking\Desktop\test protocol\1iep_ligandH.pdb
REMARK  8 active torsions:
REMARK  status: ('A' for Active; 'I' for Inactive)
REMARK    1  A    between atoms: _5  and  _11
REMARK    2  A    between atoms: _19  and  _21
REMARK    3  A    between atoms: _22  and  _66
REMARK    4  A    between atoms: _27  and  _30
REMARK    5  A    between atoms: _32  and  _33
REMARK    6  A    between atoms: _38  and  _43
REMARK    7  A    between atoms: _43  and  _46
REMARK    8  A    between atoms: _53  and  _55
REMARK                            x       y       z     vdW  Elec       q    Type
REMARK                         _______ _______ _______ _____ _____    ______ ____
ROOT
ATOM     10  C   UNL     1      53.008  80.559   5.915  0.00  0.00    +0.038 A 
ATOM     11  C   UNL     1      51.615  80.475   5.660  0.00  0.00    +0.047 A 
ATOM     12  C   UNL     1      51.081  80.688   4.324  0.00  0.00    +0.035 A 
ATOM     32  C   UNL     1      51.994  80.981   3.270  0.00  0.00    +0.024 A 
ATOM     33  C   UNL     1      53.412  81.071   3.511  0.00  0.00    +0.007 A 
ATOM     34  C   UNL     1      53.945  80.865   4.828  0.00  0.00    -0.029 A 
ATOM     35  C   UNL     1      55.474  80.980   5.030  0.00  0.00    +0.045 C 
ENDROOT
BRANCH  10   9
ATOM      4  C   UNL     1      54.926  82.108  10.033  0.00  0.00    +0.077 A 
ATOM      5  C   UNL     1      55.050  83.449   9.540  0.00  0.00    +0.048 A 
ATOM      6  C   UNL     1      54.615  83.697   8.218  0.00  0.00    +0.116 A 
ATOM      7  N   UNL     1      54.096  82.673   7.457  0.00  0.00    -0.223 NA
ATOM      8  C   UNL     1      53.993  81.390   7.963  0.00  0.00    +0.220 A 
ATOM      9  N   UNL     1      53.467  80.346   7.217  0.00  0.00    -0.283 N 
ATOM     36  H   UNL     1      53.414  79.413   7.624  0.00  0.00    +0.155 HD
ATOM     37  N   UNL     1      54.402  81.127   9.221  0.00  0.00    -0.214 NA
BRANCH   4   3
ATOM      1  C   UNL     1      56.879  81.776  13.406  0.00  0.00    +0.020 A 
ATOM      2  C   UNL     1      56.525  82.214  12.076  0.00  0.00    +0.013 A 
ATOM      3  C   UNL     1      55.339  81.689  11.410  0.00  0.00    +0.019 A 
ATOM     38  C   UNL     1      54.527  80.716  12.124  0.00  0.00    +0.120 A 
ATOM     39  N   UNL     1      54.894  80.312  13.404  0.00  0.00    -0.263 NA
ATOM     40  C   UNL     1      56.033  80.809  14.054  0.00  0.00    +0.111 A 
ENDBRANCH   4   3
ENDBRANCH  10   9
BRANCH  12  13
ATOM     13  N   UNL     1      49.675  80.623   4.007  0.00  0.00    -0.281 N 
ATOM     14  C   UNL     1      49.087  80.180   2.834  0.00  0.00    +0.248 C 
ATOM     30  O   UNL     1      49.692  79.969   1.794  0.00  0.00    -0.270 OA
ATOM     31  H   UNL     1      49.037  80.944   4.736  0.00  0.00    +0.155 HD
BRANCH  14  15
ATOM     15  C   UNL     1      47.610  79.950   2.810  0.00  0.00    +0.037 A 
ATOM     16  C   UNL     1      46.824  80.189   1.596  0.00  0.00    +0.013 A 
ATOM     17  C   UNL     1      45.398  79.976   1.604  0.00  0.00    +0.005 A 
ATOM     18  C   UNL     1      44.749  79.520   2.831  0.00  0.00    -0.033 A 
ATOM     28  C   UNL     1      45.554  79.286   4.019  0.00  0.00    +0.005 A 
ATOM     29  C   UNL     1      46.951  79.495   4.015  0.00  0.00    +0.013 A 
BRANCH  18  19
ATOM     19  C   UNL     1      43.231  79.287   2.938  0.00  0.00    +0.119 C 
BRANCH  19  20
ATOM     20  N   UNL     1      42.575  78.535   1.826  0.00  0.00    -0.302 NA
ATOM     21  C   UNL     1      41.824  79.465   0.868  0.00  0.00    +0.066 C 
ATOM     22  C   UNL     1      41.163  78.664  -0.300  0.00  0.00    -0.064 C 
ATOM     23  N   UNL     1      40.221  77.607   0.278  0.00  0.00    +0.379 N 
ATOM     24  C   UNL     1      39.554  76.891  -0.819  0.00  0.00    -0.096 C 
ATOM     25  H   UNL     1      39.435  78.138   0.863  0.00  0.00    -0.082 HD
ATOM     26  C   UNL     1      40.959  76.680   1.234  0.00  0.00    -0.064 C 
ATOM     27  C   UNL     1      41.637  77.489   2.375  0.00  0.00    +0.066 C 
ENDBRANCH  19  20
ENDBRANCH  18  19
ENDBRANCH  14  15
ENDBRANCH  12  13
TORSDOF 6
ENDMDL
MODEL 4
REMARK VINA RESULT:     -11.1      7.512     14.438
REMARK  Name = C:\Users\Docking\Desktop\test protocol\1iep_ligandH.pdb
REMARK  8 active torsions:
REMARK  status: ('A' for Active; 'I' for Inactive)
REMARK    1  A    between atoms: _5  and  _11
REMARK    2  A    between atoms: _19  and  _21
REMARK    3  A    between atoms: _22  and  _66
REMARK    4  A    between atoms: _27  and  _30
REMARK    5  A    between atoms: _32  and  _33
REMARK    6  A    between atoms: _38  and  _43
REMARK    7  A    between atoms: _43  and  _46
REMARK    8  A    between atoms: _53  and  _55
REMARK                            x       y       z     vdW  Elec       q    Type
REMARK                         _______ _______ _______ _____ _____    ______ ____
ROOT
ATOM     10  C   UNL     1      53.917  80.758   7.555  0.00  0.00    +0.038 A 
ATOM     11  C   UNL     1      54.097  81.966   8.276  0.00  0.00    +0.047 A 
ATOM     12  C   UNL     1      55.361  82.272   8.928  0.00  0.00    +0.035 A 
ATOM     32  C   UNL     1      56.422  81.326   8.823  0.00  0.00    +0.024 A 
ATOM     33  C   UNL     1      56.256  80.093   8.095  0.00  0.00    +0.007 A 
ATOM     34  C   UNL     1      55.011  79.784   7.452  0.00  0.00    -0.029 A 
ATOM     35  C   UNL     1      54.887  78.444   6.690  0.00  0.00    +0.045 C 
ENDROOT
BRANCH  10   9
ATOM      4  C   UNL     1      51.016  80.710   3.732  0.00  0.00    +0.077 A 
ATOM      5  C   UNL     1      52.039  81.238   2.875  0.00  0.00    +0.048 A 
ATOM      6  C   UNL     1      53.295  81.516   3.459  0.00  0.00    +0.116 A 
ATOM      7  N   UNL     1      53.502  81.278   4.801  0.00  0.00    -0.223 NA
ATOM      8  C   UNL     1      52.494  80.769   5.599  0.00  0.00    +0.220 A 
ATOM      9  N   UNL     1      52.683  80.515   6.949  0.00  0.00    -0.283 N 
ATOM     36  H   UNL     1      51.912  80.147   7.505  0.00  0.00    +0.155 HD
ATOM     37  N   UNL     1      51.285  80.497   5.065  0.00  0.00    -0.214 NA
BRANCH   4   3
ATOM      1  C   UNL     1      47.939  79.917   1.451  0.00  0.00    +0.020 A 
ATOM      2  C   UNL     1      49.285  80.256   1.852  0.00  0.00    +0.013 A 
ATOM      3  C   UNL     1      49.638  80.363   3.262  0.00  0.00    +0.019 A 
ATOM     38  C   UNL     1      48.597  80.119   4.249  0.00  0.00    +0.120 A 
ATOM     39  N   UNL     1      47.309  79.796   3.833  0.00  0.00    -0.263 NA
ATOM     40  C   UNL     1      46.957  79.692   2.479  0.00  0.00    +0.111 A 
ENDBRANCH   4   3
ENDBRANCH  10   9
BRANCH  12  13
ATOM     13  N   UNL     1      55.599  83.479   9.681  0.00  0.00    -0.281 N 
ATOM     14  C   UNL     1      55.673  84.778   9.206  0.00  0.00    +0.248 C 
ATOM     30  O   UNL     1      55.757  85.079   8.024  0.00  0.00    -0.270 OA
ATOM     31  H   UNL     1      55.730  83.361  10.685  0.00  0.00    +0.155 HD
BRANCH  14  15
ATOM     15  C   UNL     1      55.666  85.906  10.186  0.00  0.00    +0.037 A 
ATOM     16  C   UNL     1      54.512  86.152  11.055  0.00  0.00    +0.013 A 
ATOM     17  C   UNL     1      54.525  87.258  11.979  0.00  0.00    +0.005 A 
ATOM     18  C   UNL     1      55.699  88.126  12.041  0.00  0.00    -0.033 A 
ATOM     28  C   UNL     1      56.832  87.856  11.172  0.00  0.00    +0.005 A 
ATOM     29  C   UNL     1      56.822  86.774  10.263  0.00  0.00    +0.013 A 
BRANCH  18  19
ATOM     19  C   UNL     1      55.791  89.341  12.982  0.00  0.00    +0.119 C 
BRANCH  19  20
ATOM     20  N   UNL     1      56.942  90.272  12.786  0.00  0.00    -0.302 NA
ATOM     21  C   UNL     1      57.844  90.340  14.022  0.00  0.00    +0.066 C 
ATOM     22  C   UNL     1      59.055  91.301  13.792  0.00  0.00    -0.064 C 
ATOM     23  N   UNL     1      58.536  92.692  13.423  0.00  0.00    +0.379 N 
ATOM     24  C   UNL     1      59.671  93.612  13.262  0.00  0.00    -0.096 C 
ATOM     25  H   UNL     1      57.920  93.060  14.276  0.00  0.00    -0.082 HD
ATOM     26  C   UNL     1      57.637  92.633  12.196  0.00  0.00    -0.064 C 
ATOM     27  C   UNL     1      56.452  91.653  12.426  0.00  0.00    +0.066 C 
ENDBRANCH  19  20
ENDBRANCH  18  19
ENDBRANCH  14  15
ENDBRANCH  12  13
TORSDOF 6
ENDMDL
MODEL 5
REMARK VINA RESULT:     -10.8      7.205     14.389
REMARK  Name = C:\Users\Docking\Desktop\test protocol\1iep_ligandH.pdb
REMARK  8 active torsions:
REMARK  status: ('A' for Active; 'I' for Inactive)
REMARK    1  A    between atoms: _5  and  _11
REMARK    2  A    between atoms: _19  and  _21
REMARK    3  A    between atoms: _22  and  _66
REMARK    4  A    between atoms: _27  and  _30
REMARK    5  A    between atoms: _32  and  _33
REMARK    6  A    between atoms: _38  and  _43
REMARK    7  A    between atoms: _43  and  _46
REMARK    8  A    between atoms: _53  and  _55
REMARK                            x       y       z     vdW  Elec       q    Type
REMARK                         _______ _______ _______ _____ _____    ______ ____
ROOT
ATOM     10  C   UNL     1      53.672  80.570   7.198  0.00  0.00    +0.038 A 
ATOM     11  C   UNL     1      53.984  81.809   7.814  0.00  0.00    +0.047 A 
ATOM     12  C   UNL     1      55.305  82.063   8.368  0.00  0.00    +0.035 A 
ATOM     32  C   UNL     1      56.285  81.032   8.274  0.00  0.00    +0.024 A 
ATOM     33  C   UNL     1      55.985  79.767   7.653  0.00  0.00    +0.007 A 
ATOM     34  C   UNL     1      54.683  79.510   7.107  0.00  0.00    -0.029 A 
ATOM     35  C   UNL     1      54.415  78.132   6.458  0.00  0.00    +0.045 C 
ENDROOT
BRANCH  10   9
ATOM      4  C   UNL     1      50.511  80.611   3.587  0.00  0.00    +0.077 A 
ATOM      5  C   UNL     1      51.495  81.075   2.652  0.00  0.00    +0.048 A 
ATOM      6  C   UNL     1      52.801  81.297   3.142  0.00  0.00    +0.116 A 
ATOM      7  N   UNL     1      53.090  81.069   4.470  0.00  0.00    -0.223 NA
ATOM      8  C   UNL     1      52.117  80.624   5.346  0.00  0.00    +0.220 A 
ATOM      9  N   UNL     1      52.387  80.380   6.683  0.00  0.00    -0.283 N 
ATOM     36  H   UNL     1      51.640  80.059   7.298  0.00  0.00    +0.155 HD
ATOM     37  N   UNL     1      50.862  80.405   4.902  0.00  0.00    -0.214 NA
BRANCH   4   3
ATOM      1  C   UNL     1      47.214  80.090   1.547  0.00  0.00    +0.020 A 
ATOM      2  C   UNL     1      48.598  80.374   1.847  0.00  0.00    +0.013 A 
ATOM      3  C   UNL     1      49.087  80.327   3.220  0.00  0.00    +0.019 A 
ATOM     38  C   UNL     1      48.142  79.986   4.272  0.00  0.00    +0.120 A 
ATOM     39  N   UNL     1      46.815  79.719   3.953  0.00  0.00    -0.263 NA
ATOM     40  C   UNL     1      46.332  79.763   2.636  0.00  0.00    +0.111 A 
ENDBRANCH   4   3
ENDBRANCH  10   9
BRANCH  12  13
ATOM     13  N   UNL     1      55.677  83.298   9.012  0.00  0.00    -0.281 N 
ATOM     14  C   UNL     1      55.768  83.557  10.369  0.00  0.00    +0.248 C 
ATOM     30  O   UNL     1      55.334  82.821  11.244  0.00  0.00    -0.270 OA
ATOM     31  H   UNL     1      55.900  84.076   8.391  0.00  0.00    +0.155 HD
BRANCH  14  15
ATOM     15  C   UNL     1      56.423  84.822  10.821  0.00  0.00    +0.037 A 
ATOM     16  C   UNL     1      56.695  85.914   9.883  0.00  0.00    +0.013 A 
ATOM     17  C   UNL     1      57.343  87.117  10.341  0.00  0.00    +0.005 A 
ATOM     18  C   UNL     1      57.724  87.234  11.747  0.00  0.00    -0.033 A 
ATOM     28  C   UNL     1      57.437  86.138  12.657  0.00  0.00    +0.005 A 
ATOM     29  C   UNL     1      56.803  84.957  12.211  0.00  0.00    +0.013 A 
BRANCH  18  19
ATOM     19  C   UNL     1      58.438  88.473  12.319  0.00  0.00    +0.119 C 
BRANCH  19  20
ATOM     20  N   UNL     1      57.604  89.682  12.585  0.00  0.00    -0.302 NA
ATOM     21  C   UNL     1      58.096  90.903  11.802  0.00  0.00    +0.066 C 
ATOM     22  C   UNL     1      57.198  92.153  12.075  0.00  0.00    -0.064 C 
ATOM     23  N   UNL     1      57.176  92.445  13.576  0.00  0.00    +0.379 N 
ATOM     24  C   UNL     1      56.380  93.655  13.830  0.00  0.00    -0.096 C 
ATOM     25  H   UNL     1      58.224  92.657  13.894  0.00  0.00    -0.082 HD
ATOM     26  C   UNL     1      56.691  91.235  14.362  0.00  0.00    -0.064 C 
ATOM     27  C   UNL     1      57.572  89.991  14.062  0.00  0.00    +0.066 C 
ENDBRANCH  19  20
ENDBRANCH  18  19
ENDBRANCH  14  15
ENDBRANCH  12  13
TORSDOF 6
ENDMDL
