MODEL 1
REMARK VINA RESULT:      -7.9      0.000      0.000
REMARK  Name = C:\Users\Docking\Desktop\test protocol\1iep_ligandH.pdb
REMARK  8 active torsions:
REMARK  status: ('A' for Active; 'I' for Inactive)
REMARK    1  A    between atoms: _5  and  _11
REMARK    2  A    between atoms: _19  and  _21
REMARK    3  A    between atoms: _22  and  _66
REMARK    4  A    between atoms: _27  and  _30
REMARK    5  A    between atoms: _32  and  _33
REMARK    6  A    between atoms: _38  and  _43
REMARK    7  A    between atoms: _43  and  _46
REMARK    8  A    between atoms: _53  and  _55
REMARK                            x       y       z     vdW  Elec       q    Type
REMARK                         _______ _______ _______ _____ _____    ______ ____
ROOT
ATOM     10  C   UNL     1      37.258 -13.621 -18.284  0.00  0.00    +0.038 A 
ATOM     11  C   UNL     1      38.444 -13.868 -17.546  0.00  0.00    +0.047 A 
ATOM     12  C   UNL     1      39.606 -13.004 -17.678  0.00  0.00    +0.035 A 
ATOM     32  C   UNL     1      39.525 -11.894 -18.569  0.00  0.00    +0.024 A 
ATOM     33  C   UNL     1      38.328 -11.628 -19.327  0.00  0.00    +0.007 A 
ATOM     34  C   UNL     1      37.179 -12.479 -19.203  0.00  0.00    -0.029 A 
ATOM     35  C   UNL     1      35.924 -12.150 -20.045  0.00  0.00    +0.045 C 
ENDROOT
BRANCH  10   9
ATOM      4  C   UNL     1      34.670 -17.459 -19.551  0.00  0.00    +0.077 A 
ATOM      5  C   UNL     1      35.541 -17.757 -20.652  0.00  0.00    +0.048 A 
ATOM      6  C   UNL     1      36.639 -16.893 -20.862  0.00  0.00    +0.116 A 
ATOM      7  N   UNL     1      36.842 -15.816 -20.027  0.00  0.00    -0.223 NA
ATOM      8  C   UNL     1      35.982 -15.556 -18.976  0.00  0.00    +0.220 A 
ATOM      9  N   UNL     1      36.171 -14.483 -18.119  0.00  0.00    -0.283 N 
ATOM     36  H   UNL     1      35.511 -14.322 -17.359  0.00  0.00    +0.155 HD
ATOM     37  N   UNL     1      34.925 -16.365 -18.755  0.00  0.00    -0.214 NA
BRANCH   4   3
ATOM      1  C   UNL     1      32.201 -20.459 -19.097  0.00  0.00    +0.020 A 
ATOM      2  C   UNL     1      33.384 -19.712 -19.457  0.00  0.00    +0.013 A 
ATOM      3  C   UNL     1      33.469 -18.280 -19.198  0.00  0.00    +0.019 A 
ATOM     38  C   UNL     1      32.331 -17.630 -18.566  0.00  0.00    +0.120 A 
ATOM     39  N   UNL     1      31.204 -18.374 -18.231  0.00  0.00    -0.263 NA
ATOM     40  C   UNL     1      31.110 -19.752 -18.478  0.00  0.00    +0.111 A 
ENDBRANCH   4   3
ENDBRANCH  10   9
BRANCH  12  13
ATOM     13  N   UNL     1      40.840 -13.210 -16.961  0.00  0.00    -0.281 N 
ATOM     14  C   UNL     1      41.035 -13.229 -15.590  0.00  0.00    +0.248 C 
ATOM     30  O   UNL     1      40.210 -12.857 -14.769  0.00  0.00    -0.270 OA
ATOM     31  H   UNL     1      41.670 -13.361 -17.534  0.00  0.00    +0.155 HD
BRANCH  14  15
ATOM     15  C   UNL     1      42.341 -13.719 -15.053  0.00  0.00    +0.037 A 
ATOM     16  C   UNL     1      43.496 -12.825 -14.932  0.00  0.00    +0.013 A 
ATOM     17  C   UNL     1      44.750 -13.327 -14.427  0.00  0.00    +0.005 A 
ATOM     18  C   UNL     1      44.854 -14.732 -14.038  0.00  0.00    -0.033 A 
ATOM     28  C   UNL     1      43.691 -15.595 -14.164  0.00  0.00    +0.005 A 
ATOM     29  C   UNL     1      42.461 -15.106 -14.660  0.00  0.00    +0.013 A 
BRANCH  18  19
ATOM     19  C   UNL     1      46.158 -15.358 -13.510  0.00  0.00    +0.119 C 
BRANCH  19  20
ATOM     20  N   UNL     1      46.975 -14.541 -12.564  0.00  0.00    -0.302 NA
ATOM     21  C   UNL     1      48.411 -15.060 -12.449  0.00  0.00    +0.066 C 
ATOM     22  C   UNL     1      49.257 -14.180 -11.472  0.00  0.00    -0.064 C 
ATOM     23  N   UNL     1      48.581 -14.150 -10.101  0.00  0.00    +0.379 N 
ATOM     24  C   UNL     1      49.405 -13.371  -9.165  0.00  0.00    -0.096 C 
ATOM     25  H   UNL     1      48.538 -15.198  -9.722  0.00  0.00    -0.082 HD
ATOM     26  C   UNL     1      47.152 -13.638 -10.206  0.00  0.00    -0.064 C 
ATOM     27  C   UNL     1      46.327 -14.501 -11.201  0.00  0.00    +0.066 C 
ENDBRANCH  19  20
ENDBRANCH  18  19
ENDBRANCH  14  15
ENDBRANCH  12  13
TORSDOF 6
ENDMDL
MODEL 2
REMARK VINA RESULT:      -7.8      2.318     12.920
REMARK  Name = C:\Users\Docking\Desktop\test protocol\1iep_ligandH.pdb
REMARK  8 active torsions:
REMARK  status: ('A' for Active; 'I' for Inactive)
REMARK    1  A    between atoms: _5  and  _11
REMARK    2  A    between atoms: _19  and  _21
REMARK    3  A    between atoms: _22  and  _66
REMARK    4  A    between atoms: _27  and  _30
REMARK    5  A    between atoms: _32  and  _33
REMARK    6  A    between atoms: _38  and  _43
REMARK    7  A    between atoms: _43  and  _46
REMARK    8  A    between atoms: _53  and  _55
REMARK                            x       y       z     vdW  Elec       q    Type
REMARK                         _______ _______ _______ _____ _____    ______ ____
ROOT
ATOM     10  C   UNL     1      39.499 -12.764 -17.566  0.00  0.00    +0.038 A 
ATOM     11  C   UNL     1      38.533 -13.722 -17.965  0.00  0.00    +0.047 A 
ATOM     12  C   UNL     1      37.245 -13.314 -18.504  0.00  0.00    +0.035 A 
ATOM     32  C   UNL     1      36.975 -11.919 -18.624  0.00  0.00    +0.024 A 
ATOM     33  C   UNL     1      37.944 -10.931 -18.222  0.00  0.00    +0.007 A 
ATOM     34  C   UNL     1      39.216 -11.328 -17.688  0.00  0.00    -0.029 A 
ATOM     35  C   UNL     1      40.215 -10.225 -17.267  0.00  0.00    +0.045 C 
ENDROOT
BRANCH  10   9
ATOM      4  C   UNL     1      42.280 -14.266 -13.954  0.00  0.00    +0.077 A 
ATOM      5  C   UNL     1      41.220 -14.119 -12.999  0.00  0.00    +0.048 A 
ATOM      6  C   UNL     1      39.977 -13.648 -13.476  0.00  0.00    +0.116 A 
ATOM      7  N   UNL     1      39.817 -13.349 -14.812  0.00  0.00    -0.223 NA
ATOM      8  C   UNL     1      40.860 -13.499 -15.706  0.00  0.00    +0.220 A 
ATOM      9  N   UNL     1      40.719 -13.212 -17.055  0.00  0.00    -0.283 N 
ATOM     36  H   UNL     1      41.515 -13.329 -17.682  0.00  0.00    +0.155 HD
ATOM     37  N   UNL     1      42.058 -13.946 -15.275  0.00  0.00    -0.214 NA
BRANCH   4   3
ATOM      1  C   UNL     1      46.117 -15.021 -14.068  0.00  0.00    +0.020 A 
ATOM      2  C   UNL     1      44.815 -14.527 -14.452  0.00  0.00    +0.013 A 
ATOM      3  C   UNL     1      43.651 -14.756 -13.604  0.00  0.00    +0.019 A 
ATOM     38  C   UNL     1      43.841 -15.493 -12.364  0.00  0.00    +0.120 A 
ATOM     39  N   UNL     1      45.107 -15.958 -12.021  0.00  0.00    -0.263 NA
ATOM     40  C   UNL     1      46.233 -15.745 -12.829  0.00  0.00    +0.111 A 
ENDBRANCH   4   3
ENDBRANCH  10   9
BRANCH  12  13
ATOM     13  N   UNL     1      36.222 -14.242 -18.918  0.00  0.00    -0.281 N 
ATOM     14  C   UNL     1      36.006 -14.761 -20.184  0.00  0.00    +0.248 C 
ATOM     30  O   UNL     1      36.531 -14.339 -21.204  0.00  0.00    -0.270 OA
ATOM     31  H   UNL     1      35.580 -14.554 -18.190  0.00  0.00    +0.155 HD
BRANCH  14  15
ATOM     15  C   UNL     1      35.057 -15.905 -20.343  0.00  0.00    +0.037 A 
ATOM     16  C   UNL     1      35.543 -17.280 -20.490  0.00  0.00    +0.013 A 
ATOM     17  C   UNL     1      34.608 -18.363 -20.658  0.00  0.00    +0.005 A 
ATOM     18  C   UNL     1      33.175 -18.076 -20.680  0.00  0.00    -0.033 A 
ATOM     28  C   UNL     1      32.721 -16.704 -20.527  0.00  0.00    +0.005 A 
ATOM     29  C   UNL     1      33.635 -15.639 -20.362  0.00  0.00    +0.013 A 
BRANCH  18  19
ATOM     19  C   UNL     1      32.106 -19.167 -20.876  0.00  0.00    +0.119 C 
BRANCH  19  20
ATOM     20  N   UNL     1      30.817 -19.001 -20.141  0.00  0.00    -0.302 NA
ATOM     21  C   UNL     1      30.919 -19.472 -18.688  0.00  0.00    +0.066 C 
ATOM     22  C   UNL     1      29.568 -19.271 -17.927  0.00  0.00    -0.064 C 
ATOM     23  N   UNL     1      28.456 -20.020 -18.663  0.00  0.00    +0.379 N 
ATOM     24  C   UNL     1      27.195 -19.881 -17.919  0.00  0.00    -0.096 C 
ATOM     25  H   UNL     1      28.726 -21.102 -18.671  0.00  0.00    -0.082 HD
ATOM     26  C   UNL     1      28.349 -19.560 -20.109  0.00  0.00    -0.064 C 
ATOM     27  C   UNL     1      29.705 -19.737 -20.848  0.00  0.00    +0.066 C 
ENDBRANCH  19  20
ENDBRANCH  18  19
ENDBRANCH  14  15
ENDBRANCH  12  13
TORSDOF 6
ENDMDL
MODEL 3
REMARK VINA RESULT:      -7.8     15.986     18.665
REMARK  Name = C:\Users\Docking\Desktop\test protocol\1iep_ligandH.pdb
REMARK  8 active torsions:
REMARK  status: ('A' for Active; 'I' for Inactive)
REMARK    1  A    between atoms: _5  and  _11
REMARK    2  A    between atoms: _19  and  _21
REMARK    3  A    between atoms: _22  and  _66
REMARK    4  A    between atoms: _27  and  _30
REMARK    5  A    between atoms: _32  and  _33
REMARK    6  A    between atoms: _38  and  _43
REMARK    7  A    between atoms: _43  and  _46
REMARK    8  A    between atoms: _53  and  _55
REMARK                            x       y       z     vdW  Elec       q    Type
REMARK                         _______ _______ _______ _____ _____    ______ ____
ROOT
ATOM     10  C   UNL     1      51.265 -27.451 -22.164  0.00  0.00    +0.038 A 
ATOM     11  C   UNL     1      51.396 -27.332 -20.757  0.00  0.00    +0.047 A 
ATOM     12  C   UNL     1      51.598 -26.037 -20.126  0.00  0.00    +0.035 A 
ATOM     32  C   UNL     1      51.659 -24.882 -20.960  0.00  0.00    +0.024 A 
ATOM     33  C   UNL     1      51.529 -24.985 -22.392  0.00  0.00    +0.007 A 
ATOM     34  C   UNL     1      51.332 -26.260 -23.020  0.00  0.00    -0.029 A 
ATOM     35  C   UNL     1      51.206 -26.312 -24.560  0.00  0.00    +0.045 C 
ENDROOT
BRANCH  10   9
ATOM      4  C   UNL     1      52.715 -31.935 -23.076  0.00  0.00    +0.077 A 
ATOM      5  C   UNL     1      53.974 -31.724 -22.421  0.00  0.00    +0.048 A 
ATOM      6  C   UNL     1      54.212 -30.445 -21.868  0.00  0.00    +0.116 A 
ATOM      7  N   UNL     1      53.255 -29.459 -21.969  0.00  0.00    -0.223 NA
ATOM      8  C   UNL     1      52.052 -29.695 -22.609  0.00  0.00    +0.220 A 
ATOM      9  N   UNL     1      51.073 -28.720 -22.716  0.00  0.00    -0.283 N 
ATOM     36  H   UNL     1      50.202 -28.931 -23.202  0.00  0.00    +0.155 HD
ATOM     37  N   UNL     1      51.802 -30.907 -23.146  0.00  0.00    -0.214 NA
BRANCH   4   3
ATOM      1  C   UNL     1      52.150 -35.750 -23.730  0.00  0.00    +0.020 A 
ATOM      2  C   UNL     1      52.557 -34.526 -23.079  0.00  0.00    +0.013 A 
ATOM      3  C   UNL     1      52.315 -33.232 -23.706  0.00  0.00    +0.019 A 
ATOM     38  C   UNL     1      51.654 -33.212 -25.002  0.00  0.00    +0.120 A 
ATOM     39  N   UNL     1      51.275 -34.407 -25.606  0.00  0.00    -0.263 NA
ATOM     40  C   UNL     1      51.503 -35.658 -25.012  0.00  0.00    +0.111 A 
ENDBRANCH   4   3
ENDBRANCH  10   9
BRANCH  12  13
ATOM     13  N   UNL     1      51.746 -25.856 -18.704  0.00  0.00    -0.281 N 
ATOM     14  C   UNL     1      51.180 -24.873 -17.907  0.00  0.00    +0.248 C 
ATOM     30  O   UNL     1      50.629 -23.870 -18.334  0.00  0.00    -0.270 OA
ATOM     31  H   UNL     1      52.339 -26.534 -18.226  0.00  0.00    +0.155 HD
BRANCH  14  15
ATOM     15  C   UNL     1      51.249 -25.020 -16.421  0.00  0.00    +0.037 A 
ATOM     16  C   UNL     1      52.085 -26.048 -15.797  0.00  0.00    +0.013 A 
ATOM     17  C   UNL     1      52.120 -26.180 -14.362  0.00  0.00    +0.005 A 
ATOM     18  C   UNL     1      51.317 -25.278 -13.541  0.00  0.00    -0.033 A 
ATOM     28  C   UNL     1      50.500 -24.263 -14.186  0.00  0.00    +0.005 A 
ATOM     29  C   UNL     1      50.462 -24.132 -15.592  0.00  0.00    +0.013 A 
BRANCH  18  19
ATOM     19  C   UNL     1      51.276 -25.359 -12.003  0.00  0.00    +0.119 C 
BRANCH  19  20
ATOM     20  N   UNL     1      52.133 -24.399 -11.245  0.00  0.00    -0.302 NA
ATOM     21  C   UNL     1      53.623 -24.724 -11.386  0.00  0.00    +0.066 C 
ATOM     22  C   UNL     1      54.506 -23.697 -10.606  0.00  0.00    -0.064 C 
ATOM     23  N   UNL     1      54.091 -23.687  -9.133  0.00  0.00    +0.379 N 
ATOM     24  C   UNL     1      54.958 -22.765  -8.385  0.00  0.00    -0.096 C 
ATOM     25  H   UNL     1      54.258 -24.713  -8.728  0.00  0.00    -0.082 HD
ATOM     26  C   UNL     1      52.610 -23.368  -8.984  0.00  0.00    -0.064 C 
ATOM     27  C   UNL     1      51.743 -24.377  -9.788  0.00  0.00    +0.066 C 
ENDBRANCH  19  20
ENDBRANCH  18  19
ENDBRANCH  14  15
ENDBRANCH  12  13
TORSDOF 6
ENDMDL
MODEL 4
REMARK VINA RESULT:      -7.7      1.493      1.914
REMARK  Name = C:\Users\Docking\Desktop\test protocol\1iep_ligandH.pdb
REMARK  8 active torsions:
REMARK  status: ('A' for Active; 'I' for Inactive)
REMARK    1  A    between atoms: _5  and  _11
REMARK    2  A    between atoms: _19  and  _21
REMARK    3  A    between atoms: _22  and  _66
REMARK    4  A    between atoms: _27  and  _30
REMARK    5  A    between atoms: _32  and  _33
REMARK    6  A    between atoms: _38  and  _43
REMARK    7  A    between atoms: _43  and  _46
REMARK    8  A    between atoms: _53  and  _55
REMARK                            x       y       z     vdW  Elec       q    Type
REMARK                         _______ _______ _______ _____ _____    ______ ____
ROOT
ATOM     10  C   UNL     1      37.215 -13.624 -18.213  0.00  0.00    +0.038 A 
ATOM     11  C   UNL     1      38.414 -13.868 -17.496  0.00  0.00    +0.047 A 
ATOM     12  C   UNL     1      39.562 -12.983 -17.627  0.00  0.00    +0.035 A 
ATOM     32  C   UNL     1      39.452 -11.857 -18.494  0.00  0.00    +0.024 A 
ATOM     33  C   UNL     1      38.240 -11.595 -19.231  0.00  0.00    +0.007 A 
ATOM     34  C   UNL     1      37.106 -12.466 -19.108  0.00  0.00    -0.029 A 
ATOM     35  C   UNL     1      35.835 -12.140 -19.927  0.00  0.00    +0.045 C 
ENDROOT
BRANCH  10   9
ATOM      4  C   UNL     1      34.673 -17.482 -19.515  0.00  0.00    +0.077 A 
ATOM      5  C   UNL     1      35.536 -17.747 -20.630  0.00  0.00    +0.048 A 
ATOM      6  C   UNL     1      36.618 -16.863 -20.838  0.00  0.00    +0.116 A 
ATOM      7  N   UNL     1      36.814 -15.796 -19.988  0.00  0.00    -0.223 NA
ATOM      8  C   UNL     1      35.962 -15.568 -18.923  0.00  0.00    +0.220 A 
ATOM      9  N   UNL     1      36.144 -14.506 -18.050  0.00  0.00    -0.283 N 
ATOM     36  H   UNL     1      35.490 -14.368 -17.281  0.00  0.00    +0.155 HD
ATOM     37  N   UNL     1      34.920 -16.397 -18.704  0.00  0.00    -0.214 NA
BRANCH   4   3
ATOM      1  C   UNL     1      32.227 -20.512 -19.147  0.00  0.00    +0.020 A 
ATOM      2  C   UNL     1      33.392 -19.740 -19.511  0.00  0.00    +0.013 A 
ATOM      3  C   UNL     1      33.489 -18.328 -19.163  0.00  0.00    +0.019 A 
ATOM     38  C   UNL     1      32.381 -17.723 -18.439  0.00  0.00    +0.120 A 
ATOM     39  N   UNL     1      31.271 -18.491 -18.103  0.00  0.00    -0.263 NA
ATOM     40  C   UNL     1      31.166 -19.850 -18.434  0.00  0.00    +0.111 A 
ENDBRANCH   4   3
ENDBRANCH  10   9
BRANCH  12  13
ATOM     13  N   UNL     1      40.808 -13.184 -16.931  0.00  0.00    -0.281 N 
ATOM     14  C   UNL     1      41.025 -13.216 -15.563  0.00  0.00    +0.248 C 
ATOM     30  O   UNL     1      40.208 -12.861 -14.726  0.00  0.00    -0.270 OA
ATOM     31  H   UNL     1      41.631 -13.320 -17.518  0.00  0.00    +0.155 HD
BRANCH  14  15
ATOM     15  C   UNL     1      42.344 -13.698 -15.051  0.00  0.00    +0.037 A 
ATOM     16  C   UNL     1      43.486 -12.789 -14.920  0.00  0.00    +0.013 A 
ATOM     17  C   UNL     1      44.752 -13.284 -14.440  0.00  0.00    +0.005 A 
ATOM     18  C   UNL     1      44.882 -14.695 -14.086  0.00  0.00    -0.033 A 
ATOM     28  C   UNL     1      43.731 -15.573 -14.220  0.00  0.00    +0.005 A 
ATOM     29  C   UNL     1      42.489 -15.092 -14.691  0.00  0.00    +0.013 A 
BRANCH  18  19
ATOM     19  C   UNL     1      46.200 -15.314 -13.585  0.00  0.00    +0.119 C 
BRANCH  19  20
ATOM     20  N   UNL     1      46.102 -16.394 -12.558  0.00  0.00    -0.302 NA
ATOM     21  C   UNL     1      46.867 -16.041 -11.279  0.00  0.00    +0.066 C 
ATOM     22  C   UNL     1      46.735 -17.171 -10.207  0.00  0.00    -0.064 C 
ATOM     23  N   UNL     1      47.242 -18.489 -10.795  0.00  0.00    +0.379 N 
ATOM     24  C   UNL     1      47.173 -19.542  -9.771  0.00  0.00    -0.096 C 
ATOM     25  H   UNL     1      48.314 -18.349 -11.065  0.00  0.00    -0.082 HD
ATOM     26  C   UNL     1      46.489 -18.846 -12.069  0.00  0.00    -0.064 C 
ATOM     27  C   UNL     1      46.601 -17.704 -13.116  0.00  0.00    +0.066 C 
ENDBRANCH  19  20
ENDBRANCH  18  19
ENDBRANCH  14  15
ENDBRANCH  12  13
TORSDOF 6
ENDMDL
MODEL 5
REMARK VINA RESULT:      -7.4      3.680      5.891
REMARK  Name = C:\Users\Docking\Desktop\test protocol\1iep_ligandH.pdb
REMARK  8 active torsions:
REMARK  status: ('A' for Active; 'I' for Inactive)
REMARK    1  A    between atoms: _5  and  _11
REMARK    2  A    between atoms: _19  and  _21
REMARK    3  A    between atoms: _22  and  _66
REMARK    4  A    between atoms: _27  and  _30
REMARK    5  A    between atoms: _32  and  _33
REMARK    6  A    between atoms: _38  and  _43
REMARK    7  A    between atoms: _43  and  _46
REMARK    8  A    between atoms: _53  and  _55
REMARK                            x       y       z     vdW  Elec       q    Type
REMARK                         _______ _______ _______ _____ _____    ______ ____
ROOT
ATOM     10  C   UNL     1      35.822 -13.366 -20.352  0.00  0.00    +0.038 A 
ATOM     11  C   UNL     1      36.940 -12.860 -19.641  0.00  0.00    +0.047 A 
ATOM     12  C   UNL     1      37.830 -13.747 -18.907  0.00  0.00    +0.035 A 
ATOM     32  C   UNL     1      37.552 -15.145 -18.921  0.00  0.00    +0.024 A 
ATOM     33  C   UNL     1      36.420 -15.676 -19.638  0.00  0.00    +0.007 A 
ATOM     34  C   UNL     1      35.537 -14.806 -20.362  0.00  0.00    -0.029 A 
ATOM     35  C   UNL     1      34.335 -15.430 -21.107  0.00  0.00    +0.045 C 
ENDROOT
BRANCH  10   9
ATOM      4  C   UNL     1      32.059 -10.396 -20.585  0.00  0.00    +0.077 A 
ATOM      5  C   UNL     1      31.680 -10.675 -19.229  0.00  0.00    +0.048 A 
ATOM      6  C   UNL     1      32.476 -11.594 -18.509  0.00  0.00    +0.116 A 
ATOM      7  N   UNL     1      33.567 -12.184 -19.110  0.00  0.00    -0.223 NA
ATOM      8  C   UNL     1      33.904 -11.894 -20.419  0.00  0.00    +0.220 A 
ATOM      9  N   UNL     1      35.002 -12.469 -21.040  0.00  0.00    -0.283 N 
ATOM     36  H   UNL     1      35.213 -12.235 -22.010  0.00  0.00    +0.155 HD
ATOM     37  N   UNL     1      33.159 -11.021 -21.129  0.00  0.00    -0.214 NA
BRANCH   4   3
ATOM      1  C   UNL     1      31.038  -8.153 -23.622  0.00  0.00    +0.020 A 
ATOM      2  C   UNL     1      31.790  -9.076 -22.803  0.00  0.00    +0.013 A 
ATOM      3  C   UNL     1      31.320  -9.445 -21.474  0.00  0.00    +0.019 A 
ATOM     38  C   UNL     1      30.075  -8.860 -21.000  0.00  0.00    +0.120 A 
ATOM     39  N   UNL     1      29.373  -7.973 -21.810  0.00  0.00    -0.263 NA
ATOM     40  C   UNL     1      29.816  -7.608 -23.090  0.00  0.00    +0.111 A 
ENDBRANCH   4   3
ENDBRANCH  10   9
BRANCH  12  13
ATOM     13  N   UNL     1      38.975 -13.289 -18.160  0.00  0.00    -0.281 N 
ATOM     14  C   UNL     1      39.056 -13.024 -16.803  0.00  0.00    +0.248 C 
ATOM     30  O   UNL     1      38.092 -12.935 -16.057  0.00  0.00    -0.270 OA
ATOM     31  H   UNL     1      39.830 -13.144 -18.698  0.00  0.00    +0.155 HD
BRANCH  14  15
ATOM     15  C   UNL     1      40.402 -12.813 -16.188  0.00  0.00    +0.037 A 
ATOM     16  C   UNL     1      41.339 -11.826 -16.730  0.00  0.00    +0.013 A 
ATOM     17  C   UNL     1      42.638 -11.654 -16.128  0.00  0.00    +0.005 A 
ATOM     18  C   UNL     1      43.006 -12.472 -14.975  0.00  0.00    -0.033 A 
ATOM     28  C   UNL     1      42.055 -13.440 -14.454  0.00  0.00    +0.005 A 
ATOM     29  C   UNL     1      40.782 -13.611 -15.042  0.00  0.00    +0.013 A 
BRANCH  18  19
ATOM     19  C   UNL     1      44.378 -12.371 -14.282  0.00  0.00    +0.119 C 
BRANCH  19  20
ATOM     20  N   UNL     1      44.864 -13.578 -13.549  0.00  0.00    -0.302 NA
ATOM     21  C   UNL     1      45.821 -13.212 -12.411  0.00  0.00    +0.066 C 
ATOM     22  C   UNL     1      46.302 -14.484 -11.641  0.00  0.00    -0.064 C 
ATOM     23  N   UNL     1      46.971 -15.449 -12.622  0.00  0.00    +0.379 N 
ATOM     24  C   UNL     1      47.476 -16.620 -11.891  0.00  0.00    -0.096 C 
ATOM     25  H   UNL     1      47.848 -14.924 -13.067  0.00  0.00    -0.082 HD
ATOM     26  C   UNL     1      46.027 -15.816 -13.758  0.00  0.00    -0.064 C 
ATOM     27  C   UNL     1      45.532 -14.542 -14.499  0.00  0.00    +0.066 C 
ENDBRANCH  19  20
ENDBRANCH  18  19
ENDBRANCH  14  15
ENDBRANCH  12  13
TORSDOF 6
ENDMDL
