MODEL 1
REMARK VINA RESULT:      -8.2      0.000      0.000
REMARK  Name = C:\Users\Docking\Desktop\test protocol\1iep_ligandH.pdb
REMARK  8 active torsions:
REMARK  status: ('A' for Active; 'I' for Inactive)
REMARK    1  A    between atoms: _5  and  _11
REMARK    2  A    between atoms: _19  and  _21
REMARK    3  A    between atoms: _22  and  _66
REMARK    4  A    between atoms: _27  and  _30
REMARK    5  A    between atoms: _32  and  _33
REMARK    6  A    between atoms: _38  and  _43
REMARK    7  A    between atoms: _43  and  _46
REMARK    8  A    between atoms: _53  and  _55
REMARK                            x       y       z     vdW  Elec       q    Type
REMARK                         _______ _______ _______ _____ _____    ______ ____
ROOT
ATOM     10  C   UNL     1      23.083  30.530  18.865  0.00  0.00    +0.038 A 
ATOM     11  C   UNL     1      22.961  30.044  20.191  0.00  0.00    +0.047 A 
ATOM     12  C   UNL     1      23.951  30.371  21.206  0.00  0.00    +0.035 A 
ATOM     32  C   UNL     1      25.051  31.198  20.836  0.00  0.00    +0.024 A 
ATOM     33  C   UNL     1      25.191  31.700  19.492  0.00  0.00    +0.007 A 
ATOM     34  C   UNL     1      24.219  31.379  18.485  0.00  0.00    -0.029 A 
ATOM     35  C   UNL     1      24.423  31.939  17.059  0.00  0.00    +0.045 C 
ENDROOT
BRANCH  10   9
ATOM      4  C   UNL     1      20.914  27.367  15.979  0.00  0.00    +0.077 A 
ATOM      5  C   UNL     1      21.825  26.320  16.343  0.00  0.00    +0.048 A 
ATOM      6  C   UNL     1      22.842  26.639  17.271  0.00  0.00    +0.116 A 
ATOM      7  N   UNL     1      22.931  27.913  17.789  0.00  0.00    -0.223 NA
ATOM      8  C   UNL     1      22.037  28.899  17.416  0.00  0.00    +0.220 A 
ATOM      9  N   UNL     1      22.104  30.185  17.930  0.00  0.00    -0.283 N 
ATOM     36  H   UNL     1      21.430  30.886  17.624  0.00  0.00    +0.155 HD
ATOM     37  N   UNL     1      21.058  28.620  16.530  0.00  0.00    -0.214 NA
BRANCH   4   3
ATOM      1  C   UNL     1      17.352  27.340  14.362  0.00  0.00    +0.020 A 
ATOM      2  C   UNL     1      18.406  27.536  15.331  0.00  0.00    +0.013 A 
ATOM      3  C   UNL     1      19.784  27.185  15.013  0.00  0.00    +0.019 A 
ATOM     38  C   UNL     1      20.065  26.634  13.696  0.00  0.00    +0.120 A 
ATOM     39  N   UNL     1      19.029  26.456  12.784  0.00  0.00    -0.263 NA
ATOM     40  C   UNL     1      17.699  26.789  13.079  0.00  0.00    +0.111 A 
ENDBRANCH   4   3
ENDBRANCH  10   9
BRANCH  12  13
ATOM     13  N   UNL     1      23.884  29.899  22.568  0.00  0.00    -0.281 N 
ATOM     14  C   UNL     1      23.247  30.494  23.644  0.00  0.00    +0.248 C 
ATOM     30  O   UNL     1      22.814  31.637  23.646  0.00  0.00    -0.270 OA
ATOM     31  H   UNL     1      24.365  29.021  22.761  0.00  0.00    +0.155 HD
BRANCH  14  15
ATOM     15  C   UNL     1      23.078  29.710  24.906  0.00  0.00    +0.037 A 
ATOM     16  C   UNL     1      22.629  30.352  26.144  0.00  0.00    +0.013 A 
ATOM     17  C   UNL     1      22.490  29.576  27.351  0.00  0.00    +0.005 A 
ATOM     18  C   UNL     1      22.801  28.149  27.325  0.00  0.00    -0.033 A 
ATOM     28  C   UNL     1      23.239  27.537  26.081  0.00  0.00    +0.005 A 
ATOM     29  C   UNL     1      23.377  28.294  24.897  0.00  0.00    +0.013 A 
BRANCH  18  19
ATOM     19  C   UNL     1      22.702  27.248  28.571  0.00  0.00    +0.119 C 
BRANCH  19  20
ATOM     20  N   UNL     1      23.823  26.292  28.814  0.00  0.00    -0.302 NA
ATOM     21  C   UNL     1      23.445  25.209  29.828  0.00  0.00    +0.066 C 
ATOM     22  C   UNL     1      24.621  24.204  30.054  0.00  0.00    -0.064 C 
ATOM     23  N   UNL     1      25.861  24.971  30.517  0.00  0.00    +0.379 N 
ATOM     24  C   UNL     1      26.952  24.023  30.785  0.00  0.00    -0.096 C 
ATOM     25  H   UNL     1      25.607  25.476  31.478  0.00  0.00    -0.082 HD
ATOM     26  C   UNL     1      26.243  26.052  29.515  0.00  0.00    -0.064 C 
ATOM     27  C   UNL     1      25.057  27.027  29.276  0.00  0.00    +0.066 C 
ENDBRANCH  19  20
ENDBRANCH  18  19
ENDBRANCH  14  15
ENDBRANCH  12  13
TORSDOF 6
ENDMDL
MODEL 2
REMARK VINA RESULT:      -7.9     16.829     20.059
REMARK  Name = C:\Users\Docking\Desktop\test protocol\1iep_ligandH.pdb
REMARK  8 active torsions:
REMARK  status: ('A' for Active; 'I' for Inactive)
REMARK    1  A    between atoms: _5  and  _11
REMARK    2  A    between atoms: _19  and  _21
REMARK    3  A    between atoms: _22  and  _66
REMARK    4  A    between atoms: _27  and  _30
REMARK    5  A    between atoms: _32  and  _33
REMARK    6  A    between atoms: _38  and  _43
REMARK    7  A    between atoms: _43  and  _46
REMARK    8  A    between atoms: _53  and  _55
REMARK                            x       y       z     vdW  Elec       q    Type
REMARK                         _______ _______ _______ _____ _____    ______ ____
ROOT
ATOM     10  C   UNL     1      10.559  16.783  11.640  0.00  0.00    +0.038 A 
ATOM     11  C   UNL     1      10.586  18.197  11.749  0.00  0.00    +0.047 A 
ATOM     12  C   UNL     1       9.371  18.985  11.616  0.00  0.00    +0.035 A 
ATOM     32  C   UNL     1       8.144  18.301  11.377  0.00  0.00    +0.024 A 
ATOM     33  C   UNL     1       8.098  16.864  11.263  0.00  0.00    +0.007 A 
ATOM     34  C   UNL     1       9.294  16.081  11.390  0.00  0.00    -0.029 A 
ATOM     35  C   UNL     1       9.186  14.545  11.253  0.00  0.00    +0.045 C 
ENDROOT
BRANCH  10   9
ATOM      4  C   UNL     1      15.190  16.062  10.606  0.00  0.00    +0.077 A 
ATOM      5  C   UNL     1      15.221  17.172   9.699  0.00  0.00    +0.048 A 
ATOM      6  C   UNL     1      14.023  17.899   9.521  0.00  0.00    +0.116 A 
ATOM      7  N   UNL     1      12.884  17.533  10.205  0.00  0.00    -0.223 NA
ATOM      8  C   UNL     1      12.887  16.456  11.072  0.00  0.00    +0.220 A 
ATOM      9  N   UNL     1      11.755  16.075  11.776  0.00  0.00    -0.283 N 
ATOM     36  H   UNL     1      11.797  15.270  12.400  0.00  0.00    +0.155 HD
ATOM     37  N   UNL     1      14.019  15.745  11.258  0.00  0.00    -0.214 NA
BRANCH   4   3
ATOM      1  C   UNL     1      18.773  14.493  10.548  0.00  0.00    +0.020 A 
ATOM      2  C   UNL     1      17.657  15.353  10.224  0.00  0.00    +0.013 A 
ATOM      3  C   UNL     1      16.377  15.199  10.903  0.00  0.00    +0.019 A 
ATOM     38  C   UNL     1      16.257  14.158  11.913  0.00  0.00    +0.120 A 
ATOM     39  N   UNL     1      17.348  13.344  12.202  0.00  0.00    -0.263 NA
ATOM     40  C   UNL     1      18.585  13.482  11.555  0.00  0.00    +0.111 A 
ENDBRANCH   4   3
ENDBRANCH  10   9
BRANCH  12  13
ATOM     13  N   UNL     1       9.339  20.424  11.709  0.00  0.00    -0.281 N 
ATOM     14  C   UNL     1       9.350  21.344  10.673  0.00  0.00    +0.248 C 
ATOM     30  O   UNL     1       9.605  21.072   9.509  0.00  0.00    -0.270 OA
ATOM     31  H   UNL     1       9.304  20.811  12.652  0.00  0.00    +0.155 HD
BRANCH  14  15
ATOM     15  C   UNL     1       9.047  22.776  10.977  0.00  0.00    +0.037 A 
ATOM     16  C   UNL     1       8.406  23.644   9.985  0.00  0.00    +0.013 A 
ATOM     17  C   UNL     1       8.140  25.026  10.298  0.00  0.00    +0.005 A 
ATOM     18  C   UNL     1       8.515  25.548  11.610  0.00  0.00    -0.033 A 
ATOM     28  C   UNL     1       9.145  24.664  12.576  0.00  0.00    +0.005 A 
ATOM     29  C   UNL     1       9.408  23.309  12.273  0.00  0.00    +0.013 A 
BRANCH  18  19
ATOM     19  C   UNL     1       8.289  27.015  12.021  0.00  0.00    +0.119 C 
BRANCH  19  20
ATOM     20  N   UNL     1       9.322  28.009  11.605  0.00  0.00    -0.302 NA
ATOM     21  C   UNL     1       9.635  29.014  12.718  0.00  0.00    +0.066 C 
ATOM     22  C   UNL     1      10.734  30.032  12.273  0.00  0.00    -0.064 C 
ATOM     23  N   UNL     1      10.273  30.754  11.005  0.00  0.00    +0.379 N 
ATOM     24  C   UNL     1      11.279  31.754  10.617  0.00  0.00    -0.096 C 
ATOM     25  H   UNL     1       9.331  31.299  11.250  0.00  0.00    -0.082 HD
ATOM     26  C   UNL     1       9.958  29.763   9.894  0.00  0.00    -0.064 C 
ATOM     27  C   UNL     1       8.886  28.737  10.357  0.00  0.00    +0.066 C 
ENDBRANCH  19  20
ENDBRANCH  18  19
ENDBRANCH  14  15
ENDBRANCH  12  13
TORSDOF 6
ENDMDL
MODEL 3
REMARK VINA RESULT:      -7.8     16.637     19.796
REMARK  Name = C:\Users\Docking\Desktop\test protocol\1iep_ligandH.pdb
REMARK  8 active torsions:
REMARK  status: ('A' for Active; 'I' for Inactive)
REMARK    1  A    between atoms: _5  and  _11
REMARK    2  A    between atoms: _19  and  _21
REMARK    3  A    between atoms: _22  and  _66
REMARK    4  A    between atoms: _27  and  _30
REMARK    5  A    between atoms: _32  and  _33
REMARK    6  A    between atoms: _38  and  _43
REMARK    7  A    between atoms: _43  and  _46
REMARK    8  A    between atoms: _53  and  _55
REMARK                            x       y       z     vdW  Elec       q    Type
REMARK                         _______ _______ _______ _____ _____    ______ ____
ROOT
ATOM     10  C   UNL     1      10.074  17.316  11.521  0.00  0.00    +0.038 A 
ATOM     11  C   UNL     1      10.170  18.715  11.733  0.00  0.00    +0.047 A 
ATOM     12  C   UNL     1       9.007  19.578  11.602  0.00  0.00    +0.035 A 
ATOM     32  C   UNL     1       7.759  18.982  11.257  0.00  0.00    +0.024 A 
ATOM     33  C   UNL     1       7.643  17.562  11.037  0.00  0.00    +0.007 A 
ATOM     34  C   UNL     1       8.788  16.706  11.162  0.00  0.00    -0.029 A 
ATOM     35  C   UNL     1       8.606  15.191  10.909  0.00  0.00    +0.045 C 
ENDROOT
BRANCH  10   9
ATOM      4  C   UNL     1      14.727  16.453  10.720  0.00  0.00    +0.077 A 
ATOM      5  C   UNL     1      14.874  17.645   9.937  0.00  0.00    +0.048 A 
ATOM      6  C   UNL     1      13.726  18.450   9.758  0.00  0.00    +0.116 A 
ATOM      7  N   UNL     1      12.526  18.080  10.325  0.00  0.00    -0.223 NA
ATOM      8  C   UNL     1      12.418  16.922  11.073  0.00  0.00    +0.220 A 
ATOM      9  N   UNL     1      11.223  16.535  11.660  0.00  0.00    -0.283 N 
ATOM     36  H   UNL     1      11.183  15.670  12.198  0.00  0.00    +0.155 HD
ATOM     37  N   UNL     1      13.499  16.136  11.258  0.00  0.00    -0.214 NA
BRANCH   4   3
ATOM      1  C   UNL     1      16.907  13.615  12.299  0.00  0.00    +0.020 A 
ATOM      2  C   UNL     1      15.797  14.511  12.070  0.00  0.00    +0.013 A 
ATOM      3  C   UNL     1      15.848  15.502  11.002  0.00  0.00    +0.019 A 
ATOM     38  C   UNL     1      17.046  15.560  10.177  0.00  0.00    +0.120 A 
ATOM     39  N   UNL     1      18.100  14.685  10.423  0.00  0.00    -0.263 NA
ATOM     40  C   UNL     1      18.063  13.729  11.449  0.00  0.00    +0.111 A 
ENDBRANCH   4   3
ENDBRANCH  10   9
BRANCH  12  13
ATOM     13  N   UNL     1       9.046  21.006  11.797  0.00  0.00    -0.281 N 
ATOM     14  C   UNL     1       9.404  21.982  10.881  0.00  0.00    +0.248 C 
ATOM     30  O   UNL     1       9.953  21.758   9.812  0.00  0.00    -0.270 OA
ATOM     31  H   UNL     1       8.777  21.339  12.723  0.00  0.00    +0.155 HD
BRANCH  14  15
ATOM     15  C   UNL     1       9.124  23.414  11.204  0.00  0.00    +0.037 A 
ATOM     16  C   UNL     1       9.381  23.955  12.541  0.00  0.00    +0.013 A 
ATOM     17  C   UNL     1       9.087  25.336  12.831  0.00  0.00    +0.005 A 
ATOM     18  C   UNL     1       8.533  26.186  11.780  0.00  0.00    -0.033 A 
ATOM     28  C   UNL     1       8.292  25.625  10.461  0.00  0.00    +0.005 A 
ATOM     29  C   UNL     1       8.579  24.271  10.173  0.00  0.00    +0.013 A 
BRANCH  18  19
ATOM     19  C   UNL     1       8.168  27.666  12.006  0.00  0.00    +0.119 C 
BRANCH  19  20
ATOM     20  N   UNL     1       9.291  28.650  12.029  0.00  0.00    -0.302 NA
ATOM     21  C   UNL     1       9.151  29.654  13.177  0.00  0.00    +0.066 C 
ATOM     22  C   UNL     1      10.345  30.663  13.199  0.00  0.00    -0.064 C 
ATOM     23  N   UNL     1      10.424  31.386  11.853  0.00  0.00    +0.379 N 
ATOM     24  C   UNL     1      11.510  32.377  11.891  0.00  0.00    -0.096 C 
ATOM     25  H   UNL     1       9.466  31.939  11.710  0.00  0.00    -0.082 HD
ATOM     26  C   UNL     1      10.560  30.395  10.706  0.00  0.00    -0.064 C 
ATOM     27  C   UNL     1       9.384  29.379  10.711  0.00  0.00    +0.066 C 
ENDBRANCH  19  20
ENDBRANCH  18  19
ENDBRANCH  14  15
ENDBRANCH  12  13
TORSDOF 6
ENDMDL
MODEL 4
REMARK VINA RESULT:      -7.7      1.544      2.213
REMARK  Name = C:\Users\Docking\Desktop\test protocol\1iep_ligandH.pdb
REMARK  8 active torsions:
REMARK  status: ('A' for Active; 'I' for Inactive)
REMARK    1  A    between atoms: _5  and  _11
REMARK    2  A    between atoms: _19  and  _21
REMARK    3  A    between atoms: _22  and  _66
REMARK    4  A    between atoms: _27  and  _30
REMARK    5  A    between atoms: _32  and  _33
REMARK    6  A    between atoms: _38  and  _43
REMARK    7  A    between atoms: _43  and  _46
REMARK    8  A    between atoms: _53  and  _55
REMARK                            x       y       z     vdW  Elec       q    Type
REMARK                         _______ _______ _______ _____ _____    ______ ____
ROOT
ATOM     10  C   UNL     1      23.427  31.113  20.791  0.00  0.00    +0.038 A 
ATOM     11  C   UNL     1      23.227  30.413  22.007  0.00  0.00    +0.047 A 
ATOM     12  C   UNL     1      24.073  30.658  23.165  0.00  0.00    +0.035 A 
ATOM     32  C   UNL     1      25.113  31.626  23.049  0.00  0.00    +0.024 A 
ATOM     33  C   UNL     1      25.331  32.346  21.820  0.00  0.00    +0.007 A 
ATOM     34  C   UNL     1      24.501  32.107  20.674  0.00  0.00    -0.029 A 
ATOM     35  C   UNL     1      24.785  32.904  19.379  0.00  0.00    +0.045 C 
ENDROOT
BRANCH  10   9
ATOM      4  C   UNL     1      22.077  28.421  17.054  0.00  0.00    +0.077 A 
ATOM      5  C   UNL     1      23.157  27.498  17.253  0.00  0.00    +0.048 A 
ATOM      6  C   UNL     1      24.042  27.756  18.324  0.00  0.00    +0.116 A 
ATOM      7  N   UNL     1      23.851  28.858  19.129  0.00  0.00    -0.223 NA
ATOM      8  C   UNL     1      22.800  29.729  18.909  0.00  0.00    +0.220 A 
ATOM      9  N   UNL     1      22.585  30.839  19.711  0.00  0.00    -0.283 N 
ATOM     36  H   UNL     1      21.802  31.461  19.511  0.00  0.00    +0.155 HD
ATOM     37  N   UNL     1      21.942  29.505  17.891  0.00  0.00    -0.214 NA
BRANCH   4   3
ATOM      1  C   UNL     1      18.862  27.438  15.055  0.00  0.00    +0.020 A 
ATOM      2  C   UNL     1      19.814  27.542  16.137  0.00  0.00    +0.013 A 
ATOM      3  C   UNL     1      21.057  28.282  15.966  0.00  0.00    +0.019 A 
ATOM     38  C   UNL     1      21.309  28.913  14.679  0.00  0.00    +0.120 A 
ATOM     39  N   UNL     1      20.374  28.795  13.655  0.00  0.00    -0.263 NA
ATOM     40  C   UNL     1      19.175  28.083  13.807  0.00  0.00    +0.111 A 
ENDBRANCH   4   3
ENDBRANCH  10   9
BRANCH  12  13
ATOM     13  N   UNL     1      23.922  29.971  24.424  0.00  0.00    -0.281 N 
ATOM     14  C   UNL     1      22.880  30.074  25.331  0.00  0.00    +0.248 C 
ATOM     30  O   UNL     1      22.018  30.939  25.297  0.00  0.00    -0.270 OA
ATOM     31  H   UNL     1      24.675  29.331  24.677  0.00  0.00    +0.155 HD
BRANCH  14  15
ATOM     15  C   UNL     1      22.792  29.082  26.446  0.00  0.00    +0.037 A 
ATOM     16  C   UNL     1      23.353  27.736  26.311  0.00  0.00    +0.013 A 
ATOM     17  C   UNL     1      23.240  26.793  27.395  0.00  0.00    +0.005 A 
ATOM     18  C   UNL     1      22.562  27.194  28.625  0.00  0.00    -0.033 A 
ATOM     28  C   UNL     1      22.019  28.538  28.734  0.00  0.00    +0.005 A 
ATOM     29  C   UNL     1      22.128  29.465  27.673  0.00  0.00    +0.013 A 
BRANCH  18  19
ATOM     19  C   UNL     1      22.376  26.247  29.825  0.00  0.00    +0.119 C 
BRANCH  19  20
ATOM     20  N   UNL     1      23.242  25.032  29.877  0.00  0.00    -0.302 NA
ATOM     21  C   UNL     1      22.487  23.810  30.410  0.00  0.00    +0.066 C 
ATOM     22  C   UNL     1      23.402  22.543  30.437  0.00  0.00    -0.064 C 
ATOM     23  N   UNL     1      24.640  22.828  31.289  0.00  0.00    +0.379 N 
ATOM     24  C   UNL     1      25.473  21.620  31.364  0.00  0.00    -0.096 C 
ATOM     25  H   UNL     1      24.291  23.064  32.322  0.00  0.00    -0.082 HD
ATOM     26  C   UNL     1      25.395  24.043  30.769  0.00  0.00    -0.064 C 
ATOM     27  C   UNL     1      24.468  25.290  30.718  0.00  0.00    +0.066 C 
ENDBRANCH  19  20
ENDBRANCH  18  19
ENDBRANCH  14  15
ENDBRANCH  12  13
TORSDOF 6
ENDMDL
MODEL 5
REMARK VINA RESULT:      -7.6     17.305     20.107
REMARK  Name = C:\Users\Docking\Desktop\test protocol\1iep_ligandH.pdb
REMARK  8 active torsions:
REMARK  status: ('A' for Active; 'I' for Inactive)
REMARK    1  A    between atoms: _5  and  _11
REMARK    2  A    between atoms: _19  and  _21
REMARK    3  A    between atoms: _22  and  _66
REMARK    4  A    between atoms: _27  and  _30
REMARK    5  A    between atoms: _32  and  _33
REMARK    6  A    between atoms: _38  and  _43
REMARK    7  A    between atoms: _43  and  _46
REMARK    8  A    between atoms: _53  and  _55
REMARK                            x       y       z     vdW  Elec       q    Type
REMARK                         _______ _______ _______ _____ _____    ______ ____
ROOT
ATOM     10  C   UNL     1      10.349  16.898  11.587  0.00  0.00    +0.038 A 
ATOM     11  C   UNL     1      10.390  18.311  11.704  0.00  0.00    +0.047 A 
ATOM     12  C   UNL     1       9.182  19.112  11.579  0.00  0.00    +0.035 A 
ATOM     32  C   UNL     1       7.948  18.440  11.337  0.00  0.00    +0.024 A 
ATOM     33  C   UNL     1       7.889  17.005  11.215  0.00  0.00    +0.007 A 
ATOM     34  C   UNL     1       9.078  16.210  11.335  0.00  0.00    -0.029 A 
ATOM     35  C   UNL     1       8.956  14.675  11.188  0.00  0.00    +0.045 C 
ENDROOT
BRANCH  10   9
ATOM      4  C   UNL     1      15.003  16.212  10.635  0.00  0.00    +0.077 A 
ATOM      5  C   UNL     1      15.062  17.369   9.789  0.00  0.00    +0.048 A 
ATOM      6  C   UNL     1      13.871  18.109   9.619  0.00  0.00    +0.116 A 
ATOM      7  N   UNL     1      12.713  17.713  10.253  0.00  0.00    -0.223 NA
ATOM      8  C   UNL     1      12.691  16.591  11.061  0.00  0.00    +0.220 A 
ATOM      9  N   UNL     1      11.540  16.179  11.715  0.00  0.00    -0.283 N 
ATOM     36  H   UNL     1      11.563  15.342  12.297  0.00  0.00    +0.155 HD
ATOM     37  N   UNL     1      13.815  15.866  11.238  0.00  0.00    -0.214 NA
BRANCH   4   3
ATOM      1  C   UNL     1      17.330  13.471  12.176  0.00  0.00    +0.020 A 
ATOM      2  C   UNL     1      16.168  14.297  11.945  0.00  0.00    +0.013 A 
ATOM      3  C   UNL     1      16.180  15.329  10.916  0.00  0.00    +0.019 A 
ATOM     38  C   UNL     1      17.393  15.499  10.130  0.00  0.00    +0.120 A 
ATOM     39  N   UNL     1      18.497  14.690  10.376  0.00  0.00    -0.263 NA
ATOM     40  C   UNL     1      18.498  13.695  11.365  0.00  0.00    +0.111 A 
ENDBRANCH   4   3
ENDBRANCH  10   9
BRANCH  12  13
ATOM     13  N   UNL     1       9.163  20.550  11.680  0.00  0.00    -0.281 N 
ATOM     14  C   UNL     1       8.294  21.341  12.414  0.00  0.00    +0.248 C 
ATOM     30  O   UNL     1       7.261  20.938  12.929  0.00  0.00    -0.270 OA
ATOM     31  H   UNL     1       9.877  21.045  11.146  0.00  0.00    +0.155 HD
BRANCH  14  15
ATOM     15  C   UNL     1       8.610  22.791  12.589  0.00  0.00    +0.037 A 
ATOM     16  C   UNL     1       8.562  23.425  13.909  0.00  0.00    +0.013 A 
ATOM     17  C   UNL     1       8.855  24.830  14.047  0.00  0.00    +0.005 A 
ATOM     18  C   UNL     1       9.201  25.610  12.861  0.00  0.00    -0.033 A 
ATOM     28  C   UNL     1       9.246  24.954  11.565  0.00  0.00    +0.005 A 
ATOM     29  C   UNL     1       8.958  23.578  11.425  0.00  0.00    +0.013 A 
BRANCH  18  19
ATOM     19  C   UNL     1       9.508  27.118  12.912  0.00  0.00    +0.119 C 
BRANCH  19  20
ATOM     20  N   UNL     1       8.669  28.016  12.063  0.00  0.00    -0.302 NA
ATOM     21  C   UNL     1       9.327  29.381  11.847  0.00  0.00    +0.066 C 
ATOM     22  C   UNL     1       8.447  30.299  10.937  0.00  0.00    -0.064 C 
ATOM     23  N   UNL     1       7.062  30.459  11.567  0.00  0.00    +0.379 N 
ATOM     24  C   UNL     1       6.251  31.368  10.744  0.00  0.00    -0.096 C 
ATOM     25  H   UNL     1       7.197  30.936  12.565  0.00  0.00    -0.082 HD
ATOM     26  C   UNL     1       6.402  29.105  11.788  0.00  0.00    -0.064 C 
ATOM     27  C   UNL     1       7.298  28.190  12.668  0.00  0.00    +0.066 C 
ENDBRANCH  19  20
ENDBRANCH  18  19
ENDBRANCH  14  15
ENDBRANCH  12  13
TORSDOF 6
ENDMDL
