MODEL 1
REMARK VINA RESULT:      -8.1      0.000      0.000
REMARK  Name = C:\Users\Docking\Desktop\test protocol\1iep_ligandH.pdb
REMARK  8 active torsions:
REMARK  status: ('A' for Active; 'I' for Inactive)
REMARK    1  A    between atoms: _5  and  _11
REMARK    2  A    between atoms: _19  and  _21
REMARK    3  A    between atoms: _22  and  _66
REMARK    4  A    between atoms: _27  and  _30
REMARK    5  A    between atoms: _32  and  _33
REMARK    6  A    between atoms: _38  and  _43
REMARK    7  A    between atoms: _43  and  _46
REMARK    8  A    between atoms: _53  and  _55
REMARK                            x       y       z     vdW  Elec       q    Type
REMARK                         _______ _______ _______ _____ _____    ______ ____
ROOT
ATOM     10  C   UNL     1      24.823  35.935 -23.712  0.00  0.00    +0.038 A 
ATOM     11  C   UNL     1      24.771  37.315 -24.033  0.00  0.00    +0.047 A 
ATOM     12  C   UNL     1      23.508  38.038 -24.045  0.00  0.00    +0.035 A 
ATOM     32  C   UNL     1      22.318  37.323 -23.722  0.00  0.00    +0.024 A 
ATOM     33  C   UNL     1      22.353  35.920 -23.395  0.00  0.00    +0.007 A 
ATOM     34  C   UNL     1      23.595  35.201 -23.384  0.00  0.00    -0.029 A 
ATOM     35  C   UNL     1      23.572  33.696 -23.032  0.00  0.00    +0.045 C 
ENDROOT
BRANCH  10   9
ATOM      4  C   UNL     1      28.357  33.569 -25.938  0.00  0.00    +0.077 A 
ATOM      5  C   UNL     1      27.663  33.595 -27.194  0.00  0.00    +0.048 A 
ATOM      6  C   UNL     1      26.396  34.220 -27.223  0.00  0.00    +0.116 A 
ATOM      7  N   UNL     1      25.872  34.775 -26.075  0.00  0.00    -0.223 NA
ATOM      8  C   UNL     1      26.567  34.732 -24.880  0.00  0.00    +0.220 A 
ATOM      9  N   UNL     1      26.062  35.291 -23.716  0.00  0.00    -0.283 N 
ATOM     36  H   UNL     1      26.602  35.232 -22.853  0.00  0.00    +0.155 HD
ATOM     37  N   UNL     1      27.778  34.139 -24.826  0.00  0.00    -0.214 NA
BRANCH   4   3
ATOM      1  C   UNL     1      32.187  32.815 -26.181  0.00  0.00    +0.020 A 
ATOM      2  C   UNL     1      30.909  33.452 -26.398  0.00  0.00    +0.013 A 
ATOM      3  C   UNL     1      29.705  32.948 -25.748  0.00  0.00    +0.019 A 
ATOM     38  C   UNL     1      29.832  31.790 -24.876  0.00  0.00    +0.120 A 
ATOM     39  N   UNL     1      31.076  31.197 -24.687  0.00  0.00    -0.263 NA
ATOM     40  C   UNL     1      32.240  31.672 -25.309  0.00  0.00    +0.111 A 
ENDBRANCH   4   3
ENDBRANCH  10   9
BRANCH  12  13
ATOM     13  N   UNL     1      23.392  39.438 -24.371  0.00  0.00    -0.281 N 
ATOM     14  C   UNL     1      22.994  40.003 -25.572  0.00  0.00    +0.248 C 
ATOM     30  O   UNL     1      22.882  39.387 -26.621  0.00  0.00    -0.270 OA
ATOM     31  H   UNL     1      23.632  40.092 -23.626  0.00  0.00    +0.155 HD
BRANCH  14  15
ATOM     15  C   UNL     1      22.692  41.465 -25.616  0.00  0.00    +0.037 A 
ATOM     16  C   UNL     1      23.056  42.282 -26.777  0.00  0.00    +0.013 A 
ATOM     17  C   UNL     1      22.767  43.694 -26.787  0.00  0.00    +0.005 A 
ATOM     18  C   UNL     1      22.109  44.299 -25.632  0.00  0.00    -0.033 A 
ATOM     28  C   UNL     1      21.755  43.465 -24.496  0.00  0.00    +0.005 A 
ATOM     29  C   UNL     1      22.037  42.080 -24.482  0.00  0.00    +0.013 A 
BRANCH  18  19
ATOM     19  C   UNL     1      21.783  45.802 -25.547  0.00  0.00    +0.119 C 
BRANCH  19  20
ATOM     20  N   UNL     1      22.640  46.639 -24.656  0.00  0.00    -0.302 NA
ATOM     21  C   UNL     1      24.114  46.228 -24.726  0.00  0.00    +0.066 C 
ATOM     22  C   UNL     1      25.000  47.129 -23.805  0.00  0.00    -0.064 C 
ATOM     23  N   UNL     1      24.483  47.049 -22.368  0.00  0.00    +0.379 N 
ATOM     24  C   UNL     1      25.349  47.849 -21.490  0.00  0.00    -0.096 C 
ATOM     25  H   UNL     1      24.558  45.986 -22.041  0.00  0.00    -0.082 HD
ATOM     26  C   UNL     1      23.018  47.453 -22.290  0.00  0.00    -0.064 C 
ATOM     27  C   UNL     1      22.150  46.571 -23.231  0.00  0.00    +0.066 C 
ENDBRANCH  19  20
ENDBRANCH  18  19
ENDBRANCH  14  15
ENDBRANCH  12  13
TORSDOF 6
ENDMDL
MODEL 2
REMARK VINA RESULT:      -7.8      3.557      5.542
REMARK  Name = C:\Users\Docking\Desktop\test protocol\1iep_ligandH.pdb
REMARK  8 active torsions:
REMARK  status: ('A' for Active; 'I' for Inactive)
REMARK    1  A    between atoms: _5  and  _11
REMARK    2  A    between atoms: _19  and  _21
REMARK    3  A    between atoms: _22  and  _66
REMARK    4  A    between atoms: _27  and  _30
REMARK    5  A    between atoms: _32  and  _33
REMARK    6  A    between atoms: _38  and  _43
REMARK    7  A    between atoms: _43  and  _46
REMARK    8  A    between atoms: _53  and  _55
REMARK                            x       y       z     vdW  Elec       q    Type
REMARK                         _______ _______ _______ _____ _____    ______ ____
ROOT
ATOM     10  C   UNL     1      25.870  31.659 -24.738  0.00  0.00    +0.038 A 
ATOM     11  C   UNL     1      25.113  32.829 -24.474  0.00  0.00    +0.047 A 
ATOM     12  C   UNL     1      24.691  33.711 -25.551  0.00  0.00    +0.035 A 
ATOM     32  C   UNL     1      25.055  33.369 -26.886  0.00  0.00    +0.024 A 
ATOM     33  C   UNL     1      25.825  32.184 -27.172  0.00  0.00    +0.007 A 
ATOM     34  C   UNL     1      26.247  31.312 -26.114  0.00  0.00    -0.029 A 
ATOM     35  C   UNL     1      27.076  30.059 -26.478  0.00  0.00    +0.045 C 
ENDROOT
BRANCH  10   9
ATOM      4  C   UNL     1      29.040  30.217 -21.435  0.00  0.00    +0.077 A 
ATOM      5  C   UNL     1      30.035  31.139 -21.902  0.00  0.00    +0.048 A 
ATOM      6  C   UNL     1      29.694  31.961 -23.000  0.00  0.00    +0.116 A 
ATOM      7  N   UNL     1      28.448  31.861 -23.578  0.00  0.00    -0.223 NA
ATOM      8  C   UNL     1      27.512  30.960 -23.104  0.00  0.00    +0.220 A 
ATOM      9  N   UNL     1      26.249  30.848 -23.666  0.00  0.00    -0.283 N 
ATOM     36  H   UNL     1      25.589  30.167 -23.292  0.00  0.00    +0.155 HD
ATOM     37  N   UNL     1      27.814  30.163 -22.059  0.00  0.00    -0.214 NA
BRANCH   4   3
ATOM      1  C   UNL     1      30.132  28.730 -17.986  0.00  0.00    +0.020 A 
ATOM      2  C   UNL     1      29.958  29.670 -19.069  0.00  0.00    +0.013 A 
ATOM      3  C   UNL     1      29.249  29.284 -20.283  0.00  0.00    +0.019 A 
ATOM     38  C   UNL     1      28.724  27.929 -20.369  0.00  0.00    +0.120 A 
ATOM     39  N   UNL     1      28.908  27.046 -19.310  0.00  0.00    -0.263 NA
ATOM     40  C   UNL     1      29.590  27.405 -18.138  0.00  0.00    +0.111 A 
ENDBRANCH   4   3
ENDBRANCH  10   9
BRANCH  12  13
ATOM     13  N   UNL     1      23.928  34.917 -25.343  0.00  0.00    -0.281 N 
ATOM     14  C   UNL     1      24.296  36.045 -24.628  0.00  0.00    +0.248 C 
ATOM     30  O   UNL     1      25.257  36.103 -23.876  0.00  0.00    -0.270 OA
ATOM     31  H   UNL     1      23.004  34.942 -25.776  0.00  0.00    +0.155 HD
BRANCH  14  15
ATOM     15  C   UNL     1      23.468  37.283 -24.756  0.00  0.00    +0.037 A 
ATOM     16  C   UNL     1      23.669  38.220 -25.864  0.00  0.00    +0.013 A 
ATOM     17  C   UNL     1      22.868  39.415 -25.954  0.00  0.00    +0.005 A 
ATOM     18  C   UNL     1      21.857  39.679 -24.933  0.00  0.00    -0.033 A 
ATOM     28  C   UNL     1      21.676  38.729 -23.847  0.00  0.00    +0.005 A 
ATOM     29  C   UNL     1      22.459  37.558 -23.755  0.00  0.00    +0.013 A 
BRANCH  18  19
ATOM     19  C   UNL     1      20.972  40.939 -24.938  0.00  0.00    +0.119 C 
BRANCH  19  20
ATOM     20  N   UNL     1      21.593  42.209 -25.419  0.00  0.00    -0.302 NA
ATOM     21  C   UNL     1      21.869  43.185 -24.271  0.00  0.00    +0.066 C 
ATOM     22  C   UNL     1      22.539  44.499 -24.789  0.00  0.00    -0.064 C 
ATOM     23  N   UNL     1      21.640  45.145 -25.845  0.00  0.00    +0.379 N 
ATOM     24  C   UNL     1      22.240  46.410 -26.292  0.00  0.00    -0.096 C 
ATOM     25  H   UNL     1      20.667  45.385 -25.358  0.00  0.00    -0.082 HD
ATOM     26  C   UNL     1      21.359  44.180 -26.989  0.00  0.00    -0.064 C 
ATOM     27  C   UNL     1      20.720  42.866 -26.460  0.00  0.00    +0.066 C 
ENDBRANCH  19  20
ENDBRANCH  18  19
ENDBRANCH  14  15
ENDBRANCH  12  13
TORSDOF 6
ENDMDL
MODEL 3
REMARK VINA RESULT:      -7.8     20.178     21.813
REMARK  Name = C:\Users\Docking\Desktop\test protocol\1iep_ligandH.pdb
REMARK  8 active torsions:
REMARK  status: ('A' for Active; 'I' for Inactive)
REMARK    1  A    between atoms: _5  and  _11
REMARK    2  A    between atoms: _19  and  _21
REMARK    3  A    between atoms: _22  and  _66
REMARK    4  A    between atoms: _27  and  _30
REMARK    5  A    between atoms: _32  and  _33
REMARK    6  A    between atoms: _38  and  _43
REMARK    7  A    between atoms: _43  and  _46
REMARK    8  A    between atoms: _53  and  _55
REMARK                            x       y       z     vdW  Elec       q    Type
REMARK                         _______ _______ _______ _____ _____    ______ ____
ROOT
ATOM     10  C   UNL     1      19.746  26.399  -5.139  0.00  0.00    +0.038 A 
ATOM     11  C   UNL     1      19.385  27.753  -5.353  0.00  0.00    +0.047 A 
ATOM     12  C   UNL     1      19.227  28.675  -4.239  0.00  0.00    +0.035 A 
ATOM     32  C   UNL     1      19.447  28.183  -2.919  0.00  0.00    +0.024 A 
ATOM     33  C   UNL     1      19.813  26.809  -2.683  0.00  0.00    +0.007 A 
ATOM     34  C   UNL     1      19.968  25.895  -3.778  0.00  0.00    -0.029 A 
ATOM     35  C   UNL     1      20.355  24.430  -3.466  0.00  0.00    +0.045 C 
ENDROOT
BRANCH  10   9
ATOM      4  C   UNL     1      22.305  24.536  -8.747  0.00  0.00    +0.077 A 
ATOM      5  C   UNL     1      23.456  25.325  -8.416  0.00  0.00    +0.048 A 
ATOM      6  C   UNL     1      23.346  26.203  -7.315  0.00  0.00    +0.116 A 
ATOM      7  N   UNL     1      22.168  26.278  -6.604  0.00  0.00    -0.223 NA
ATOM      8  C   UNL     1      21.076  25.504  -6.951  0.00  0.00    +0.220 A 
ATOM      9  N   UNL     1      19.883  25.558  -6.246  0.00  0.00    -0.283 N 
ATOM     36  H   UNL     1      19.098  24.976  -6.538  0.00  0.00    +0.155 HD
ATOM     37  N   UNL     1      21.155  24.659  -8.000  0.00  0.00    -0.214 NA
BRANCH   4   3
ATOM      1  C   UNL     1      21.134  22.466 -11.853  0.00  0.00    +0.020 A 
ATOM      2  C   UNL     1      21.120  23.424 -10.771  0.00  0.00    +0.013 A 
ATOM      3  C   UNL     1      22.266  23.560  -9.882  0.00  0.00    +0.019 A 
ATOM     38  C   UNL     1      23.420  22.705 -10.116  0.00  0.00    +0.120 A 
ATOM     39  N   UNL     1      23.404  21.790 -11.164  0.00  0.00    -0.263 NA
ATOM     40  C   UNL     1      22.306  21.649 -12.025  0.00  0.00    +0.111 A 
ENDBRANCH   4   3
ENDBRANCH  10   9
BRANCH  12  13
ATOM     13  N   UNL     1      18.855  30.059  -4.394  0.00  0.00    -0.281 N 
ATOM     14  C   UNL     1      19.678  31.135  -4.685  0.00  0.00    +0.248 C 
ATOM     30  O   UNL     1      20.899  31.102  -4.646  0.00  0.00    -0.270 OA
ATOM     31  H   UNL     1      17.864  30.272  -4.274  0.00  0.00    +0.155 HD
BRANCH  14  15
ATOM     15  C   UNL     1      19.054  32.440  -5.061  0.00  0.00    +0.037 A 
ATOM     16  C   UNL     1      19.835  33.680  -5.076  0.00  0.00    +0.013 A 
ATOM     17  C   UNL     1      19.205  34.928  -5.425  0.00  0.00    +0.005 A 
ATOM     18  C   UNL     1      17.784  34.942  -5.764  0.00  0.00    -0.033 A 
ATOM     28  C   UNL     1      17.033  33.698  -5.746  0.00  0.00    +0.005 A 
ATOM     29  C   UNL     1      17.648  32.472  -5.403  0.00  0.00    +0.013 A 
BRANCH  18  19
ATOM     19  C   UNL     1      17.024  36.232  -6.128  0.00  0.00    +0.119 C 
BRANCH  19  20
ATOM     20  N   UNL     1      15.618  36.358  -5.639  0.00  0.00    -0.302 NA
ATOM     21  C   UNL     1      14.622  36.517  -6.791  0.00  0.00    +0.066 C 
ATOM     22  C   UNL     1      13.154  36.626  -6.263  0.00  0.00    -0.064 C 
ATOM     23  N   UNL     1      13.051  37.802  -5.291  0.00  0.00    +0.379 N 
ATOM     24  C   UNL     1      11.660  37.943  -4.837  0.00  0.00    -0.096 C 
ATOM     25  H   UNL     1      13.319  38.728  -5.851  0.00  0.00    -0.082 HD
ATOM     26  C   UNL     1      14.041  37.654  -4.144  0.00  0.00    -0.064 C 
ATOM     27  C   UNL     1      15.493  37.517  -4.681  0.00  0.00    +0.066 C 
ENDBRANCH  19  20
ENDBRANCH  18  19
ENDBRANCH  14  15
ENDBRANCH  12  13
TORSDOF 6
ENDMDL
MODEL 4
REMARK VINA RESULT:      -7.8     22.209     24.509
REMARK  Name = C:\Users\Docking\Desktop\test protocol\1iep_ligandH.pdb
REMARK  8 active torsions:
REMARK  status: ('A' for Active; 'I' for Inactive)
REMARK    1  A    between atoms: _5  and  _11
REMARK    2  A    between atoms: _19  and  _21
REMARK    3  A    between atoms: _22  and  _66
REMARK    4  A    between atoms: _27  and  _30
REMARK    5  A    between atoms: _32  and  _33
REMARK    6  A    between atoms: _38  and  _43
REMARK    7  A    between atoms: _43  and  _46
REMARK    8  A    between atoms: _53  and  _55
REMARK                            x       y       z     vdW  Elec       q    Type
REMARK                         _______ _______ _______ _____ _____    ______ ____
ROOT
ATOM     10  C   UNL     1      13.353  37.531  -4.583  0.00  0.00    +0.038 A 
ATOM     11  C   UNL     1      13.651  38.646  -3.759  0.00  0.00    +0.047 A 
ATOM     12  C   UNL     1      12.961  39.915  -3.932  0.00  0.00    +0.035 A 
ATOM     32  C   UNL     1      11.970  40.012  -4.952  0.00  0.00    +0.024 A 
ATOM     33  C   UNL     1      11.655  38.888  -5.798  0.00  0.00    +0.007 A 
ATOM     34  C   UNL     1      12.334  37.635  -5.635  0.00  0.00    -0.029 A 
ATOM     35  C   UNL     1      11.960  36.466  -6.575  0.00  0.00    +0.045 C 
ENDROOT
BRANCH  10   9
ATOM      4  C   UNL     1      17.138  34.659  -5.261  0.00  0.00    +0.077 A 
ATOM      5  C   UNL     1      17.777  35.607  -6.128  0.00  0.00    +0.048 A 
ATOM      6  C   UNL     1      17.095  36.819  -6.379  0.00  0.00    +0.116 A 
ATOM      7  N   UNL     1      15.866  37.054  -5.801  0.00  0.00    -0.223 NA
ATOM      8  C   UNL     1      15.277  36.117  -4.972  0.00  0.00    +0.220 A 
ATOM      9  N   UNL     1      14.046  36.336  -4.373  0.00  0.00    -0.283 N 
ATOM     36  H   UNL     1      13.642  35.617  -3.774  0.00  0.00    +0.155 HD
ATOM     37  N   UNL     1      15.908  34.952  -4.717  0.00  0.00    -0.214 NA
BRANCH   4   3
ATOM      1  C   UNL     1      19.219  31.348  -5.359  0.00  0.00    +0.020 A 
ATOM      2  C   UNL     1      18.671  32.624  -5.758  0.00  0.00    +0.013 A 
ATOM      3  C   UNL     1      17.735  33.335  -4.897  0.00  0.00    +0.019 A 
ATOM     38  C   UNL     1      17.370  32.722  -3.628  0.00  0.00    +0.120 A 
ATOM     39  N   UNL     1      17.912  31.492  -3.271  0.00  0.00    -0.263 NA
ATOM     40  C   UNL     1      18.813  30.798  -4.093  0.00  0.00    +0.111 A 
ENDBRANCH   4   3
ENDBRANCH  10   9
BRANCH  12  13
ATOM     13  N   UNL     1      13.228  41.084  -3.131  0.00  0.00    -0.281 N 
ATOM     14  C   UNL     1      12.632  41.452  -1.936  0.00  0.00    +0.248 C 
ATOM     30  O   UNL     1      11.623  40.936  -1.480  0.00  0.00    -0.270 OA
ATOM     31  H   UNL     1      13.943  41.718  -3.489  0.00  0.00    +0.155 HD
BRANCH  14  15
ATOM     15  C   UNL     1      13.237  42.562  -1.139  0.00  0.00    +0.037 A 
ATOM     16  C   UNL     1      12.498  43.800  -0.878  0.00  0.00    +0.013 A 
ATOM     17  C   UNL     1      13.112  44.862  -0.120  0.00  0.00    +0.005 A 
ATOM     18  C   UNL     1      14.473  44.690   0.382  0.00  0.00    -0.033 A 
ATOM     28  C   UNL     1      15.181  43.450   0.113  0.00  0.00    +0.005 A 
ATOM     29  C   UNL     1      14.583  42.407  -0.630  0.00  0.00    +0.013 A 
BRANCH  18  19
ATOM     19  C   UNL     1      15.213  45.779   1.181  0.00  0.00    +0.119 C 
BRANCH  19  20
ATOM     20  N   UNL     1      16.694  45.640   1.316  0.00  0.00    -0.302 NA
ATOM     21  C   UNL     1      17.206  46.209   2.642  0.00  0.00    +0.066 C 
ATOM     22  C   UNL     1      18.753  46.035   2.777  0.00  0.00    -0.064 C 
ATOM     23  N   UNL     1      19.445  46.714   1.594  0.00  0.00    +0.379 N 
ATOM     24  C   UNL     1      20.903  46.602   1.747  0.00  0.00    -0.096 C 
ATOM     25  H   UNL     1      19.183  47.797   1.625  0.00  0.00    -0.082 HD
ATOM     26  C   UNL     1      18.940  46.156   0.271  0.00  0.00    -0.064 C 
ATOM     27  C   UNL     1      17.397  46.307   0.160  0.00  0.00    +0.066 C 
ENDBRANCH  19  20
ENDBRANCH  18  19
ENDBRANCH  14  15
ENDBRANCH  12  13
TORSDOF 6
ENDMDL
MODEL 5
REMARK VINA RESULT:      -7.7     19.901     22.173
REMARK  Name = C:\Users\Docking\Desktop\test protocol\1iep_ligandH.pdb
REMARK  8 active torsions:
REMARK  status: ('A' for Active; 'I' for Inactive)
REMARK    1  A    between atoms: _5  and  _11
REMARK    2  A    between atoms: _19  and  _21
REMARK    3  A    between atoms: _22  and  _66
REMARK    4  A    between atoms: _27  and  _30
REMARK    5  A    between atoms: _32  and  _33
REMARK    6  A    between atoms: _38  and  _43
REMARK    7  A    between atoms: _43  and  _46
REMARK    8  A    between atoms: _53  and  _55
REMARK                            x       y       z     vdW  Elec       q    Type
REMARK                         _______ _______ _______ _____ _____    ______ ____
ROOT
ATOM     10  C   UNL     1      19.707  25.139  -5.670  0.00  0.00    +0.038 A 
ATOM     11  C   UNL     1      19.315  26.497  -5.549  0.00  0.00    +0.047 A 
ATOM     12  C   UNL     1      19.338  27.175  -4.263  0.00  0.00    +0.035 A 
ATOM     32  C   UNL     1      19.767  26.440  -3.119  0.00  0.00    +0.024 A 
ATOM     33  C   UNL     1      20.167  25.059  -3.223  0.00  0.00    +0.007 A 
ATOM     34  C   UNL     1      20.145  24.384  -4.490  0.00  0.00    -0.029 A 
ATOM     35  C   UNL     1      20.579  22.901  -4.541  0.00  0.00    +0.045 C 
ENDROOT
BRANCH  10   9
ATOM      4  C   UNL     1      21.715  23.974  -9.871  0.00  0.00    +0.077 A 
ATOM      5  C   UNL     1      22.940  24.644  -9.539  0.00  0.00    +0.048 A 
ATOM      6  C   UNL     1      23.009  25.282  -8.280  0.00  0.00    +0.116 A 
ATOM      7  N   UNL     1      21.929  25.246  -7.425  0.00  0.00    -0.223 NA
ATOM      8  C   UNL     1      20.762  24.593  -7.777  0.00  0.00    +0.220 A 
ATOM      9  N   UNL     1      19.666  24.537  -6.930  0.00  0.00    -0.283 N 
ATOM     36  H   UNL     1      18.821  24.052  -7.230  0.00  0.00    +0.155 HD
ATOM     37  N   UNL     1      20.670  23.977  -8.974  0.00  0.00    -0.214 NA
BRANCH   4   3
ATOM      1  C   UNL     1      20.001  22.162 -12.884  0.00  0.00    +0.020 A 
ATOM      2  C   UNL     1      20.165  22.858 -11.629  0.00  0.00    +0.013 A 
ATOM      3  C   UNL     1      21.489  23.251 -11.162  0.00  0.00    +0.019 A 
ATOM     38  C   UNL     1      22.635  22.924 -11.997  0.00  0.00    +0.120 A 
ATOM     39  N   UNL     1      22.446  22.251 -13.201  0.00  0.00    -0.263 NA
ATOM     40  C   UNL     1      21.178  21.866 -13.659  0.00  0.00    +0.111 A 
ENDBRANCH   4   3
ENDBRANCH  10   9
BRANCH  12  13
ATOM     13  N   UNL     1      18.944  28.550  -4.078  0.00  0.00    -0.281 N 
ATOM     14  C   UNL     1      19.564  29.687  -4.569  0.00  0.00    +0.248 C 
ATOM     30  O   UNL     1      20.680  29.705  -5.067  0.00  0.00    -0.270 OA
ATOM     31  H   UNL     1      18.106  28.703  -3.517  0.00  0.00    +0.155 HD
BRANCH  14  15
ATOM     15  C   UNL     1      18.848  30.995  -4.481  0.00  0.00    +0.037 A 
ATOM     16  C   UNL     1      18.953  31.993  -5.549  0.00  0.00    +0.013 A 
ATOM     17  C   UNL     1      18.265  33.254  -5.431  0.00  0.00    +0.005 A 
ATOM     18  C   UNL     1      17.464  33.524  -4.240  0.00  0.00    -0.033 A 
ATOM     28  C   UNL     1      17.372  32.515  -3.198  0.00  0.00    +0.005 A 
ATOM     29  C   UNL     1      18.046  31.278  -3.310  0.00  0.00    +0.013 A 
BRANCH  18  19
ATOM     19  C   UNL     1      16.713  34.851  -4.021  0.00  0.00    +0.119 C 
BRANCH  19  20
ATOM     20  N   UNL     1      15.454  35.061  -4.796  0.00  0.00    -0.302 NA
ATOM     21  C   UNL     1      14.834  33.738  -5.254  0.00  0.00    +0.066 C 
ATOM     22  C   UNL     1      13.506  33.975  -6.044  0.00  0.00    -0.064 C 
ATOM     23  N   UNL     1      13.784  34.885  -7.242  0.00  0.00    +0.379 N 
ATOM     24  C   UNL     1      12.550  35.063  -8.020  0.00  0.00    -0.096 C 
ATOM     25  H   UNL     1      14.525  34.368  -7.895  0.00  0.00    -0.082 HD
ATOM     26  C   UNL     1      14.404  36.202  -6.796  0.00  0.00    -0.064 C 
ATOM     27  C   UNL     1      15.707  35.954  -5.986  0.00  0.00    +0.066 C 
ENDBRANCH  19  20
ENDBRANCH  18  19
ENDBRANCH  14  15
ENDBRANCH  12  13
TORSDOF 6
ENDMDL
