MODEL 1
REMARK VINA RESULT:      -7.5      0.000      0.000
REMARK  Name = C:\Users\Docking\Desktop\test protocol\1iep_ligandH.pdb
REMARK  8 active torsions:
REMARK  status: ('A' for Active; 'I' for Inactive)
REMARK    1  A    between atoms: _5  and  _11
REMARK    2  A    between atoms: _19  and  _21
REMARK    3  A    between atoms: _22  and  _66
REMARK    4  A    between atoms: _27  and  _30
REMARK    5  A    between atoms: _32  and  _33
REMARK    6  A    between atoms: _38  and  _43
REMARK    7  A    between atoms: _43  and  _46
REMARK    8  A    between atoms: _53  and  _55
REMARK                            x       y       z     vdW  Elec       q    Type
REMARK                         _______ _______ _______ _____ _____    ______ ____
ROOT
ATOM     10  C   UNL     1      18.740  16.154   8.874  0.00  0.00    +0.038 A 
ATOM     11  C   UNL     1      19.417  16.972   7.932  0.00  0.00    +0.047 A 
ATOM     12  C   UNL     1      20.744  17.499   8.210  0.00  0.00    +0.035 A 
ATOM     32  C   UNL     1      21.354  17.171   9.456  0.00  0.00    +0.024 A 
ATOM     33  C   UNL     1      20.680  16.342  10.425  0.00  0.00    +0.007 A 
ATOM     34  C   UNL     1      19.370  15.821  10.157  0.00  0.00    -0.029 A 
ATOM     35  C   UNL     1      18.692  14.943  11.235  0.00  0.00    +0.045 C 
ENDROOT
BRANCH  10   9
ATOM      4  C   UNL     1      15.788  12.732   7.258  0.00  0.00    +0.077 A 
ATOM      5  C   UNL     1      16.875  11.832   7.001  0.00  0.00    +0.048 A 
ATOM      6  C   UNL     1      18.179  12.291   7.292  0.00  0.00    +0.116 A 
ATOM      7  N   UNL     1      18.370  13.557   7.802  0.00  0.00    -0.223 NA
ATOM      8  C   UNL     1      17.300  14.401   8.036  0.00  0.00    +0.220 A 
ATOM      9  N   UNL     1      17.467  15.675   8.555  0.00  0.00    -0.283 N 
ATOM     36  H   UNL     1      16.653  16.269   8.706  0.00  0.00    +0.155 HD
ATOM     37  N   UNL     1      16.044  13.987   7.765  0.00  0.00    -0.214 NA
BRANCH   4   3
ATOM      1  C   UNL     1      12.516  11.295   5.666  0.00  0.00    +0.020 A 
ATOM      2  C   UNL     1      13.915  11.596   5.865  0.00  0.00    +0.013 A 
ATOM      3  C   UNL     1      14.352  12.392   7.005  0.00  0.00    +0.019 A 
ATOM     38  C   UNL     1      13.340  12.871   7.934  0.00  0.00    +0.120 A 
ATOM     39  N   UNL     1      11.999  12.567   7.716  0.00  0.00    -0.263 NA
ATOM     40  C   UNL     1      11.567  11.803   6.622  0.00  0.00    +0.111 A 
ENDBRANCH   4   3
ENDBRANCH  10   9
BRANCH  12  13
ATOM     13  N   UNL     1      21.476  18.340   7.297  0.00  0.00    -0.281 N 
ATOM     14  C   UNL     1      21.856  18.056   5.995  0.00  0.00    +0.248 C 
ATOM     30  O   UNL     1      21.810  16.944   5.489  0.00  0.00    -0.270 OA
ATOM     31  H   UNL     1      21.747  19.257   7.652  0.00  0.00    +0.155 HD
BRANCH  14  15
ATOM     15  C   UNL     1      22.378  19.163   5.137  0.00  0.00    +0.037 A 
ATOM     16  C   UNL     1      21.889  19.359   3.770  0.00  0.00    +0.013 A 
ATOM     17  C   UNL     1      22.421  20.424   2.957  0.00  0.00    +0.005 A 
ATOM     18  C   UNL     1      23.448  21.303   3.512  0.00  0.00    -0.033 A 
ATOM     28  C   UNL     1      23.911  21.089   4.873  0.00  0.00    +0.005 A 
ATOM     29  C   UNL     1      23.393  20.045   5.672  0.00  0.00    +0.013 A 
BRANCH  18  19
ATOM     19  C   UNL     1      24.088  22.451   2.709  0.00  0.00    +0.119 C 
BRANCH  19  20
ATOM     20  N   UNL     1      23.164  23.399   2.017  0.00  0.00    -0.302 NA
ATOM     21  C   UNL     1      23.204  23.230   0.495  0.00  0.00    +0.066 C 
ATOM     22  C   UNL     1      22.215  24.213  -0.212  0.00  0.00    -0.064 C 
ATOM     23  N   UNL     1      22.559  25.650   0.183  0.00  0.00    +0.379 N 
ATOM     24  C   UNL     1      21.668  26.580  -0.526  0.00  0.00    -0.096 C 
ATOM     25  H   UNL     1      23.601  25.854  -0.158  0.00  0.00    -0.082 HD
ATOM     26  C   UNL     1      22.525  25.826   1.694  0.00  0.00    -0.064 C 
ATOM     27  C   UNL     1      23.489  24.824   2.389  0.00  0.00    +0.066 C 
ENDBRANCH  19  20
ENDBRANCH  18  19
ENDBRANCH  14  15
ENDBRANCH  12  13
TORSDOF 6
ENDMDL
MODEL 2
REMARK VINA RESULT:      -7.5     19.121     21.308
REMARK  Name = C:\Users\Docking\Desktop\test protocol\1iep_ligandH.pdb
REMARK  8 active torsions:
REMARK  status: ('A' for Active; 'I' for Inactive)
REMARK    1  A    between atoms: _5  and  _11
REMARK    2  A    between atoms: _19  and  _21
REMARK    3  A    between atoms: _22  and  _66
REMARK    4  A    between atoms: _27  and  _30
REMARK    5  A    between atoms: _32  and  _33
REMARK    6  A    between atoms: _38  and  _43
REMARK    7  A    between atoms: _43  and  _46
REMARK    8  A    between atoms: _53  and  _55
REMARK                            x       y       z     vdW  Elec       q    Type
REMARK                         _______ _______ _______ _____ _____    ______ ____
ROOT
ATOM     10  C   UNL     1      18.676  18.121 -12.437  0.00  0.00    +0.038 A 
ATOM     11  C   UNL     1      19.323  16.859 -12.405  0.00  0.00    +0.047 A 
ATOM     12  C   UNL     1      20.772  16.755 -12.463  0.00  0.00    +0.035 A 
ATOM     32  C   UNL     1      21.533  17.957 -12.552  0.00  0.00    +0.024 A 
ATOM     33  C   UNL     1      20.892  19.248 -12.588  0.00  0.00    +0.007 A 
ATOM     34  C   UNL     1      19.462  19.357 -12.532  0.00  0.00    -0.029 A 
ATOM     35  C   UNL     1      18.829  20.767 -12.580  0.00  0.00    +0.045 C 
ENDROOT
BRANCH  10   9
ATOM      4  C   UNL     1      14.341  17.794 -14.471  0.00  0.00    +0.077 A 
ATOM      5  C   UNL     1      14.903  17.545 -15.767  0.00  0.00    +0.048 A 
ATOM      6  C   UNL     1      16.312  17.517 -15.869  0.00  0.00    +0.116 A 
ATOM      7  N   UNL     1      17.091  17.722 -14.752  0.00  0.00    -0.223 NA
ATOM      8  C   UNL     1      16.517  17.961 -13.516  0.00  0.00    +0.220 A 
ATOM      9  N   UNL     1      17.281  18.163 -12.377  0.00  0.00    -0.283 N 
ATOM     36  H   UNL     1      16.820  18.344 -11.486  0.00  0.00    +0.155 HD
ATOM     37  N   UNL     1      15.174  17.995 -13.393  0.00  0.00    -0.214 NA
BRANCH   4   3
ATOM      1  C   UNL     1      10.530  16.920 -14.355  0.00  0.00    +0.020 A 
ATOM      2  C   UNL     1      11.942  16.816 -14.642  0.00  0.00    +0.013 A 
ATOM      3  C   UNL     1      12.869  17.851 -14.202  0.00  0.00    +0.019 A 
ATOM     38  C   UNL     1      12.331  18.986 -13.467  0.00  0.00    +0.120 A 
ATOM     39  N   UNL     1      10.966  19.060 -13.207  0.00  0.00    -0.263 NA
ATOM     40  C   UNL     1      10.064  18.070 -13.628  0.00  0.00    +0.111 A 
ENDBRANCH   4   3
ENDBRANCH  10   9
BRANCH  12  13
ATOM     13  N   UNL     1      21.484  15.501 -12.442  0.00  0.00    -0.281 N 
ATOM     14  C   UNL     1      22.305  14.972 -13.424  0.00  0.00    +0.248 C 
ATOM     30  O   UNL     1      22.383  15.401 -14.566  0.00  0.00    -0.270 OA
ATOM     31  H   UNL     1      21.368  14.935 -11.602  0.00  0.00    +0.155 HD
BRANCH  14  15
ATOM     15  C   UNL     1      23.152  13.785 -13.094  0.00  0.00    +0.037 A 
ATOM     16  C   UNL     1      23.789  13.646 -11.782  0.00  0.00    +0.013 A 
ATOM     17  C   UNL     1      24.614  12.500 -11.496  0.00  0.00    +0.005 A 
ATOM     18  C   UNL     1      24.807  11.481 -12.525  0.00  0.00    -0.033 A 
ATOM     28  C   UNL     1      24.159  11.641 -13.817  0.00  0.00    +0.005 A 
ATOM     29  C   UNL     1      23.350  12.764 -14.101  0.00  0.00    +0.013 A 
BRANCH  18  19
ATOM     19  C   UNL     1      25.688  10.236 -12.315  0.00  0.00    +0.119 C 
BRANCH  19  20
ATOM     20  N   UNL     1      24.990   8.931 -12.110  0.00  0.00    -0.302 NA
ATOM     21  C   UNL     1      24.612   8.267 -13.437  0.00  0.00    +0.066 C 
ATOM     22  C   UNL     1      23.903   6.893 -13.204  0.00  0.00    -0.064 C 
ATOM     23  N   UNL     1      22.665   7.103 -12.330  0.00  0.00    +0.379 N 
ATOM     24  C   UNL     1      21.964   5.822 -12.158  0.00  0.00    -0.096 C 
ATOM     25  H   UNL     1      21.979   7.793 -12.876  0.00  0.00    -0.082 HD
ATOM     26  C   UNL     1      23.032   7.765 -11.010  0.00  0.00    -0.064 C 
ATOM     27  C   UNL     1      23.762   9.116 -11.253  0.00  0.00    +0.066 C 
ENDBRANCH  19  20
ENDBRANCH  18  19
ENDBRANCH  14  15
ENDBRANCH  12  13
TORSDOF 6
ENDMDL
MODEL 3
REMARK VINA RESULT:      -7.2     14.394     18.768
REMARK  Name = C:\Users\Docking\Desktop\test protocol\1iep_ligandH.pdb
REMARK  8 active torsions:
REMARK  status: ('A' for Active; 'I' for Inactive)
REMARK    1  A    between atoms: _5  and  _11
REMARK    2  A    between atoms: _19  and  _21
REMARK    3  A    between atoms: _22  and  _66
REMARK    4  A    between atoms: _27  and  _30
REMARK    5  A    between atoms: _32  and  _33
REMARK    6  A    between atoms: _38  and  _43
REMARK    7  A    between atoms: _43  and  _46
REMARK    8  A    between atoms: _53  and  _55
REMARK                            x       y       z     vdW  Elec       q    Type
REMARK                         _______ _______ _______ _____ _____    ______ ____
ROOT
ATOM     10  C   UNL     1       6.418  25.168  16.727  0.00  0.00    +0.038 A 
ATOM     11  C   UNL     1       6.861  23.824  16.640  0.00  0.00    +0.047 A 
ATOM     12  C   UNL     1       8.092  23.393  17.284  0.00  0.00    +0.035 A 
ATOM     32  C   UNL     1       8.846  24.359  18.013  0.00  0.00    +0.024 A 
ATOM     33  C   UNL     1       8.412  25.730  18.111  0.00  0.00    +0.007 A 
ATOM     34  C   UNL     1       7.200  26.161  17.475  0.00  0.00    -0.029 A 
ATOM     35  C   UNL     1       6.785  27.645  17.608  0.00  0.00    +0.045 C 
ENDROOT
BRANCH  10   9
ATOM      4  C   UNL     1       3.574  25.343  12.865  0.00  0.00    +0.077 A 
ATOM      5  C   UNL     1       4.551  24.689  12.043  0.00  0.00    +0.048 A 
ATOM      6  C   UNL     1       5.775  24.330  12.650  0.00  0.00    +0.116 A 
ATOM      7  N   UNL     1       5.995  24.610  13.982  0.00  0.00    -0.223 NA
ATOM      8  C   UNL     1       5.032  25.243  14.746  0.00  0.00    +0.220 A 
ATOM      9  N   UNL     1       5.229  25.527  16.088  0.00  0.00    -0.283 N 
ATOM     36  H   UNL     1       4.497  26.002  16.616  0.00  0.00    +0.155 HD
ATOM     37  N   UNL     1       3.855  25.597  14.189  0.00  0.00    -0.214 NA
BRANCH   4   3
ATOM      1  C   UNL     1       0.235  25.572  10.840  0.00  0.00    +0.020 A 
ATOM      2  C   UNL     1       1.531  25.109  11.281  0.00  0.00    +0.013 A 
ATOM      3  C   UNL     1       2.231  25.781  12.369  0.00  0.00    +0.019 A 
ATOM     38  C   UNL     1       1.587  26.926  12.995  0.00  0.00    +0.120 A 
ATOM     39  N   UNL     1       0.339  27.350  12.548  0.00  0.00    -0.263 NA
ATOM     40  C   UNL     1      -0.343  26.713  11.501  0.00  0.00    +0.111 A 
ENDBRANCH   4   3
ENDBRANCH  10   9
BRANCH  12  13
ATOM     13  N   UNL     1       8.595  22.044  17.224  0.00  0.00    -0.281 N 
ATOM     14  C   UNL     1       9.792  21.605  16.681  0.00  0.00    +0.248 C 
ATOM     30  O   UNL     1      10.519  22.283  15.970  0.00  0.00    -0.270 OA
ATOM     31  H   UNL     1       7.997  21.324  17.630  0.00  0.00    +0.155 HD
BRANCH  14  15
ATOM     15  C   UNL     1      10.239  20.205  16.955  0.00  0.00    +0.037 A 
ATOM     16  C   UNL     1      10.526  19.752  18.319  0.00  0.00    +0.013 A 
ATOM     17  C   UNL     1      10.972  18.402  18.553  0.00  0.00    +0.005 A 
ATOM     18  C   UNL     1      11.132  17.493  17.421  0.00  0.00    -0.033 A 
ATOM     28  C   UNL     1      10.836  17.967  16.079  0.00  0.00    +0.005 A 
ATOM     29  C   UNL     1      10.399  19.290  15.845  0.00  0.00    +0.013 A 
BRANCH  18  19
ATOM     19  C   UNL     1      11.623  16.042  17.576  0.00  0.00    +0.119 C 
BRANCH  19  20
ATOM     20  N   UNL     1      13.099  15.822  17.637  0.00  0.00    -0.302 NA
ATOM     21  C   UNL     1      13.491  14.417  17.171  0.00  0.00    +0.066 C 
ATOM     22  C   UNL     1      15.040  14.212  17.220  0.00  0.00    -0.064 C 
ATOM     23  N   UNL     1      15.541  14.471  18.642  0.00  0.00    +0.379 N 
ATOM     24  C   UNL     1      16.989  14.223  18.704  0.00  0.00    -0.096 C 
ATOM     25  H   UNL     1      15.042  13.736  19.315  0.00  0.00    -0.082 HD
ATOM     26  C   UNL     1      15.154  15.865  19.114  0.00  0.00    -0.064 C 
ATOM     27  C   UNL     1      13.615  16.068  19.033  0.00  0.00    +0.066 C 
ENDBRANCH  19  20
ENDBRANCH  18  19
ENDBRANCH  14  15
ENDBRANCH  12  13
TORSDOF 6
ENDMDL
MODEL 4
REMARK VINA RESULT:      -7.1      1.859     12.401
REMARK  Name = C:\Users\Docking\Desktop\test protocol\1iep_ligandH.pdb
REMARK  8 active torsions:
REMARK  status: ('A' for Active; 'I' for Inactive)
REMARK    1  A    between atoms: _5  and  _11
REMARK    2  A    between atoms: _19  and  _21
REMARK    3  A    between atoms: _22  and  _66
REMARK    4  A    between atoms: _27  and  _30
REMARK    5  A    between atoms: _32  and  _33
REMARK    6  A    between atoms: _38  and  _43
REMARK    7  A    between atoms: _43  and  _46
REMARK    8  A    between atoms: _53  and  _55
REMARK                            x       y       z     vdW  Elec       q    Type
REMARK                         _______ _______ _______ _____ _____    ______ ____
ROOT
ATOM     10  C   UNL     1      23.991  20.807   5.697  0.00  0.00    +0.038 A 
ATOM     11  C   UNL     1      22.857  20.279   6.365  0.00  0.00    +0.047 A 
ATOM     12  C   UNL     1      22.962  19.098   7.208  0.00  0.00    +0.035 A 
ATOM     32  C   UNL     1      24.240  18.482   7.352  0.00  0.00    +0.024 A 
ATOM     33  C   UNL     1      25.403  19.006   6.680  0.00  0.00    +0.007 A 
ATOM     34  C   UNL     1      25.305  20.169   5.845  0.00  0.00    -0.029 A 
ATOM     35  C   UNL     1      26.584  20.682   5.143  0.00  0.00    +0.045 C 
ENDROOT
BRANCH  10   9
ATOM      4  C   UNL     1      22.281  23.045   1.811  0.00  0.00    +0.077 A 
ATOM      5  C   UNL     1      21.675  21.844   1.313  0.00  0.00    +0.048 A 
ATOM      6  C   UNL     1      21.833  20.670   2.084  0.00  0.00    +0.116 A 
ATOM      7  N   UNL     1      22.545  20.707   3.263  0.00  0.00    -0.223 NA
ATOM      8  C   UNL     1      23.119  21.882   3.713  0.00  0.00    +0.220 A 
ATOM      9  N   UNL     1      23.833  21.943   4.900  0.00  0.00    -0.283 N 
ATOM     36  H   UNL     1      24.247  22.827   5.194  0.00  0.00    +0.155 HD
ATOM     37  N   UNL     1      22.984  23.016   2.995  0.00  0.00    -0.214 NA
BRANCH   4   3
ATOM      1  C   UNL     1      22.041  25.792  -0.963  0.00  0.00    +0.020 A 
ATOM      2  C   UNL     1      22.118  24.492  -0.338  0.00  0.00    +0.013 A 
ATOM      3  C   UNL     1      22.200  24.367   1.112  0.00  0.00    +0.019 A 
ATOM     38  C   UNL     1      22.201  25.586   1.906  0.00  0.00    +0.120 A 
ATOM     39  N   UNL     1      22.128  26.824   1.276  0.00  0.00    -0.263 NA
ATOM     40  C   UNL     1      22.050  26.957  -0.118  0.00  0.00    +0.111 A 
ENDBRANCH   4   3
ENDBRANCH  10   9
BRANCH  12  13
ATOM     13  N   UNL     1      21.844  18.511   7.904  0.00  0.00    -0.281 N 
ATOM     14  C   UNL     1      20.802  17.771   7.370  0.00  0.00    +0.248 C 
ATOM     30  O   UNL     1      20.559  17.682   6.175  0.00  0.00    -0.270 OA
ATOM     31  H   UNL     1      21.818  18.659   8.913  0.00  0.00    +0.155 HD
BRANCH  14  15
ATOM     15  C   UNL     1      19.889  17.036   8.297  0.00  0.00    +0.037 A 
ATOM     16  C   UNL     1      20.404  16.035   9.235  0.00  0.00    +0.013 A 
ATOM     17  C   UNL     1      19.500  15.328  10.106  0.00  0.00    +0.005 A 
ATOM     18  C   UNL     1      18.070  15.620  10.044  0.00  0.00    -0.033 A 
ATOM     28  C   UNL     1      17.587  16.622   9.108  0.00  0.00    +0.005 A 
ATOM     29  C   UNL     1      18.470  17.316   8.252  0.00  0.00    +0.013 A 
BRANCH  18  19
ATOM     19  C   UNL     1      17.030  14.899  10.922  0.00  0.00    +0.119 C 
BRANCH  19  20
ATOM     20  N   UNL     1      15.791  14.406  10.249  0.00  0.00    -0.302 NA
ATOM     21  C   UNL     1      14.727  13.963  11.257  0.00  0.00    +0.066 C 
ATOM     22  C   UNL     1      13.430  13.472  10.536  0.00  0.00    -0.064 C 
ATOM     23  N   UNL     1      13.781  12.328   9.582  0.00  0.00    +0.379 N 
ATOM     24  C   UNL     1      12.555  11.825   8.946  0.00  0.00    -0.096 C 
ATOM     25  H   UNL     1      14.211  11.500  10.192  0.00  0.00    -0.082 HD
ATOM     26  C   UNL     1      14.841  12.760   8.578  0.00  0.00    -0.064 C 
ATOM     27  C   UNL     1      16.115  13.274   9.305  0.00  0.00    +0.066 C 
ENDBRANCH  19  20
ENDBRANCH  18  19
ENDBRANCH  14  15
ENDBRANCH  12  13
TORSDOF 6
ENDMDL
MODEL 5
REMARK VINA RESULT:      -7.1     14.997     19.264
REMARK  Name = C:\Users\Docking\Desktop\test protocol\1iep_ligandH.pdb
REMARK  8 active torsions:
REMARK  status: ('A' for Active; 'I' for Inactive)
REMARK    1  A    between atoms: _5  and  _11
REMARK    2  A    between atoms: _19  and  _21
REMARK    3  A    between atoms: _22  and  _66
REMARK    4  A    between atoms: _27  and  _30
REMARK    5  A    between atoms: _32  and  _33
REMARK    6  A    between atoms: _38  and  _43
REMARK    7  A    between atoms: _43  and  _46
REMARK    8  A    between atoms: _53  and  _55
REMARK                            x       y       z     vdW  Elec       q    Type
REMARK                         _______ _______ _______ _____ _____    ______ ____
ROOT
ATOM     10  C   UNL     1       6.634  25.416  16.095  0.00  0.00    +0.038 A 
ATOM     11  C   UNL     1       7.102  24.079  16.038  0.00  0.00    +0.047 A 
ATOM     12  C   UNL     1       8.101  23.590  16.975  0.00  0.00    +0.035 A 
ATOM     32  C   UNL     1       8.600  24.490  17.961  0.00  0.00    +0.024 A 
ATOM     33  C   UNL     1       8.136  25.854  18.033  0.00  0.00    +0.007 A 
ATOM     34  C   UNL     1       7.153  26.342  17.109  0.00  0.00    -0.029 A 
ATOM     35  C   UNL     1       6.697  27.815  17.230  0.00  0.00    +0.045 C 
ENDROOT
BRANCH  10   9
ATOM      4  C   UNL     1       2.080  26.061  14.721  0.00  0.00    +0.077 A 
ATOM      5  C   UNL     1       1.571  25.497  15.938  0.00  0.00    +0.048 A 
ATOM      6  C   UNL     1       2.514  25.046  16.888  0.00  0.00    +0.116 A 
ATOM      7  N   UNL     1       3.864  25.156  16.631  0.00  0.00    -0.223 NA
ATOM      8  C   UNL     1       4.321  25.704  15.447  0.00  0.00    +0.220 A 
ATOM      9  N   UNL     1       5.674  25.833  15.170  0.00  0.00    -0.283 N 
ATOM     36  H   UNL     1       5.971  26.235  14.282  0.00  0.00    +0.155 HD
ATOM     37  N   UNL     1       3.441  26.141  14.522  0.00  0.00    -0.214 NA
BRANCH   4   3
ATOM      1  C   UNL     1      -0.739  27.939  12.765  0.00  0.00    +0.020 A 
ATOM      2  C   UNL     1       0.070  27.460  13.862  0.00  0.00    +0.013 A 
ATOM      3  C   UNL     1       1.210  26.585  13.621  0.00  0.00    +0.019 A 
ATOM     38  C   UNL     1       1.508  26.211  12.247  0.00  0.00    +0.120 A 
ATOM     39  N   UNL     1       0.711  26.686  11.211  0.00  0.00    -0.263 NA
ATOM     40  C   UNL     1      -0.390  27.527  11.431  0.00  0.00    +0.111 A 
ENDBRANCH   4   3
ENDBRANCH  10   9
BRANCH  12  13
ATOM     13  N   UNL     1       8.620  22.245  16.960  0.00  0.00    -0.281 N 
ATOM     14  C   UNL     1       9.877  21.821  16.560  0.00  0.00    +0.248 C 
ATOM     30  O   UNL     1      10.678  22.514  15.950  0.00  0.00    -0.270 OA
ATOM     31  H   UNL     1       7.983  21.516  17.283  0.00  0.00    +0.155 HD
BRANCH  14  15
ATOM     15  C   UNL     1      10.299  20.421  16.870  0.00  0.00    +0.037 A 
ATOM     16  C   UNL     1      10.352  19.395  15.826  0.00  0.00    +0.013 A 
ATOM     17  C   UNL     1      10.747  18.048  16.155  0.00  0.00    +0.005 A 
ATOM     18  C   UNL     1      11.094  17.721  17.536  0.00  0.00    -0.033 A 
ATOM     28  C   UNL     1      11.038  18.760  18.551  0.00  0.00    +0.005 A 
ATOM     29  C   UNL     1      10.650  20.081  18.232  0.00  0.00    +0.013 A 
BRANCH  18  19
ATOM     19  C   UNL     1      11.506  16.306  17.982  0.00  0.00    +0.119 C 
BRANCH  19  20
ATOM     20  N   UNL     1      12.705  15.704  17.325  0.00  0.00    -0.302 NA
ATOM     21  C   UNL     1      12.322  14.615  16.319  0.00  0.00    +0.066 C 
ATOM     22  C   UNL     1      13.587  14.011  15.625  0.00  0.00    -0.064 C 
ATOM     23  N   UNL     1      14.533  13.456  16.691  0.00  0.00    +0.379 N 
ATOM     24  C   UNL     1      15.696  12.836  16.038  0.00  0.00    -0.096 C 
ATOM     25  H   UNL     1      13.988  12.655  17.243  0.00  0.00    -0.082 HD
ATOM     26  C   UNL     1      14.917  14.532  17.697  0.00  0.00    -0.064 C 
ATOM     27  C   UNL     1      13.651  15.145  18.359  0.00  0.00    +0.066 C 
ENDBRANCH  19  20
ENDBRANCH  18  19
ENDBRANCH  14  15
ENDBRANCH  12  13
TORSDOF 6
ENDMDL
