MODEL 1
REMARK VINA RESULT:     -10.9      0.000      0.000
REMARK  Name = C:\Users\Docking\Desktop\test protocol\1iep_ligandH.pdb
REMARK  8 active torsions:
REMARK  status: ('A' for Active; 'I' for Inactive)
REMARK    1  A    between atoms: _5  and  _11
REMARK    2  A    between atoms: _19  and  _21
REMARK    3  A    between atoms: _22  and  _66
REMARK    4  A    between atoms: _27  and  _30
REMARK    5  A    between atoms: _32  and  _33
REMARK    6  A    between atoms: _38  and  _43
REMARK    7  A    between atoms: _43  and  _46
REMARK    8  A    between atoms: _53  and  _55
REMARK                            x       y       z     vdW  Elec       q    Type
REMARK                         _______ _______ _______ _____ _____    ______ ____
ROOT
ATOM     10  C   UNL     1      -4.444 -24.899  13.498  0.00  0.00    +0.038 A 
ATOM     11  C   UNL     1      -4.170 -24.506  12.162  0.00  0.00    +0.047 A 
ATOM     12  C   UNL     1      -3.367 -23.328  11.874  0.00  0.00    +0.035 A 
ATOM     32  C   UNL     1      -2.858 -22.573  12.970  0.00  0.00    +0.024 A 
ATOM     33  C   UNL     1      -3.127 -22.957  14.334  0.00  0.00    +0.007 A 
ATOM     34  C   UNL     1      -3.920 -24.117  14.624  0.00  0.00    -0.029 A 
ATOM     35  C   UNL     1      -4.183 -24.477  16.105  0.00  0.00    +0.045 C 
ENDROOT
BRANCH  10   9
ATOM      4  C   UNL     1      -8.677 -27.125  13.895  0.00  0.00    +0.077 A 
ATOM      5  C   UNL     1      -9.405 -25.909  13.673  0.00  0.00    +0.048 A 
ATOM      6  C   UNL     1      -8.652 -24.731  13.468  0.00  0.00    +0.116 A 
ATOM      7  N   UNL     1      -7.275 -24.778  13.485  0.00  0.00    -0.223 NA
ATOM      8  C   UNL     1      -6.604 -25.967  13.703  0.00  0.00    +0.220 A 
ATOM      9  N   UNL     1      -5.220 -26.039  13.717  0.00  0.00    -0.283 N 
ATOM     36  H   UNL     1      -4.763 -26.934  13.888  0.00  0.00    +0.155 HD
ATOM     37  N   UNL     1      -7.300 -27.106  13.903  0.00  0.00    -0.214 NA
BRANCH   4   3
ATOM      1  C   UNL     1      -9.307 -30.975  14.190  0.00  0.00    +0.020 A 
ATOM      2  C   UNL     1      -8.630 -29.720  13.956  0.00  0.00    +0.013 A 
ATOM      3  C   UNL     1      -9.331 -28.453  14.123  0.00  0.00    +0.019 A 
ATOM     38  C   UNL     1     -10.727 -28.490  14.533  0.00  0.00    +0.120 A 
ATOM     39  N   UNL     1     -11.353 -29.714  14.750  0.00  0.00    -0.263 NA
ATOM     40  C   UNL     1     -10.689 -30.940  14.590  0.00  0.00    +0.111 A 
ENDBRANCH   4   3
ENDBRANCH  10   9
BRANCH  12  13
ATOM     13  N   UNL     1      -3.063 -22.877  10.539  0.00  0.00    -0.281 N 
ATOM     14  C   UNL     1      -3.440 -21.688   9.935  0.00  0.00    +0.248 C 
ATOM     30  O   UNL     1      -4.282 -20.923  10.381  0.00  0.00    -0.270 OA
ATOM     31  H   UNL     1      -2.501 -23.510   9.970  0.00  0.00    +0.155 HD
BRANCH  14  15
ATOM     15  C   UNL     1      -2.801 -21.302   8.640  0.00  0.00    +0.037 A 
ATOM     16  C   UNL     1      -3.347 -21.753   7.358  0.00  0.00    +0.013 A 
ATOM     17  C   UNL     1      -2.701 -21.379   6.125  0.00  0.00    +0.005 A 
ATOM     18  C   UNL     1      -1.501 -20.548   6.169  0.00  0.00    -0.033 A 
ATOM     28  C   UNL     1      -0.983 -20.110   7.454  0.00  0.00    +0.005 A 
ATOM     29  C   UNL     1      -1.613 -20.475   8.665  0.00  0.00    +0.013 A 
BRANCH  18  19
ATOM     19  C   UNL     1      -0.734 -20.119   4.904  0.00  0.00    +0.119 C 
BRANCH  19  20
ATOM     20  N   UNL     1      -0.937 -20.936   3.671  0.00  0.00    -0.302 NA
ATOM     21  C   UNL     1      -0.014 -22.158   3.633  0.00  0.00    +0.066 C 
ATOM     22  C   UNL     1      -0.256 -23.014   2.347  0.00  0.00    -0.064 C 
ATOM     23  N   UNL     1      -0.048 -22.140   1.109  0.00  0.00    +0.379 N 
ATOM     24  C   UNL     1      -0.218 -22.957  -0.102  0.00  0.00    -0.096 C 
ATOM     25  H   UNL     1       1.005 -21.775   1.126  0.00  0.00    -0.082 HD
ATOM     26  C   UNL     1      -0.960 -20.922   1.140  0.00  0.00    -0.064 C 
ATOM     27  C   UNL     1      -0.733 -20.094   2.436  0.00  0.00    +0.066 C 
ENDBRANCH  19  20
ENDBRANCH  18  19
ENDBRANCH  14  15
ENDBRANCH  12  13
TORSDOF 6
ENDMDL
MODEL 2
REMARK VINA RESULT:     -10.5      1.908      2.848
REMARK  Name = C:\Users\Docking\Desktop\test protocol\1iep_ligandH.pdb
REMARK  8 active torsions:
REMARK  status: ('A' for Active; 'I' for Inactive)
REMARK    1  A    between atoms: _5  and  _11
REMARK    2  A    between atoms: _19  and  _21
REMARK    3  A    between atoms: _22  and  _66
REMARK    4  A    between atoms: _27  and  _30
REMARK    5  A    between atoms: _32  and  _33
REMARK    6  A    between atoms: _38  and  _43
REMARK    7  A    between atoms: _43  and  _46
REMARK    8  A    between atoms: _53  and  _55
REMARK                            x       y       z     vdW  Elec       q    Type
REMARK                         _______ _______ _______ _____ _____    ______ ____
ROOT
ATOM     10  C   UNL     1      -4.411 -23.551  11.900  0.00  0.00    +0.038 A 
ATOM     11  C   UNL     1      -4.084 -23.294  10.544  0.00  0.00    +0.047 A 
ATOM     12  C   UNL     1      -3.012 -22.377  10.189  0.00  0.00    +0.035 A 
ATOM     32  C   UNL     1      -2.292 -21.740  11.241  0.00  0.00    +0.024 A 
ATOM     33  C   UNL     1      -2.612 -21.989  12.625  0.00  0.00    +0.007 A 
ATOM     34  C   UNL     1      -3.669 -22.890  12.981  0.00  0.00    -0.029 A 
ATOM     35  C   UNL     1      -3.973 -23.114  14.481  0.00  0.00    +0.045 C 
ENDROOT
BRANCH  10   9
ATOM      4  C   UNL     1      -9.040 -24.539  12.694  0.00  0.00    +0.077 A 
ATOM      5  C   UNL     1      -9.418 -23.162  12.558  0.00  0.00    +0.048 A 
ATOM      6  C   UNL     1      -8.391 -22.230  12.292  0.00  0.00    +0.116 A 
ATOM      7  N   UNL     1      -7.085 -22.655  12.171  0.00  0.00    -0.223 NA
ATOM      8  C   UNL     1      -6.754 -23.990  12.309  0.00  0.00    +0.220 A 
ATOM      9  N   UNL     1      -5.449 -24.441  12.184  0.00  0.00    -0.283 N 
ATOM     36  H   UNL     1      -5.245 -25.433  12.300  0.00  0.00    +0.155 HD
ATOM     37  N   UNL     1      -7.717 -24.900  12.565  0.00  0.00    -0.214 NA
BRANCH   4   3
ATOM      1  C   UNL     1     -12.319 -26.662  12.902  0.00  0.00    +0.020 A 
ATOM      2  C   UNL     1     -11.422 -25.568  12.610  0.00  0.00    +0.013 A 
ATOM      3  C   UNL     1     -10.012 -25.643  12.973  0.00  0.00    +0.019 A 
ATOM     38  C   UNL     1      -9.538 -26.850  13.634  0.00  0.00    +0.120 A 
ATOM     39  N   UNL     1     -10.425 -27.887  13.903  0.00  0.00    -0.263 NA
ATOM     40  C   UNL     1     -11.784 -27.825  13.560  0.00  0.00    +0.111 A 
ENDBRANCH   4   3
ENDBRANCH  10   9
BRANCH  12  13
ATOM     13  N   UNL     1      -2.640 -22.071   8.830  0.00  0.00    -0.281 N 
ATOM     14  C   UNL     1      -2.258 -20.846   8.307  0.00  0.00    +0.248 C 
ATOM     30  O   UNL     1      -2.384 -19.778   8.886  0.00  0.00    -0.270 OA
ATOM     31  H   UNL     1      -2.662 -22.852   8.174  0.00  0.00    +0.155 HD
BRANCH  14  15
ATOM     15  C   UNL     1      -1.663 -20.801   6.937  0.00  0.00    +0.037 A 
ATOM     16  C   UNL     1      -2.167 -21.658   5.860  0.00  0.00    +0.013 A 
ATOM     17  C   UNL     1      -1.563 -21.606   4.552  0.00  0.00    +0.005 A 
ATOM     18  C   UNL     1      -0.449 -20.692   4.313  0.00  0.00    -0.033 A 
ATOM     28  C   UNL     1       0.028 -19.850   5.397  0.00  0.00    +0.005 A 
ATOM     29  C   UNL     1      -0.561 -19.898   6.681  0.00  0.00    +0.013 A 
BRANCH  18  19
ATOM     19  C   UNL     1       0.269 -20.586   2.955  0.00  0.00    +0.119 C 
BRANCH  19  20
ATOM     20  N   UNL     1      -0.441 -19.860   1.860  0.00  0.00    -0.302 NA
ATOM     21  C   UNL     1      -1.218 -20.812   0.948  0.00  0.00    +0.066 C 
ATOM     22  C   UNL     1      -1.974 -20.033  -0.178  0.00  0.00    -0.064 C 
ATOM     23  N   UNL     1      -0.970 -19.208  -0.985  0.00  0.00    +0.379 N 
ATOM     24  C   UNL     1      -1.669 -18.519  -2.080  0.00  0.00    -0.096 C 
ATOM     25  H   UNL     1      -0.240 -19.916  -1.441  0.00  0.00    -0.082 HD
ATOM     26  C   UNL     1      -0.191 -18.260  -0.084  0.00  0.00    -0.064 C 
ATOM     27  C   UNL     1       0.532 -19.041   1.048  0.00  0.00    +0.066 C 
ENDBRANCH  19  20
ENDBRANCH  18  19
ENDBRANCH  14  15
ENDBRANCH  12  13
TORSDOF 6
ENDMDL
MODEL 3
REMARK VINA RESULT:     -10.3      5.342     13.837
REMARK  Name = C:\Users\Docking\Desktop\test protocol\1iep_ligandH.pdb
REMARK  8 active torsions:
REMARK  status: ('A' for Active; 'I' for Inactive)
REMARK    1  A    between atoms: _5  and  _11
REMARK    2  A    between atoms: _19  and  _21
REMARK    3  A    between atoms: _22  and  _66
REMARK    4  A    between atoms: _27  and  _30
REMARK    5  A    between atoms: _32  and  _33
REMARK    6  A    between atoms: _38  and  _43
REMARK    7  A    between atoms: _43  and  _46
REMARK    8  A    between atoms: _53  and  _55
REMARK                            x       y       z     vdW  Elec       q    Type
REMARK                         _______ _______ _______ _____ _____    ______ ____
ROOT
ATOM     10  C   UNL     1      -8.628 -25.147  12.226  0.00  0.00    +0.038 A 
ATOM     11  C   UNL     1      -8.211 -26.461  12.561  0.00  0.00    +0.047 A 
ATOM     12  C   UNL     1      -9.168 -27.464  13.002  0.00  0.00    +0.035 A 
ATOM     32  C   UNL     1     -10.542 -27.095  13.089  0.00  0.00    +0.024 A 
ATOM     33  C   UNL     1     -10.983 -25.764  12.754  0.00  0.00    +0.007 A 
ATOM     34  C   UNL     1     -10.044 -24.770  12.320  0.00  0.00    -0.029 A 
ATOM     35  C   UNL     1     -10.572 -23.357  11.980  0.00  0.00    +0.045 C 
ENDROOT
BRANCH  10   9
ATOM      4  C   UNL     1      -5.033 -22.089  13.101  0.00  0.00    +0.077 A 
ATOM      5  C   UNL     1      -5.092 -22.332  14.514  0.00  0.00    +0.048 A 
ATOM      6  C   UNL     1      -6.067 -23.245  14.976  0.00  0.00    +0.116 A 
ATOM      7  N   UNL     1      -6.913 -23.864  14.082  0.00  0.00    -0.223 NA
ATOM      8  C   UNL     1      -6.831 -23.606  12.726  0.00  0.00    +0.220 A 
ATOM      9  N   UNL     1      -7.667 -24.224  11.808  0.00  0.00    -0.283 N 
ATOM     36  H   UNL     1      -7.580 -24.001  10.817  0.00  0.00    +0.155 HD
ATOM     37  N   UNL     1      -5.910 -22.737  12.260  0.00  0.00    -0.214 NA
BRANCH   4   3
ATOM      1  C   UNL     1      -1.843 -20.639  11.363  0.00  0.00    +0.020 A 
ATOM      2  C   UNL     1      -2.750 -21.582  11.975  0.00  0.00    +0.013 A 
ATOM      3  C   UNL     1      -4.056 -21.154  12.460  0.00  0.00    +0.019 A 
ATOM     38  C   UNL     1      -4.417 -19.752  12.309  0.00  0.00    +0.120 A 
ATOM     39  N   UNL     1      -3.523 -18.866  11.716  0.00  0.00    -0.263 NA
ATOM     40  C   UNL     1      -2.263 -19.267  11.248  0.00  0.00    +0.111 A 
ENDBRANCH   4   3
ENDBRANCH  10   9
BRANCH  12  13
ATOM     13  N   UNL     1      -8.802 -28.811  13.363  0.00  0.00    -0.281 N 
ATOM     14  C   UNL     1      -9.099 -29.490  14.534  0.00  0.00    +0.248 C 
ATOM     30  O   UNL     1      -9.545 -28.964  15.543  0.00  0.00    -0.270 OA
ATOM     31  H   UNL     1      -8.258 -29.328  12.672  0.00  0.00    +0.155 HD
BRANCH  14  15
ATOM     15  C   UNL     1      -8.852 -30.962  14.598  0.00  0.00    +0.037 A 
ATOM     16  C   UNL     1      -9.021 -31.708  15.848  0.00  0.00    +0.013 A 
ATOM     17  C   UNL     1      -8.760 -33.125  15.886  0.00  0.00    +0.005 A 
ATOM     18  C   UNL     1      -8.327 -33.806  14.668  0.00  0.00    -0.033 A 
ATOM     28  C   UNL     1      -8.172 -33.043  13.441  0.00  0.00    +0.005 A 
ATOM     29  C   UNL     1      -8.426 -31.654  13.400  0.00  0.00    +0.013 A 
BRANCH  18  19
ATOM     19  C   UNL     1      -8.005 -35.312  14.621  0.00  0.00    +0.119 C 
BRANCH  19  20
ATOM     20  N   UNL     1      -9.155 -36.260  14.714  0.00  0.00    -0.302 NA
ATOM     21  C   UNL     1     -10.475 -35.604  14.298  0.00  0.00    +0.066 C 
ATOM     22  C   UNL     1     -11.663 -36.617  14.380  0.00  0.00    -0.064 C 
ATOM     23  N   UNL     1     -11.759 -37.174  15.801  0.00  0.00    +0.379 N 
ATOM     24  C   UNL     1     -12.911 -38.082  15.896  0.00  0.00    -0.096 C 
ATOM     25  H   UNL     1     -11.947 -36.316  16.488  0.00  0.00    -0.082 HD
ATOM     26  C   UNL     1     -10.450 -37.825  16.223  0.00  0.00    -0.064 C 
ATOM     27  C   UNL     1      -9.270 -36.819  16.111  0.00  0.00    +0.066 C 
ENDBRANCH  19  20
ENDBRANCH  18  19
ENDBRANCH  14  15
ENDBRANCH  12  13
TORSDOF 6
ENDMDL
MODEL 4
REMARK VINA RESULT:     -10.3      2.454      3.276
REMARK  Name = C:\Users\Docking\Desktop\test protocol\1iep_ligandH.pdb
REMARK  8 active torsions:
REMARK  status: ('A' for Active; 'I' for Inactive)
REMARK    1  A    between atoms: _5  and  _11
REMARK    2  A    between atoms: _19  and  _21
REMARK    3  A    between atoms: _22  and  _66
REMARK    4  A    between atoms: _27  and  _30
REMARK    5  A    between atoms: _32  and  _33
REMARK    6  A    between atoms: _38  and  _43
REMARK    7  A    between atoms: _43  and  _46
REMARK    8  A    between atoms: _53  and  _55
REMARK                            x       y       z     vdW  Elec       q    Type
REMARK                         _______ _______ _______ _____ _____    ______ ____
ROOT
ATOM     10  C   UNL     1      -4.502 -23.717  12.300  0.00  0.00    +0.038 A 
ATOM     11  C   UNL     1      -4.054 -23.506  10.971  0.00  0.00    +0.047 A 
ATOM     12  C   UNL     1      -2.959 -22.594  10.682  0.00  0.00    +0.035 A 
ATOM     32  C   UNL     1      -2.339 -21.916  11.772  0.00  0.00    +0.024 A 
ATOM     33  C   UNL     1      -2.783 -22.117  13.129  0.00  0.00    +0.007 A 
ATOM     34  C   UNL     1      -3.865 -23.014  13.420  0.00  0.00    -0.029 A 
ATOM     35  C   UNL     1      -4.302 -23.187  14.893  0.00  0.00    +0.045 C 
ENDROOT
BRANCH  10   9
ATOM      4  C   UNL     1      -9.177 -24.698  12.774  0.00  0.00    +0.077 A 
ATOM      5  C   UNL     1      -9.544 -23.323  12.595  0.00  0.00    +0.048 A 
ATOM      6  C   UNL     1      -8.499 -22.393  12.391  0.00  0.00    +0.116 A 
ATOM      7  N   UNL     1      -7.189 -22.819  12.369  0.00  0.00    -0.223 NA
ATOM      8  C   UNL     1      -6.869 -24.153  12.547  0.00  0.00    +0.220 A 
ATOM      9  N   UNL     1      -5.559 -24.604  12.520  0.00  0.00    -0.283 N 
ATOM     36  H   UNL     1      -5.364 -25.595  12.663  0.00  0.00    +0.155 HD
ATOM     37  N   UNL     1      -7.849 -25.059  12.745  0.00  0.00    -0.214 NA
BRANCH   4   3
ATOM      1  C   UNL     1     -12.477 -26.797  12.823  0.00  0.00    +0.020 A 
ATOM      2  C   UNL     1     -11.562 -25.705  12.585  0.00  0.00    +0.013 A 
ATOM      3  C   UNL     1     -10.167 -25.799  12.997  0.00  0.00    +0.019 A 
ATOM     38  C   UNL     1      -9.727 -27.021  13.652  0.00  0.00    +0.120 A 
ATOM     39  N   UNL     1     -10.631 -28.056  13.870  0.00  0.00    -0.263 NA
ATOM     40  C   UNL     1     -11.976 -27.976  13.479  0.00  0.00    +0.111 A 
ENDBRANCH   4   3
ENDBRANCH  10   9
BRANCH  12  13
ATOM     13  N   UNL     1      -2.466 -22.334   9.353  0.00  0.00    -0.281 N 
ATOM     14  C   UNL     1      -3.113 -21.678   8.318  0.00  0.00    +0.248 C 
ATOM     30  O   UNL     1      -4.303 -21.401   8.313  0.00  0.00    -0.270 OA
ATOM     31  H   UNL     1      -1.526 -22.675   9.149  0.00  0.00    +0.155 HD
BRANCH  14  15
ATOM     15  C   UNL     1      -2.327 -21.285   7.109  0.00  0.00    +0.037 A 
ATOM     16  C   UNL     1      -2.656 -21.817   5.784  0.00  0.00    +0.013 A 
ATOM     17  C   UNL     1      -1.871 -21.435   4.636  0.00  0.00    +0.005 A 
ATOM     18  C   UNL     1      -0.750 -20.515   4.810  0.00  0.00    -0.033 A 
ATOM     28  C   UNL     1      -0.449 -19.999   6.135  0.00  0.00    +0.005 A 
ATOM     29  C   UNL     1      -1.215 -20.371   7.262  0.00  0.00    +0.013 A 
BRANCH  18  19
ATOM     19  C   UNL     1       0.155 -20.070   3.645  0.00  0.00    +0.119 C 
BRANCH  19  20
ATOM     20  N   UNL     1       1.465 -19.445   3.997  0.00  0.00    -0.302 NA
ATOM     21  C   UNL     1       1.732 -18.175   3.185  0.00  0.00    +0.066 C 
ATOM     22  C   UNL     1       3.096 -17.522   3.581  0.00  0.00    -0.064 C 
ATOM     23  N   UNL     1       4.222 -18.539   3.383  0.00  0.00    +0.379 N 
ATOM     24  C   UNL     1       5.512 -17.910   3.700  0.00  0.00    -0.096 C 
ATOM     25  H   UNL     1       4.238 -18.819   2.304  0.00  0.00    -0.082 HD
ATOM     26  C   UNL     1       3.963 -19.806   4.186  0.00  0.00    -0.064 C 
ATOM     27  C   UNL     1       2.591 -20.430   3.805  0.00  0.00    +0.066 C 
ENDBRANCH  19  20
ENDBRANCH  18  19
ENDBRANCH  14  15
ENDBRANCH  12  13
TORSDOF 6
ENDMDL
MODEL 5
REMARK VINA RESULT:     -10.3      2.128      2.767
REMARK  Name = C:\Users\Docking\Desktop\test protocol\1iep_ligandH.pdb
REMARK  8 active torsions:
REMARK  status: ('A' for Active; 'I' for Inactive)
REMARK    1  A    between atoms: _5  and  _11
REMARK    2  A    between atoms: _19  and  _21
REMARK    3  A    between atoms: _22  and  _66
REMARK    4  A    between atoms: _27  and  _30
REMARK    5  A    between atoms: _32  and  _33
REMARK    6  A    between atoms: _38  and  _43
REMARK    7  A    between atoms: _43  and  _46
REMARK    8  A    between atoms: _53  and  _55
REMARK                            x       y       z     vdW  Elec       q    Type
REMARK                         _______ _______ _______ _____ _____    ______ ____
ROOT
ATOM     10  C   UNL     1      -5.203 -21.695  12.756  0.00  0.00    +0.038 A 
ATOM     11  C   UNL     1      -4.505 -21.602  11.525  0.00  0.00    +0.047 A 
ATOM     12  C   UNL     1      -3.701 -20.433  11.202  0.00  0.00    +0.035 A 
ATOM     32  C   UNL     1      -3.629 -19.378  12.158  0.00  0.00    +0.024 A 
ATOM     33  C   UNL     1      -4.333 -19.456  13.414  0.00  0.00    +0.007 A 
ATOM     34  C   UNL     1      -5.129 -20.606  13.736  0.00  0.00    -0.029 A 
ATOM     35  C   UNL     1      -5.867 -20.632  15.095  0.00  0.00    +0.045 C 
ENDROOT
BRANCH  10   9
ATOM      4  C   UNL     1      -9.354 -24.104  12.805  0.00  0.00    +0.077 A 
ATOM      5  C   UNL     1     -10.082 -22.976  12.300  0.00  0.00    +0.048 A 
ATOM      6  C   UNL     1      -9.353 -21.793  12.047  0.00  0.00    +0.116 A 
ATOM      7  N   UNL     1      -7.996 -21.752  12.285  0.00  0.00    -0.223 NA
ATOM      8  C   UNL     1      -7.324 -22.857  12.774  0.00  0.00    +0.220 A 
ATOM      9  N   UNL     1      -5.959 -22.841  13.014  0.00  0.00    -0.283 N 
ATOM     36  H   UNL     1      -5.502 -23.674  13.382  0.00  0.00    +0.155 HD
ATOM     37  N   UNL     1      -7.999 -23.998  13.025  0.00  0.00    -0.214 NA
BRANCH   4   3
ATOM      1  C   UNL     1     -11.948 -27.007  13.184  0.00  0.00    +0.020 A 
ATOM      2  C   UNL     1     -11.390 -25.713  12.864  0.00  0.00    +0.013 A 
ATOM      3  C   UNL     1      -9.984 -25.425  13.119  0.00  0.00    +0.019 A 
ATOM     38  C   UNL     1      -9.164 -26.476  13.703  0.00  0.00    +0.120 A 
ATOM     39  N   UNL     1      -9.730 -27.711  14.003  0.00  0.00    -0.263 NA
ATOM     40  C   UNL     1     -11.082 -27.999  13.764  0.00  0.00    +0.111 A 
ENDBRANCH   4   3
ENDBRANCH  10   9
BRANCH  12  13
ATOM     13  N   UNL     1      -2.977 -20.278   9.965  0.00  0.00    -0.281 N 
ATOM     14  C   UNL     1      -2.465 -21.273   9.148  0.00  0.00    +0.248 C 
ATOM     30  O   UNL     1      -2.365 -22.448   9.469  0.00  0.00    -0.270 OA
ATOM     31  H   UNL     1      -2.824 -19.319   9.653  0.00  0.00    +0.155 HD
BRANCH  14  15
ATOM     15  C   UNL     1      -1.979 -20.907   7.782  0.00  0.00    +0.037 A 
ATOM     16  C   UNL     1      -2.510 -21.565   6.586  0.00  0.00    +0.013 A 
ATOM     17  C   UNL     1      -2.012 -21.205   5.282  0.00  0.00    +0.005 A 
ATOM     18  C   UNL     1      -0.977 -20.181   5.168  0.00  0.00    -0.033 A 
ATOM     28  C   UNL     1      -0.471 -19.541   6.371  0.00  0.00    +0.005 A 
ATOM     29  C   UNL     1      -0.956 -19.892   7.651  0.00  0.00    +0.013 A 
BRANCH  18  19
ATOM     19  C   UNL     1      -0.371 -19.749   3.819  0.00  0.00    +0.119 C 
BRANCH  19  20
ATOM     20  N   UNL     1      -0.499 -20.702   2.676  0.00  0.00    -0.302 NA
ATOM     21  C   UNL     1       0.595 -21.773   2.696  0.00  0.00    +0.066 C 
ATOM     22  C   UNL     1       0.433 -22.774   1.506  0.00  0.00    -0.064 C 
ATOM     23  N   UNL     1       0.454 -22.002   0.186  0.00  0.00    +0.379 N 
ATOM     24  C   UNL     1       0.360 -22.946  -0.937  0.00  0.00    -0.096 C 
ATOM     25  H   UNL     1       1.440 -21.486   0.113  0.00  0.00    -0.082 HD
ATOM     26  C   UNL     1      -0.629 -20.933   0.159  0.00  0.00    -0.064 C 
ATOM     27  C   UNL     1      -0.476 -19.961   1.362  0.00  0.00    +0.066 C 
ENDBRANCH  19  20
ENDBRANCH  18  19
ENDBRANCH  14  15
ENDBRANCH  12  13
TORSDOF 6
ENDMDL
