MODEL 1
REMARK VINA RESULT:     -11.1      0.000      0.000
REMARK  Name = C:\Users\Docking\Desktop\test protocol\1iep_ligandH.pdb
REMARK  8 active torsions:
REMARK  status: ('A' for Active; 'I' for Inactive)
REMARK    1  A    between atoms: _5  and  _11
REMARK    2  A    between atoms: _19  and  _21
REMARK    3  A    between atoms: _22  and  _66
REMARK    4  A    between atoms: _27  and  _30
REMARK    5  A    between atoms: _32  and  _33
REMARK    6  A    between atoms: _38  and  _43
REMARK    7  A    between atoms: _43  and  _46
REMARK    8  A    between atoms: _53  and  _55
REMARK                            x       y       z     vdW  Elec       q    Type
REMARK                         _______ _______ _______ _____ _____    ______ ____
ROOT
ATOM     10  C   UNL     1      94.140  33.531  -4.018  0.00  0.00    +0.038 A 
ATOM     11  C   UNL     1      95.470  33.990  -4.197  0.00  0.00    +0.047 A 
ATOM     12  C   UNL     1      96.305  33.476  -5.271  0.00  0.00    +0.035 A 
ATOM     32  C   UNL     1      95.753  32.496  -6.147  0.00  0.00    +0.024 A 
ATOM     33  C   UNL     1      94.403  32.018  -5.979  0.00  0.00    +0.007 A 
ATOM     34  C   UNL     1      93.575  32.519  -4.920  0.00  0.00    -0.029 A 
ATOM     35  C   UNL     1      92.138  31.966  -4.783  0.00  0.00    +0.045 C 
ENDROOT
BRANCH  10   9
ATOM      4  C   UNL     1      92.168  37.216  -1.659  0.00  0.00    +0.077 A 
ATOM      5  C   UNL     1      92.715  38.174  -2.577  0.00  0.00    +0.048 A 
ATOM      6  C   UNL     1      93.505  37.677  -3.638  0.00  0.00    +0.116 A 
ATOM      7  N   UNL     1      93.723  36.322  -3.763  0.00  0.00    -0.223 NA
ATOM      8  C   UNL     1      93.182  35.426  -2.859  0.00  0.00    +0.220 A 
ATOM      9  N   UNL     1      93.382  34.059  -2.970  0.00  0.00    -0.283 N 
ATOM     36  H   UNL     1      92.972  33.431  -2.279  0.00  0.00    +0.155 HD
ATOM     37  N   UNL     1      92.425  35.875  -1.836  0.00  0.00    -0.214 NA
BRANCH   4   3
ATOM      1  C   UNL     1      90.358  39.252   1.148  0.00  0.00    +0.020 A 
ATOM      2  C   UNL     1      91.201  38.949   0.015  0.00  0.00    +0.013 A 
ATOM      3  C   UNL     1      91.310  37.586  -0.489  0.00  0.00    +0.019 A 
ATOM     38  C   UNL     1      90.547  36.544   0.183  0.00  0.00    +0.120 A 
ATOM     39  N   UNL     1      89.745  36.866   1.273  0.00  0.00    -0.263 NA
ATOM     40  C   UNL     1      89.633  38.174   1.767  0.00  0.00    +0.111 A 
ENDBRANCH   4   3
ENDBRANCH  10   9
BRANCH  12  13
ATOM     13  N   UNL     1      97.665  33.898  -5.496  0.00  0.00    -0.281 N 
ATOM     14  C   UNL     1      98.378  33.877  -6.684  0.00  0.00    +0.248 C 
ATOM     30  O   UNL     1      98.020  33.290  -7.694  0.00  0.00    -0.270 OA
ATOM     31  H   UNL     1      98.164  34.256  -4.681  0.00  0.00    +0.155 HD
BRANCH  14  15
ATOM     15  C   UNL     1      99.683  34.602  -6.756  0.00  0.00    +0.037 A 
ATOM     16  C   UNL     1     100.375  35.044  -5.543  0.00  0.00    +0.013 A 
ATOM     17  C   UNL     1     101.624  35.757  -5.641  0.00  0.00    +0.005 A 
ATOM     18  C   UNL     1     102.191  36.029  -6.960  0.00  0.00    -0.033 A 
ATOM     28  C   UNL     1     101.487  35.574  -8.147  0.00  0.00    +0.005 A 
ATOM     29  C   UNL     1     100.261  34.877  -8.054  0.00  0.00    +0.013 A 
BRANCH  18  19
ATOM     19  C   UNL     1     103.509  36.801  -7.160  0.00  0.00    +0.119 C 
BRANCH  19  20
ATOM     20  N   UNL     1     103.606  37.689  -8.357  0.00  0.00    -0.302 NA
ATOM     21  C   UNL     1     105.058  38.032  -8.702  0.00  0.00    +0.066 C 
ATOM     22  C   UNL     1     105.142  38.942  -9.969  0.00  0.00    -0.064 C 
ATOM     23  N   UNL     1     104.326  40.215  -9.735  0.00  0.00    +0.379 N 
ATOM     24  C   UNL     1     104.451  41.100 -10.903  0.00  0.00    -0.096 C 
ATOM     25  H   UNL     1     104.770  40.745  -8.860  0.00  0.00    -0.082 HD
ATOM     26  C   UNL     1     102.882  39.883  -9.389  0.00  0.00    -0.064 C 
ATOM     27  C   UNL     1     102.810  38.953  -8.146  0.00  0.00    +0.066 C 
ENDBRANCH  19  20
ENDBRANCH  18  19
ENDBRANCH  14  15
ENDBRANCH  12  13
TORSDOF 6
ENDMDL
MODEL 2
REMARK VINA RESULT:     -10.4      2.044      2.468
REMARK  Name = C:\Users\Docking\Desktop\test protocol\1iep_ligandH.pdb
REMARK  8 active torsions:
REMARK  status: ('A' for Active; 'I' for Inactive)
REMARK    1  A    between atoms: _5  and  _11
REMARK    2  A    between atoms: _19  and  _21
REMARK    3  A    between atoms: _22  and  _66
REMARK    4  A    between atoms: _27  and  _30
REMARK    5  A    between atoms: _32  and  _33
REMARK    6  A    between atoms: _38  and  _43
REMARK    7  A    between atoms: _43  and  _46
REMARK    8  A    between atoms: _53  and  _55
REMARK                            x       y       z     vdW  Elec       q    Type
REMARK                         _______ _______ _______ _____ _____    ______ ____
ROOT
ATOM     10  C   UNL     1      94.371  33.649  -4.083  0.00  0.00    +0.038 A 
ATOM     11  C   UNL     1      95.443  34.362  -4.679  0.00  0.00    +0.047 A 
ATOM     12  C   UNL     1      96.140  33.837  -5.842  0.00  0.00    +0.035 A 
ATOM     32  C   UNL     1      95.718  32.585  -6.376  0.00  0.00    +0.024 A 
ATOM     33  C   UNL     1      94.630  31.847  -5.782  0.00  0.00    +0.007 A 
ATOM     34  C   UNL     1      93.940  32.358  -4.633  0.00  0.00    -0.029 A 
ATOM     35  C   UNL     1      92.786  31.521  -4.034  0.00  0.00    +0.045 C 
ENDROOT
BRANCH  10   9
ATOM      4  C   UNL     1      92.016  37.203  -1.877  0.00  0.00    +0.077 A 
ATOM      5  C   UNL     1      92.078  38.044  -3.037  0.00  0.00    +0.048 A 
ATOM      6  C   UNL     1      92.731  37.528  -4.179  0.00  0.00    +0.116 A 
ATOM      7  N   UNL     1      93.277  36.263  -4.151  0.00  0.00    -0.223 NA
ATOM      8  C   UNL     1      93.201  35.478  -3.015  0.00  0.00    +0.220 A 
ATOM      9  N   UNL     1      93.736  34.200  -2.967  0.00  0.00    -0.283 N 
ATOM     36  H   UNL     1      93.666  33.656  -2.108  0.00  0.00    +0.155 HD
ATOM     37  N   UNL     1      92.584  35.949  -1.911  0.00  0.00    -0.214 NA
BRANCH   4   3
ATOM      1  C   UNL     1      90.568  39.331   1.069  0.00  0.00    +0.020 A 
ATOM      2  C   UNL     1      91.214  38.995  -0.180  0.00  0.00    +0.013 A 
ATOM      3  C   UNL     1      91.357  37.605  -0.595  0.00  0.00    +0.019 A 
ATOM     38  C   UNL     1      90.830  36.571   0.283  0.00  0.00    +0.120 A 
ATOM     39  N   UNL     1      90.215  36.924   1.480  0.00  0.00    -0.263 NA
ATOM     40  C   UNL     1      90.073  38.258   1.890  0.00  0.00    +0.111 A 
ENDBRANCH   4   3
ENDBRANCH  10   9
BRANCH  12  13
ATOM     13  N   UNL     1      97.241  34.512  -6.485  0.00  0.00    -0.281 N 
ATOM     14  C   UNL     1      98.587  34.441  -6.165  0.00  0.00    +0.248 C 
ATOM     30  O   UNL     1      99.028  33.950  -5.136  0.00  0.00    -0.270 OA
ATOM     31  H   UNL     1      96.999  35.115  -7.271  0.00  0.00    +0.155 HD
BRANCH  14  15
ATOM     15  C   UNL     1      99.587  35.010  -7.118  0.00  0.00    +0.037 A 
ATOM     16  C   UNL     1     101.005  35.109  -6.763  0.00  0.00    +0.013 A 
ATOM     17  C   UNL     1     101.946  35.678  -7.695  0.00  0.00    +0.005 A 
ATOM     18  C   UNL     1     101.471  36.153  -8.993  0.00  0.00    -0.033 A 
ATOM     28  C   UNL     1     100.060  36.038  -9.321  0.00  0.00    +0.005 A 
ATOM     29  C   UNL     1      99.134  35.482  -8.410  0.00  0.00    +0.013 A 
BRANCH  18  19
ATOM     19  C   UNL     1     102.401  36.793 -10.040  0.00  0.00    +0.119 C 
BRANCH  19  20
ATOM     20  N   UNL     1     103.586  35.999 -10.480  0.00  0.00    -0.302 NA
ATOM     21  C   UNL     1     104.754  36.895 -10.901  0.00  0.00    +0.066 C 
ATOM     22  C   UNL     1     105.994  36.047 -11.336  0.00  0.00    -0.064 C 
ATOM     23  N   UNL     1     105.592  35.109 -12.476  0.00  0.00    +0.379 N 
ATOM     24  C   UNL     1     106.769  34.352 -12.927  0.00  0.00    -0.096 C 
ATOM     25  H   UNL     1     105.249  35.741 -13.328  0.00  0.00    -0.082 HD
ATOM     26  C   UNL     1     104.429  34.216 -12.066  0.00  0.00    -0.064 C 
ATOM     27  C   UNL     1     103.213  35.068 -11.608  0.00  0.00    +0.066 C 
ENDBRANCH  19  20
ENDBRANCH  18  19
ENDBRANCH  14  15
ENDBRANCH  12  13
TORSDOF 6
ENDMDL
MODEL 3
REMARK VINA RESULT:      -9.8      3.871      4.651
REMARK  Name = C:\Users\Docking\Desktop\test protocol\1iep_ligandH.pdb
REMARK  8 active torsions:
REMARK  status: ('A' for Active; 'I' for Inactive)
REMARK    1  A    between atoms: _5  and  _11
REMARK    2  A    between atoms: _19  and  _21
REMARK    3  A    between atoms: _22  and  _66
REMARK    4  A    between atoms: _27  and  _30
REMARK    5  A    between atoms: _32  and  _33
REMARK    6  A    between atoms: _38  and  _43
REMARK    7  A    between atoms: _43  and  _46
REMARK    8  A    between atoms: _53  and  _55
REMARK                            x       y       z     vdW  Elec       q    Type
REMARK                         _______ _______ _______ _____ _____    ______ ____
ROOT
ATOM     10  C   UNL     1      92.960  35.727  -6.571  0.00  0.00    +0.038 A 
ATOM     11  C   UNL     1      93.866  36.617  -7.203  0.00  0.00    +0.047 A 
ATOM     12  C   UNL     1      94.625  36.211  -8.375  0.00  0.00    +0.035 A 
ATOM     32  C   UNL     1      94.435  34.892  -8.880  0.00  0.00    +0.024 A 
ATOM     33  C   UNL     1      93.519  33.974  -8.250  0.00  0.00    +0.007 A 
ATOM     34  C   UNL     1      92.769  34.368  -7.091  0.00  0.00    -0.029 A 
ATOM     35  C   UNL     1      91.806  33.340  -6.452  0.00  0.00    +0.045 C 
ENDROOT
BRANCH  10   9
ATOM      4  C   UNL     1      92.612  36.576  -1.860  0.00  0.00    +0.077 A 
ATOM      5  C   UNL     1      93.931  36.071  -1.611  0.00  0.00    +0.048 A 
ATOM      6  C   UNL     1      94.664  35.596  -2.722  0.00  0.00    +0.116 A 
ATOM      7  N   UNL     1      94.109  35.628  -3.982  0.00  0.00    -0.223 NA
ATOM      8  C   UNL     1      92.833  36.120  -4.187  0.00  0.00    +0.220 A 
ATOM      9  N   UNL     1      92.258  36.169  -5.448  0.00  0.00    -0.283 N 
ATOM     36  H   UNL     1      91.311  36.533  -5.556  0.00  0.00    +0.155 HD
ATOM     37  N   UNL     1      92.112  36.578  -3.143  0.00  0.00    -0.214 NA
BRANCH   4   3
ATOM      1  C   UNL     1      90.755  39.004   0.581  0.00  0.00    +0.020 A 
ATOM      2  C   UNL     1      91.639  38.534  -0.461  0.00  0.00    +0.013 A 
ATOM      3  C   UNL     1      91.715  37.116  -0.790  0.00  0.00    +0.019 A 
ATOM     38  C   UNL     1      90.877  36.193  -0.039  0.00  0.00    +0.120 A 
ATOM     39  N   UNL     1      90.037  36.674   0.960  0.00  0.00    -0.263 NA
ATOM     40  C   UNL     1      89.956  38.036   1.286  0.00  0.00    +0.111 A 
ENDBRANCH   4   3
ENDBRANCH  10   9
BRANCH  12  13
ATOM     13  N   UNL     1      95.565  37.069  -9.054  0.00  0.00    -0.281 N 
ATOM     14  C   UNL     1      95.396  37.733 -10.258  0.00  0.00    +0.248 C 
ATOM     30  O   UNL     1      94.485  37.519 -11.043  0.00  0.00    -0.270 OA
ATOM     31  H   UNL     1      96.464  37.202  -8.591  0.00  0.00    +0.155 HD
BRANCH  14  15
ATOM     15  C   UNL     1      96.392  38.776 -10.653  0.00  0.00    +0.037 A 
ATOM     16  C   UNL     1      97.764  38.750 -10.139  0.00  0.00    +0.013 A 
ATOM     17  C   UNL     1      98.699  39.778 -10.523  0.00  0.00    +0.005 A 
ATOM     18  C   UNL     1      98.265  40.840 -11.427  0.00  0.00    -0.033 A 
ATOM     28  C   UNL     1      96.900  40.838 -11.926  0.00  0.00    +0.005 A 
ATOM     29  C   UNL     1      95.980  39.833 -11.551  0.00  0.00    +0.013 A 
BRANCH  18  19
ATOM     19  C   UNL     1      99.189  41.988 -11.873  0.00  0.00    +0.119 C 
BRANCH  19  20
ATOM     20  N   UNL     1     100.417  41.620 -12.639  0.00  0.00    -0.302 NA
ATOM     21  C   UNL     1     100.167  40.450 -13.596  0.00  0.00    +0.066 C 
ATOM     22  C   UNL     1     101.456  40.093 -14.406  0.00  0.00    -0.064 C 
ATOM     23  N   UNL     1     102.591  39.766 -13.435  0.00  0.00    +0.379 N 
ATOM     24  C   UNL     1     103.788  39.374 -14.193  0.00  0.00    -0.096 C 
ATOM     25  H   UNL     1     102.273  38.888 -12.826  0.00  0.00    -0.082 HD
ATOM     26  C   UNL     1     102.844  40.923 -12.478  0.00  0.00    -0.064 C 
ATOM     27  C   UNL     1     101.550  41.289 -11.700  0.00  0.00    +0.066 C 
ENDBRANCH  19  20
ENDBRANCH  18  19
ENDBRANCH  14  15
ENDBRANCH  12  13
TORSDOF 6
ENDMDL
MODEL 4
REMARK VINA RESULT:      -9.4     16.165     18.508
REMARK  Name = C:\Users\Docking\Desktop\test protocol\1iep_ligandH.pdb
REMARK  8 active torsions:
REMARK  status: ('A' for Active; 'I' for Inactive)
REMARK    1  A    between atoms: _5  and  _11
REMARK    2  A    between atoms: _19  and  _21
REMARK    3  A    between atoms: _22  and  _66
REMARK    4  A    between atoms: _27  and  _30
REMARK    5  A    between atoms: _32  and  _33
REMARK    6  A    between atoms: _38  and  _43
REMARK    7  A    between atoms: _43  and  _46
REMARK    8  A    between atoms: _53  and  _55
REMARK                            x       y       z     vdW  Elec       q    Type
REMARK                         _______ _______ _______ _____ _____    ______ ____
ROOT
ATOM     10  C   UNL     1      78.226  32.561 -10.187  0.00  0.00    +0.038 A 
ATOM     11  C   UNL     1      79.017  32.761 -11.348  0.00  0.00    +0.047 A 
ATOM     12  C   UNL     1      79.145  34.077 -11.953  0.00  0.00    +0.035 A 
ATOM     32  C   UNL     1      78.457  35.169 -11.348  0.00  0.00    +0.024 A 
ATOM     33  C   UNL     1      77.649  34.983 -10.168  0.00  0.00    +0.007 A 
ATOM     34  C   UNL     1      77.516  33.687  -9.568  0.00  0.00    -0.029 A 
ATOM     35  C   UNL     1      76.631  33.545  -8.308  0.00  0.00    +0.045 C 
ENDROOT
BRANCH  10   9
ATOM      4  C   UNL     1      79.814  29.057  -7.317  0.00  0.00    +0.077 A 
ATOM      5  C   UNL     1      80.929  29.844  -6.874  0.00  0.00    +0.048 A 
ATOM      6  C   UNL     1      81.062  31.142  -7.415  0.00  0.00    +0.116 A 
ATOM      7  N   UNL     1      80.142  31.609  -8.329  0.00  0.00    -0.223 NA
ATOM      8  C   UNL     1      79.079  30.823  -8.736  0.00  0.00    +0.220 A 
ATOM      9  N   UNL     1      78.138  31.275  -9.648  0.00  0.00    -0.283 N 
ATOM     36  H   UNL     1      77.373  30.662  -9.928  0.00  0.00    +0.155 HD
ATOM     37  N   UNL     1      78.931  29.579  -8.235  0.00  0.00    -0.214 NA
BRANCH   4   3
ATOM      1  C   UNL     1      78.173  25.975  -5.552  0.00  0.00    +0.020 A 
ATOM      2  C   UNL     1      78.397  27.334  -5.990  0.00  0.00    +0.013 A 
ATOM      3  C   UNL     1      79.537  27.667  -6.835  0.00  0.00    +0.019 A 
ATOM     38  C   UNL     1      80.438  26.592  -7.223  0.00  0.00    +0.120 A 
ATOM     39  N   UNL     1      80.199  25.294  -6.785  0.00  0.00    -0.263 NA
ATOM     40  C   UNL     1      79.106  24.962  -5.970  0.00  0.00    +0.111 A 
ENDBRANCH   4   3
ENDBRANCH  10   9
BRANCH  12  13
ATOM     13  N   UNL     1      79.927  34.340 -13.136  0.00  0.00    -0.281 N 
ATOM     14  C   UNL     1      81.301  34.480 -13.235  0.00  0.00    +0.248 C 
ATOM     30  O   UNL     1      82.053  34.614 -12.280  0.00  0.00    -0.270 OA
ATOM     31  H   UNL     1      79.403  34.433 -14.006  0.00  0.00    +0.155 HD
BRANCH  14  15
ATOM     15  C   UNL     1      81.931  34.487 -14.590  0.00  0.00    +0.037 A 
ATOM     16  C   UNL     1      82.492  33.266 -15.174  0.00  0.00    +0.013 A 
ATOM     17  C   UNL     1      83.109  33.304 -16.476  0.00  0.00    +0.005 A 
ATOM     18  C   UNL     1      83.166  34.569 -17.205  0.00  0.00    -0.033 A 
ATOM     28  C   UNL     1      82.597  35.765 -16.604  0.00  0.00    +0.005 A 
ATOM     29  C   UNL     1      81.993  35.731 -15.328  0.00  0.00    +0.013 A 
BRANCH  18  19
ATOM     19  C   UNL     1      83.824  34.708 -18.590  0.00  0.00    +0.119 C 
BRANCH  19  20
ATOM     20  N   UNL     1      85.277  35.051 -18.626  0.00  0.00    -0.302 NA
ATOM     21  C   UNL     1      85.535  36.384 -19.335  0.00  0.00    +0.066 C 
ATOM     22  C   UNL     1      87.057  36.738 -19.344  0.00  0.00    -0.064 C 
ATOM     23  N   UNL     1      87.838  35.608 -20.016  0.00  0.00    +0.379 N 
ATOM     24  C   UNL     1      89.263  35.964 -20.078  0.00  0.00    -0.096 C 
ATOM     25  H   UNL     1      87.466  35.516 -21.063  0.00  0.00    -0.082 HD
ATOM     26  C   UNL     1      87.585  34.278 -19.319  0.00  0.00    -0.064 C 
ATOM     27  C   UNL     1      86.066  33.949 -19.290  0.00  0.00    +0.066 C 
ENDBRANCH  19  20
ENDBRANCH  18  19
ENDBRANCH  14  15
ENDBRANCH  12  13
TORSDOF 6
ENDMDL
MODEL 5
REMARK VINA RESULT:      -9.1     22.651     26.525
REMARK  Name = C:\Users\Docking\Desktop\test protocol\1iep_ligandH.pdb
REMARK  8 active torsions:
REMARK  status: ('A' for Active; 'I' for Inactive)
REMARK    1  A    between atoms: _5  and  _11
REMARK    2  A    between atoms: _19  and  _21
REMARK    3  A    between atoms: _22  and  _66
REMARK    4  A    between atoms: _27  and  _30
REMARK    5  A    between atoms: _32  and  _33
REMARK    6  A    between atoms: _38  and  _43
REMARK    7  A    between atoms: _43  and  _46
REMARK    8  A    between atoms: _53  and  _55
REMARK                            x       y       z     vdW  Elec       q    Type
REMARK                         _______ _______ _______ _____ _____    ______ ____
ROOT
ATOM     10  C   UNL     1     113.748  34.961   9.912  0.00  0.00    +0.038 A 
ATOM     11  C   UNL     1     113.942  34.060  10.991  0.00  0.00    +0.047 A 
ATOM     12  C   UNL     1     113.566  34.421  12.349  0.00  0.00    +0.035 A 
ATOM     32  C   UNL     1     112.993  35.707  12.572  0.00  0.00    +0.024 A 
ATOM     33  C   UNL     1     112.790  36.635  11.488  0.00  0.00    +0.007 A 
ATOM     34  C   UNL     1     113.161  36.286  10.146  0.00  0.00    -0.029 A 
ATOM     35  C   UNL     1     112.927  37.322   9.023  0.00  0.00    +0.045 C 
ENDROOT
BRANCH  10   9
ATOM      4  C   UNL     1     113.535  31.951   6.180  0.00  0.00    +0.077 A 
ATOM      5  C   UNL     1     112.611  31.085   6.855  0.00  0.00    +0.048 A 
ATOM      6  C   UNL     1     112.222  31.446   8.164  0.00  0.00    +0.116 A 
ATOM      7  N   UNL     1     112.725  32.590   8.745  0.00  0.00    -0.223 NA
ATOM      8  C   UNL     1     113.615  33.402   8.067  0.00  0.00    +0.220 A 
ATOM      9  N   UNL     1     114.127  34.562   8.628  0.00  0.00    -0.283 N 
ATOM     36  H   UNL     1     114.787  35.130   8.098  0.00  0.00    +0.155 HD
ATOM     37  N   UNL     1     114.004  33.078   6.816  0.00  0.00    -0.214 NA
BRANCH   4   3
ATOM      1  C   UNL     1     114.216  32.285   2.342  0.00  0.00    +0.020 A 
ATOM      2  C   UNL     1     113.703  32.566   3.663  0.00  0.00    +0.013 A 
ATOM      3  C   UNL     1     114.039  31.706   4.791  0.00  0.00    +0.019 A 
ATOM     38  C   UNL     1     114.903  30.561   4.547  0.00  0.00    +0.120 A 
ATOM     39  N   UNL     1     115.381  30.315   3.263  0.00  0.00    -0.263 NA
ATOM     40  C   UNL     1     115.064  31.135   2.170  0.00  0.00    +0.111 A 
ENDBRANCH   4   3
ENDBRANCH  10   9
BRANCH  12  13
ATOM     13  N   UNL     1     113.746  33.552  13.485  0.00  0.00    -0.281 N 
ATOM     14  C   UNL     1     112.916  33.404  14.584  0.00  0.00    +0.248 C 
ATOM     30  O   UNL     1     111.995  34.157  14.861  0.00  0.00    -0.270 OA
ATOM     31  H   UNL     1     114.588  32.976  13.478  0.00  0.00    +0.155 HD
BRANCH  14  15
ATOM     15  C   UNL     1     113.153  32.262  15.519  0.00  0.00    +0.037 A 
ATOM     16  C   UNL     1     114.459  32.053  16.148  0.00  0.00    +0.013 A 
ATOM     17  C   UNL     1     114.666  30.934  17.033  0.00  0.00    +0.005 A 
ATOM     18  C   UNL     1     113.560  30.015  17.295  0.00  0.00    -0.033 A 
ATOM     28  C   UNL     1     112.273  30.249  16.662  0.00  0.00    +0.005 A 
ATOM     29  C   UNL     1     112.068  31.344  15.793  0.00  0.00    +0.013 A 
BRANCH  18  19
ATOM     19  C   UNL     1     113.696  28.783  18.208  0.00  0.00    +0.119 C 
BRANCH  19  20
ATOM     20  N   UNL     1     113.195  27.480  17.678  0.00  0.00    -0.302 NA
ATOM     21  C   UNL     1     112.700  26.556  18.795  0.00  0.00    +0.066 C 
ATOM     22  C   UNL     1     112.159  25.207  18.220  0.00  0.00    -0.064 C 
ATOM     23  N   UNL     1     113.258  24.527  17.402  0.00  0.00    +0.379 N 
ATOM     24  C   UNL     1     112.771  23.230  16.909  0.00  0.00    -0.096 C 
ATOM     25  H   UNL     1     114.115  24.328  18.087  0.00  0.00    -0.082 HD
ATOM     26  C   UNL     1     113.758  25.439  16.291  0.00  0.00    -0.064 C 
ATOM     27  C   UNL     1     114.266  26.789  16.870  0.00  0.00    +0.066 C 
ENDBRANCH  19  20
ENDBRANCH  18  19
ENDBRANCH  14  15
ENDBRANCH  12  13
TORSDOF 6
ENDMDL
