MODEL 1
REMARK VINA RESULT:     -10.4      0.000      0.000
REMARK  Name = C:\Users\Docking\Desktop\test protocol\1iep_ligandH.pdb
REMARK  8 active torsions:
REMARK  status: ('A' for Active; 'I' for Inactive)
REMARK    1  A    between atoms: _5  and  _11
REMARK    2  A    between atoms: _19  and  _21
REMARK    3  A    between atoms: _22  and  _66
REMARK    4  A    between atoms: _27  and  _30
REMARK    5  A    between atoms: _32  and  _33
REMARK    6  A    between atoms: _38  and  _43
REMARK    7  A    between atoms: _43  and  _46
REMARK    8  A    between atoms: _53  and  _55
REMARK                            x       y       z     vdW  Elec       q    Type
REMARK                         _______ _______ _______ _____ _____    ______ ____
ROOT
ATOM     10  C   UNL     1      -3.761 -25.737  12.138  0.00  0.00    +0.038 A 
ATOM     11  C   UNL     1      -3.478 -24.924  11.011  0.00  0.00    +0.047 A 
ATOM     12  C   UNL     1      -2.162 -24.335  10.819  0.00  0.00    +0.035 A 
ATOM     32  C   UNL     1      -1.156 -24.596  11.795  0.00  0.00    +0.024 A 
ATOM     33  C   UNL     1      -1.427 -25.419  12.948  0.00  0.00    +0.007 A 
ATOM     34  C   UNL     1      -2.724 -26.001  13.143  0.00  0.00    -0.029 A 
ATOM     35  C   UNL     1      -2.960 -26.869  14.401  0.00  0.00    +0.045 C 
ENDROOT
BRANCH  10   9
ATOM      4  C   UNL     1      -8.451 -25.328  13.074  0.00  0.00    +0.077 A 
ATOM      5  C   UNL     1      -8.335 -23.924  13.345  0.00  0.00    +0.048 A 
ATOM      6  C   UNL     1      -7.049 -23.347  13.240  0.00  0.00    +0.116 A 
ATOM      7  N   UNL     1      -5.968 -24.125  12.888  0.00  0.00    -0.223 NA
ATOM      8  C   UNL     1      -6.115 -25.477  12.635  0.00  0.00    +0.220 A 
ATOM      9  N   UNL     1      -5.042 -26.277  12.272  0.00  0.00    -0.283 N 
ATOM     36  H   UNL     1      -5.190 -27.271  12.101  0.00  0.00    +0.155 HD
ATOM     37  N   UNL     1      -7.331 -26.052  12.730  0.00  0.00    -0.214 NA
BRANCH   4   3
ATOM      1  C   UNL     1     -12.224 -26.305  12.744  0.00  0.00    +0.020 A 
ATOM      2  C   UNL     1     -11.005 -25.535  12.657  0.00  0.00    +0.013 A 
ATOM      3  C   UNL     1      -9.743 -26.082  13.140  0.00  0.00    +0.019 A 
ATOM     38  C   UNL     1      -9.750 -27.421  13.710  0.00  0.00    +0.120 A 
ATOM     39  N   UNL     1     -10.940 -28.138  13.782  0.00  0.00    -0.263 NA
ATOM     40  C   UNL     1     -12.160 -27.621  13.321  0.00  0.00    +0.111 A 
ENDBRANCH   4   3
ENDBRANCH  10   9
BRANCH  12  13
ATOM     13  N   UNL     1      -1.818 -23.495   9.698  0.00  0.00    -0.281 N 
ATOM     14  C   UNL     1      -2.164 -22.170   9.490  0.00  0.00    +0.248 C 
ATOM     30  O   UNL     1      -3.004 -21.565  10.138  0.00  0.00    -0.270 OA
ATOM     31  H   UNL     1      -1.252 -23.931   8.970  0.00  0.00    +0.155 HD
BRANCH  14  15
ATOM     15  C   UNL     1      -1.487 -21.412   8.394  0.00  0.00    +0.037 A 
ATOM     16  C   UNL     1      -0.159 -20.822   8.585  0.00  0.00    +0.013 A 
ATOM     17  C   UNL     1       0.463 -20.081   7.517  0.00  0.00    +0.005 A 
ATOM     18  C   UNL     1      -0.242 -19.926   6.247  0.00  0.00    -0.033 A 
ATOM     28  C   UNL     1      -1.556 -20.526   6.083  0.00  0.00    +0.005 A 
ATOM     29  C   UNL     1      -2.170 -21.252   7.128  0.00  0.00    +0.013 A 
BRANCH  18  19
ATOM     19  C   UNL     1       0.337 -19.134   5.060  0.00  0.00    +0.119 C 
BRANCH  19  20
ATOM     20  N   UNL     1       0.007 -19.620   3.687  0.00  0.00    -0.302 NA
ATOM     21  C   UNL     1       0.838 -20.844   3.295  0.00  0.00    +0.066 C 
ATOM     22  C   UNL     1       0.463 -21.353   1.865  0.00  0.00    -0.064 C 
ATOM     23  N   UNL     1       0.659 -20.220   0.856  0.00  0.00    +0.379 N 
ATOM     24  C   UNL     1       0.363 -20.711  -0.498  0.00  0.00    -0.096 C 
ATOM     25  H   UNL     1       1.734 -19.926   0.882  0.00  0.00    -0.082 HD
ATOM     26  C   UNL     1      -0.162 -18.997   1.240  0.00  0.00    -0.064 C 
ATOM     27  C   UNL     1       0.197 -18.518   2.674  0.00  0.00    +0.066 C 
ENDBRANCH  19  20
ENDBRANCH  18  19
ENDBRANCH  14  15
ENDBRANCH  12  13
TORSDOF 6
ENDMDL
MODEL 2
REMARK VINA RESULT:     -10.3      6.528     14.364
REMARK  Name = C:\Users\Docking\Desktop\test protocol\1iep_ligandH.pdb
REMARK  8 active torsions:
REMARK  status: ('A' for Active; 'I' for Inactive)
REMARK    1  A    between atoms: _5  and  _11
REMARK    2  A    between atoms: _19  and  _21
REMARK    3  A    between atoms: _22  and  _66
REMARK    4  A    between atoms: _27  and  _30
REMARK    5  A    between atoms: _32  and  _33
REMARK    6  A    between atoms: _38  and  _43
REMARK    7  A    between atoms: _43  and  _46
REMARK    8  A    between atoms: _53  and  _55
REMARK                            x       y       z     vdW  Elec       q    Type
REMARK                         _______ _______ _______ _____ _____    ______ ____
ROOT
ATOM     10  C   UNL     1      -9.055 -24.912  13.017  0.00  0.00    +0.038 A 
ATOM     11  C   UNL     1      -8.555 -26.172  13.435  0.00  0.00    +0.047 A 
ATOM     12  C   UNL     1      -9.227 -27.408  13.067  0.00  0.00    +0.035 A 
ATOM     32  C   UNL     1     -10.405 -27.325  12.269  0.00  0.00    +0.024 A 
ATOM     33  C   UNL     1     -10.928 -26.053  11.836  0.00  0.00    +0.007 A 
ATOM     34  C   UNL     1     -10.271 -24.830  12.199  0.00  0.00    -0.029 A 
ATOM     35  C   UNL     1     -10.880 -23.494  11.712  0.00  0.00    +0.045 C 
ENDROOT
BRANCH  10   9
ATOM      4  C   UNL     1      -5.581 -21.656  12.412  0.00  0.00    +0.077 A 
ATOM      5  C   UNL     1      -5.072 -22.328  11.251  0.00  0.00    +0.048 A 
ATOM      6  C   UNL     1      -5.728 -23.512  10.847  0.00  0.00    +0.116 A 
ATOM      7  N   UNL     1      -6.812 -23.980  11.558  0.00  0.00    -0.223 NA
ATOM      8  C   UNL     1      -7.276 -23.309  12.674  0.00  0.00    +0.220 A 
ATOM      9  N   UNL     1      -8.369 -23.757  13.399  0.00  0.00    -0.283 N 
ATOM     36  H   UNL     1      -8.677 -23.237  14.221  0.00  0.00    +0.155 HD
ATOM     37  N   UNL     1      -6.666 -22.176  13.081  0.00  0.00    -0.214 NA
BRANCH   4   3
ATOM      1  C   UNL     1      -3.584 -18.311  12.765  0.00  0.00    +0.020 A 
ATOM      2  C   UNL     1      -4.120 -19.522  12.187  0.00  0.00    +0.013 A 
ATOM      3  C   UNL     1      -4.997 -20.391  12.961  0.00  0.00    +0.019 A 
ATOM     38  C   UNL     1      -5.315 -20.003  14.327  0.00  0.00    +0.120 A 
ATOM     39  N   UNL     1      -4.782 -18.833  14.857  0.00  0.00    -0.263 NA
ATOM     40  C   UNL     1      -3.935 -17.989  14.122  0.00  0.00    +0.111 A 
ENDBRANCH   4   3
ENDBRANCH  10   9
BRANCH  12  13
ATOM     13  N   UNL     1      -8.770 -28.715  13.468  0.00  0.00    -0.281 N 
ATOM     14  C   UNL     1      -9.238 -29.498  14.511  0.00  0.00    +0.248 C 
ATOM     30  O   UNL     1      -9.983 -29.099  15.394  0.00  0.00    -0.270 OA
ATOM     31  H   UNL     1      -8.009 -29.112  12.917  0.00  0.00    +0.155 HD
BRANCH  14  15
ATOM     15  C   UNL     1      -8.806 -30.926  14.592  0.00  0.00    +0.037 A 
ATOM     16  C   UNL     1      -8.392 -31.664  13.396  0.00  0.00    +0.013 A 
ATOM     17  C   UNL     1      -7.996 -33.046  13.500  0.00  0.00    +0.005 A 
ATOM     18  C   UNL     1      -8.012 -33.700  14.807  0.00  0.00    -0.033 A 
ATOM     28  C   UNL     1      -8.422 -32.942  15.978  0.00  0.00    +0.005 A 
ATOM     29  C   UNL     1      -8.812 -31.588  15.880  0.00  0.00    +0.013 A 
BRANCH  18  19
ATOM     19  C   UNL     1      -7.626 -35.177  15.008  0.00  0.00    +0.119 C 
BRANCH  19  20
ATOM     20  N   UNL     1      -8.729 -36.183  14.975  0.00  0.00    -0.302 NA
ATOM     21  C   UNL     1     -10.077 -35.545  14.626  0.00  0.00    +0.066 C 
ATOM     22  C   UNL     1     -11.216 -36.615  14.574  0.00  0.00    -0.064 C 
ATOM     23  N   UNL     1     -11.292 -37.342  15.917  0.00  0.00    +0.379 N 
ATOM     24  C   UNL     1     -12.399 -38.308  15.891  0.00  0.00    -0.096 C 
ATOM     25  H   UNL     1     -11.524 -36.582  16.700  0.00  0.00    -0.082 HD
ATOM     26  C   UNL     1      -9.955 -37.976  16.273  0.00  0.00    -0.064 C 
ATOM     27  C   UNL     1      -8.825 -36.909  16.294  0.00  0.00    +0.066 C 
ENDBRANCH  19  20
ENDBRANCH  18  19
ENDBRANCH  14  15
ENDBRANCH  12  13
TORSDOF 6
ENDMDL
MODEL 3
REMARK VINA RESULT:     -10.3      3.366      4.028
REMARK  Name = C:\Users\Docking\Desktop\test protocol\1iep_ligandH.pdb
REMARK  8 active torsions:
REMARK  status: ('A' for Active; 'I' for Inactive)
REMARK    1  A    between atoms: _5  and  _11
REMARK    2  A    between atoms: _19  and  _21
REMARK    3  A    between atoms: _22  and  _66
REMARK    4  A    between atoms: _27  and  _30
REMARK    5  A    between atoms: _32  and  _33
REMARK    6  A    between atoms: _38  and  _43
REMARK    7  A    between atoms: _43  and  _46
REMARK    8  A    between atoms: _53  and  _55
REMARK                            x       y       z     vdW  Elec       q    Type
REMARK                         _______ _______ _______ _____ _____    ______ ____
ROOT
ATOM     10  C   UNL     1      -4.826 -20.169  12.477  0.00  0.00    +0.038 A 
ATOM     11  C   UNL     1      -4.159 -19.834  11.271  0.00  0.00    +0.047 A 
ATOM     12  C   UNL     1      -3.263 -18.690  11.199  0.00  0.00    +0.035 A 
ATOM     32  C   UNL     1      -3.067 -17.910  12.376  0.00  0.00    +0.024 A 
ATOM     33  C   UNL     1      -3.737 -18.236  13.610  0.00  0.00    +0.007 A 
ATOM     34  C   UNL     1      -4.624 -19.361  13.686  0.00  0.00    -0.029 A 
ATOM     35  C   UNL     1      -5.321 -19.660  15.034  0.00  0.00    +0.045 C 
ENDROOT
BRANCH  10   9
ATOM      4  C   UNL     1      -9.187 -22.163  12.274  0.00  0.00    +0.077 A 
ATOM      5  C   UNL     1      -9.830 -20.886  12.160  0.00  0.00    +0.048 A 
ATOM      6  C   UNL     1      -9.004 -19.740  12.165  0.00  0.00    +0.116 A 
ATOM      7  N   UNL     1      -7.637 -19.873  12.275  0.00  0.00    -0.223 NA
ATOM      8  C   UNL     1      -7.048 -21.120  12.385  0.00  0.00    +0.220 A 
ATOM      9  N   UNL     1      -5.675 -21.278  12.490  0.00  0.00    -0.283 N 
ATOM     36  H   UNL     1      -5.280 -22.214  12.576  0.00  0.00    +0.155 HD
ATOM     37  N   UNL     1      -7.816 -22.229  12.385  0.00  0.00    -0.214 NA
BRANCH   4   3
ATOM      1  C   UNL     1     -11.841 -24.954  11.590  0.00  0.00    +0.020 A 
ATOM      2  C   UNL     1     -11.168 -23.676  11.551  0.00  0.00    +0.013 A 
ATOM      3  C   UNL     1      -9.924 -23.466  12.281  0.00  0.00    +0.019 A 
ATOM     38  C   UNL     1      -9.382 -24.579  13.046  0.00  0.00    +0.120 A 
ATOM     39  N   UNL     1     -10.053 -25.798  13.066  0.00  0.00    -0.263 NA
ATOM     40  C   UNL     1     -11.251 -26.011  12.369  0.00  0.00    +0.111 A 
ENDBRANCH   4   3
ENDBRANCH  10   9
BRANCH  12  13
ATOM     13  N   UNL     1      -2.565 -18.297  10.000  0.00  0.00    -0.281 N 
ATOM     14  C   UNL     1      -1.204 -18.349   9.751  0.00  0.00    +0.248 C 
ATOM     30  O   UNL     1      -0.352 -18.543  10.606  0.00  0.00    -0.270 OA
ATOM     31  H   UNL     1      -3.146 -17.936   9.242  0.00  0.00    +0.155 HD
BRANCH  14  15
ATOM     15  C   UNL     1      -0.716 -18.140   8.354  0.00  0.00    +0.037 A 
ATOM     16  C   UNL     1      -0.644 -16.800   7.766  0.00  0.00    +0.013 A 
ATOM     17  C   UNL     1      -0.186 -16.629   6.410  0.00  0.00    +0.005 A 
ATOM     18  C   UNL     1       0.205 -17.802   5.632  0.00  0.00    -0.033 A 
ATOM     28  C   UNL     1       0.128 -19.120   6.242  0.00  0.00    +0.005 A 
ATOM     29  C   UNL     1      -0.322 -19.291   7.570  0.00  0.00    +0.013 A 
BRANCH  18  19
ATOM     19  C   UNL     1       0.685 -17.716   4.172  0.00  0.00    +0.119 C 
BRANCH  19  20
ATOM     20  N   UNL     1       0.459 -18.911   3.306  0.00  0.00    -0.302 NA
ATOM     21  C   UNL     1       1.411 -18.940   2.106  0.00  0.00    +0.066 C 
ATOM     22  C   UNL     1       1.177 -20.209   1.224  0.00  0.00    -0.064 C 
ATOM     23  N   UNL     1      -0.281 -20.241   0.759  0.00  0.00    +0.379 N 
ATOM     24  C   UNL     1      -0.490 -21.402  -0.118  0.00  0.00    -0.096 C 
ATOM     25  H   UNL     1      -0.463 -19.322   0.155  0.00  0.00    -0.082 HD
ATOM     26  C   UNL     1      -1.234 -20.210   1.946  0.00  0.00    -0.064 C 
ATOM     27  C   UNL     1      -0.973 -18.961   2.832  0.00  0.00    +0.066 C 
ENDBRANCH  19  20
ENDBRANCH  18  19
ENDBRANCH  14  15
ENDBRANCH  12  13
TORSDOF 6
ENDMDL
MODEL 4
REMARK VINA RESULT:     -10.2      5.818     13.151
REMARK  Name = C:\Users\Docking\Desktop\test protocol\1iep_ligandH.pdb
REMARK  8 active torsions:
REMARK  status: ('A' for Active; 'I' for Inactive)
REMARK    1  A    between atoms: _5  and  _11
REMARK    2  A    between atoms: _19  and  _21
REMARK    3  A    between atoms: _22  and  _66
REMARK    4  A    between atoms: _27  and  _30
REMARK    5  A    between atoms: _32  and  _33
REMARK    6  A    between atoms: _38  and  _43
REMARK    7  A    between atoms: _43  and  _46
REMARK    8  A    between atoms: _53  and  _55
REMARK                            x       y       z     vdW  Elec       q    Type
REMARK                         _______ _______ _______ _____ _____    ______ ____
ROOT
ATOM     10  C   UNL     1      -8.762 -22.373  12.678  0.00  0.00    +0.038 A 
ATOM     11  C   UNL     1      -8.596 -23.682  13.199  0.00  0.00    +0.047 A 
ATOM     12  C   UNL     1      -9.606 -24.708  12.991  0.00  0.00    +0.035 A 
ATOM     32  C   UNL     1     -10.772 -24.367  12.247  0.00  0.00    +0.024 A 
ATOM     33  C   UNL     1     -10.958 -23.041  11.711  0.00  0.00    +0.007 A 
ATOM     34  C   UNL     1      -9.966 -22.024  11.915  0.00  0.00    -0.029 A 
ATOM     35  C   UNL     1     -10.220 -20.618  11.324  0.00  0.00    +0.045 C 
ENDROOT
BRANCH  10   9
ATOM      4  C   UNL     1      -4.716 -20.108  11.439  0.00  0.00    +0.077 A 
ATOM      5  C   UNL     1      -4.571 -20.894  10.247  0.00  0.00    +0.048 A 
ATOM      6  C   UNL     1      -5.555 -21.875   9.994  0.00  0.00    +0.116 A 
ATOM      7  N   UNL     1      -6.602 -22.049  10.873  0.00  0.00    -0.223 NA
ATOM      8  C   UNL     1      -6.711 -21.275  12.014  0.00  0.00    +0.220 A 
ATOM      9  N   UNL     1      -7.760 -21.427  12.908  0.00  0.00    -0.283 N 
ATOM     36  H   UNL     1      -7.801 -20.842  13.741  0.00  0.00    +0.155 HD
ATOM     37  N   UNL     1      -5.783 -20.332  12.279  0.00  0.00    -0.214 NA
BRANCH   4   3
ATOM      1  C   UNL     1      -2.893 -17.301  13.463  0.00  0.00    +0.020 A 
ATOM      2  C   UNL     1      -3.842 -18.335  13.121  0.00  0.00    +0.013 A 
ATOM      3  C   UNL     1      -3.759 -19.029  11.843  0.00  0.00    +0.019 A 
ATOM     38  C   UNL     1      -2.695 -18.652  10.925  0.00  0.00    +0.120 A 
ATOM     39  N   UNL     1      -1.795 -17.651  11.281  0.00  0.00    -0.263 NA
ATOM     40  C   UNL     1      -1.867 -16.974  12.508  0.00  0.00    +0.111 A 
ENDBRANCH   4   3
ENDBRANCH  10   9
BRANCH  12  13
ATOM     13  N   UNL     1      -9.496 -26.052  13.503  0.00  0.00    -0.281 N 
ATOM     14  C   UNL     1     -10.478 -27.027  13.552  0.00  0.00    +0.248 C 
ATOM     30  O   UNL     1     -11.667 -26.821  13.358  0.00  0.00    -0.270 OA
ATOM     31  H   UNL     1      -8.583 -26.316  13.873  0.00  0.00    +0.155 HD
BRANCH  14  15
ATOM     15  C   UNL     1     -10.085 -28.432  13.878  0.00  0.00    +0.037 A 
ATOM     16  C   UNL     1      -8.765 -28.955  13.517  0.00  0.00    +0.013 A 
ATOM     17  C   UNL     1      -8.418 -30.319  13.828  0.00  0.00    +0.005 A 
ATOM     18  C   UNL     1      -9.393 -31.169  14.507  0.00  0.00    -0.033 A 
ATOM     28  C   UNL     1     -10.693 -30.623  14.858  0.00  0.00    +0.005 A 
ATOM     29  C   UNL     1     -11.037 -29.287  14.554  0.00  0.00    +0.013 A 
BRANCH  18  19
ATOM     19  C   UNL     1      -9.116 -32.643  14.859  0.00  0.00    +0.119 C 
BRANCH  19  20
ATOM     20  N   UNL     1      -8.243 -33.416  13.926  0.00  0.00    -0.302 NA
ATOM     21  C   UNL     1      -8.726 -34.859  13.751  0.00  0.00    +0.066 C 
ATOM     22  C   UNL     1      -7.814 -35.647  12.755  0.00  0.00    -0.064 C 
ATOM     23  N   UNL     1      -6.369 -35.617  13.256  0.00  0.00    +0.379 N 
ATOM     24  C   UNL     1      -5.520 -36.406  12.353  0.00  0.00    -0.096 C 
ATOM     25  H   UNL     1      -6.348 -36.109  14.257  0.00  0.00    -0.082 HD
ATOM     26  C   UNL     1      -5.882 -34.186  13.436  0.00  0.00    -0.064 C 
ATOM     27  C   UNL     1      -6.812 -33.403  14.405  0.00  0.00    +0.066 C 
ENDBRANCH  19  20
ENDBRANCH  18  19
ENDBRANCH  14  15
ENDBRANCH  12  13
TORSDOF 6
ENDMDL
MODEL 5
REMARK VINA RESULT:     -10.2      2.634      3.230
REMARK  Name = C:\Users\Docking\Desktop\test protocol\1iep_ligandH.pdb
REMARK  8 active torsions:
REMARK  status: ('A' for Active; 'I' for Inactive)
REMARK    1  A    between atoms: _5  and  _11
REMARK    2  A    between atoms: _19  and  _21
REMARK    3  A    between atoms: _22  and  _66
REMARK    4  A    between atoms: _27  and  _30
REMARK    5  A    between atoms: _32  and  _33
REMARK    6  A    between atoms: _38  and  _43
REMARK    7  A    between atoms: _43  and  _46
REMARK    8  A    between atoms: _53  and  _55
REMARK                            x       y       z     vdW  Elec       q    Type
REMARK                         _______ _______ _______ _____ _____    ______ ____
ROOT
ATOM     10  C   UNL     1      -5.092 -21.367  12.493  0.00  0.00    +0.038 A 
ATOM     11  C   UNL     1      -4.453 -21.227  11.234  0.00  0.00    +0.047 A 
ATOM     12  C   UNL     1      -3.672 -20.043  10.914  0.00  0.00    +0.035 A 
ATOM     32  C   UNL     1      -3.560 -19.020  11.901  0.00  0.00    +0.024 A 
ATOM     33  C   UNL     1      -4.204 -19.145  13.185  0.00  0.00    +0.007 A 
ATOM     34  C   UNL     1      -4.978 -20.310  13.505  0.00  0.00    -0.029 A 
ATOM     35  C   UNL     1      -5.651 -20.388  14.895  0.00  0.00    +0.045 C 
ENDROOT
BRANCH  10   9
ATOM      4  C   UNL     1      -9.218 -23.816  12.616  0.00  0.00    +0.077 A 
ATOM      5  C   UNL     1      -9.972 -22.683  12.162  0.00  0.00    +0.048 A 
ATOM      6  C   UNL     1      -9.262 -21.487  11.914  0.00  0.00    +0.116 A 
ATOM      7  N   UNL     1      -7.899 -21.439  12.110  0.00  0.00    -0.223 NA
ATOM      8  C   UNL     1      -7.202 -22.549  12.551  0.00  0.00    +0.220 A 
ATOM      9  N   UNL     1      -5.829 -22.525  12.747  0.00  0.00    -0.283 N 
ATOM     36  H   UNL     1      -5.353 -23.363  13.080  0.00  0.00    +0.155 HD
ATOM     37  N   UNL     1      -7.857 -23.703  12.795  0.00  0.00    -0.214 NA
BRANCH   4   3
ATOM      1  C   UNL     1     -11.769 -26.757  12.991  0.00  0.00    +0.020 A 
ATOM      2  C   UNL     1     -11.232 -25.452  12.683  0.00  0.00    +0.013 A 
ATOM      3  C   UNL     1      -9.826 -25.150  12.917  0.00  0.00    +0.019 A 
ATOM     38  C   UNL     1      -8.982 -26.201  13.468  0.00  0.00    +0.120 A 
ATOM     39  N   UNL     1      -9.527 -27.448  13.756  0.00  0.00    -0.263 NA
ATOM     40  C   UNL     1     -10.880 -27.749  13.536  0.00  0.00    +0.111 A 
ENDBRANCH   4   3
ENDBRANCH  10   9
BRANCH  12  13
ATOM     13  N   UNL     1      -3.008 -19.842   9.650  0.00  0.00    -0.281 N 
ATOM     14  C   UNL     1      -1.906 -20.517   9.150  0.00  0.00    +0.248 C 
ATOM     30  O   UNL     1      -1.190 -21.255   9.810  0.00  0.00    -0.270 OA
ATOM     31  H   UNL     1      -3.397 -19.113   9.051  0.00  0.00    +0.155 HD
BRANCH  14  15
ATOM     15  C   UNL     1      -1.538 -20.333   7.713  0.00  0.00    +0.037 A 
ATOM     16  C   UNL     1      -2.087 -21.205   6.671  0.00  0.00    +0.013 A 
ATOM     17  C   UNL     1      -1.702 -21.017   5.295  0.00  0.00    +0.005 A 
ATOM     18  C   UNL     1      -0.763 -19.952   4.952  0.00  0.00    -0.033 A 
ATOM     28  C   UNL     1      -0.238 -19.098   6.005  0.00  0.00    +0.005 A 
ATOM     29  C   UNL     1      -0.612 -19.280   7.356  0.00  0.00    +0.013 A 
BRANCH  18  19
ATOM     19  C   UNL     1      -0.280 -19.692   3.513  0.00  0.00    +0.119 C 
BRANCH  19  20
ATOM     20  N   UNL     1      -0.289 -20.850   2.570  0.00  0.00    -0.302 NA
ATOM     21  C   UNL     1       1.020 -21.644   2.622  0.00  0.00    +0.066 C 
ATOM     22  C   UNL     1       0.984 -22.864   1.646  0.00  0.00    -0.064 C 
ATOM     23  N   UNL     1       0.707 -22.370   0.225  0.00  0.00    +0.379 N 
ATOM     24  C   UNL     1       0.731 -23.509  -0.704  0.00  0.00    -0.096 C 
ATOM     25  H   UNL     1       1.536 -21.682  -0.061  0.00  0.00    -0.082 HD
ATOM     26  C   UNL     1      -0.592 -21.578   0.165  0.00  0.00    -0.064 C 
ATOM     27  C   UNL     1      -0.558 -20.384   1.160  0.00  0.00    +0.066 C 
ENDBRANCH  19  20
ENDBRANCH  18  19
ENDBRANCH  14  15
ENDBRANCH  12  13
TORSDOF 6
ENDMDL
