MODEL 1
REMARK VINA RESULT:     -12.0      0.000      0.000
REMARK  Name = C:\Users\Docking\Desktop\test protocol\1iep_ligandH.pdb
REMARK  8 active torsions:
REMARK  status: ('A' for Active; 'I' for Inactive)
REMARK    1  A    between atoms: _5  and  _11
REMARK    2  A    between atoms: _19  and  _21
REMARK    3  A    between atoms: _22  and  _66
REMARK    4  A    between atoms: _27  and  _30
REMARK    5  A    between atoms: _32  and  _33
REMARK    6  A    between atoms: _38  and  _43
REMARK    7  A    between atoms: _43  and  _46
REMARK    8  A    between atoms: _53  and  _55
REMARK                            x       y       z     vdW  Elec       q    Type
REMARK                         _______ _______ _______ _____ _____    ______ ____
ROOT
ATOM     10  C   UNL     1      25.879 -15.782  51.469  0.00  0.00    +0.038 A 
ATOM     11  C   UNL     1      26.476 -17.065  51.374  0.00  0.00    +0.047 A 
ATOM     12  C   UNL     1      27.894 -17.216  51.087  0.00  0.00    +0.035 A 
ATOM     32  C   UNL     1      28.675 -16.038  50.904  0.00  0.00    +0.024 A 
ATOM     33  C   UNL     1      28.084 -14.726  50.995  0.00  0.00    +0.007 A 
ATOM     34  C   UNL     1      26.685 -14.571  51.276  0.00  0.00    -0.029 A 
ATOM     35  C   UNL     1      26.104 -13.140  51.356  0.00  0.00    +0.045 C 
ENDROOT
BRANCH  10   9
ATOM      4  C   UNL     1      22.124 -16.239  54.423  0.00  0.00    +0.077 A 
ATOM      5  C   UNL     1      22.950 -16.715  55.495  0.00  0.00    +0.048 A 
ATOM      6  C   UNL     1      24.335 -16.835  55.243  0.00  0.00    +0.116 A 
ATOM      7  N   UNL     1      24.845 -16.500  54.007  0.00  0.00    -0.223 NA
ATOM      8  C   UNL     1      24.020 -16.045  52.995  0.00  0.00    +0.220 A 
ATOM      9  N   UNL     1      24.513 -15.696  51.747  0.00  0.00    -0.283 N 
ATOM     36  H   UNL     1      23.871 -15.371  51.024  0.00  0.00    +0.155 HD
ATOM     37  N   UNL     1      22.694 -15.923  53.210  0.00  0.00    -0.214 NA
BRANCH   4   3
ATOM      1  C   UNL     1      18.433 -15.148  53.723  0.00  0.00    +0.020 A 
ATOM      2  C   UNL     1      19.862 -15.295  53.568  0.00  0.00    +0.013 A 
ATOM      3  C   UNL     1      20.642 -16.055  54.537  0.00  0.00    +0.019 A 
ATOM     38  C   UNL     1      19.941 -16.659  55.659  0.00  0.00    +0.120 A 
ATOM     39  N   UNL     1      18.564 -16.499  55.784  0.00  0.00    -0.263 NA
ATOM     40  C   UNL     1      17.803 -15.769  54.859  0.00  0.00    +0.111 A 
ENDBRANCH   4   3
ENDBRANCH  10   9
BRANCH  12  13
ATOM     13  N   UNL     1      28.554 -18.493  50.971  0.00  0.00    -0.281 N 
ATOM     14  C   UNL     1      28.993 -19.123  49.819  0.00  0.00    +0.248 C 
ATOM     30  O   UNL     1      28.691 -18.779  48.685  0.00  0.00    -0.270 OA
ATOM     31  H   UNL     1      28.717 -18.992  51.845  0.00  0.00    +0.155 HD
BRANCH  14  15
ATOM     15  C   UNL     1      29.884 -20.317  49.943  0.00  0.00    +0.037 A 
ATOM     16  C   UNL     1      31.317 -20.228  49.655  0.00  0.00    +0.013 A 
ATOM     17  C   UNL     1      32.151 -21.399  49.766  0.00  0.00    +0.005 A 
ATOM     18  C   UNL     1      31.552 -22.669  50.169  0.00  0.00    -0.033 A 
ATOM     28  C   UNL     1      30.128 -22.727  50.455  0.00  0.00    +0.005 A 
ATOM     29  C   UNL     1      29.308 -21.582  50.345  0.00  0.00    +0.013 A 
BRANCH  18  19
ATOM     19  C   UNL     1      32.362 -23.973  50.294  0.00  0.00    +0.119 C 
BRANCH  19  20
ATOM     20  N   UNL     1      32.500 -24.812  49.066  0.00  0.00    -0.302 NA
ATOM     21  C   UNL     1      31.518 -25.987  49.060  0.00  0.00    +0.066 C 
ATOM     22  C   UNL     1      31.660 -26.841  47.759  0.00  0.00    -0.064 C 
ATOM     23  N   UNL     1      33.101 -27.339  47.633  0.00  0.00    +0.379 N 
ATOM     24  C   UNL     1      33.225 -28.190  46.441  0.00  0.00    -0.096 C 
ATOM     25  H   UNL     1      33.319 -27.971  48.525  0.00  0.00    -0.082 HD
ATOM     26  C   UNL     1      34.084 -26.176  47.641  0.00  0.00    -0.064 C 
ATOM     27  C   UNL     1      33.915 -25.317  48.925  0.00  0.00    +0.066 C 
ENDBRANCH  19  20
ENDBRANCH  18  19
ENDBRANCH  14  15
ENDBRANCH  12  13
TORSDOF 6
ENDMDL
MODEL 2
REMARK VINA RESULT:     -11.5      4.421     14.247
REMARK  Name = C:\Users\Docking\Desktop\test protocol\1iep_ligandH.pdb
REMARK  8 active torsions:
REMARK  status: ('A' for Active; 'I' for Inactive)
REMARK    1  A    between atoms: _5  and  _11
REMARK    2  A    between atoms: _19  and  _21
REMARK    3  A    between atoms: _22  and  _66
REMARK    4  A    between atoms: _27  and  _30
REMARK    5  A    between atoms: _32  and  _33
REMARK    6  A    between atoms: _38  and  _43
REMARK    7  A    between atoms: _43  and  _46
REMARK    8  A    between atoms: _53  and  _55
REMARK                            x       y       z     vdW  Elec       q    Type
REMARK                         _______ _______ _______ _____ _____    ______ ____
ROOT
ATOM     10  C   UNL     1      31.093 -27.819  46.849  0.00  0.00    +0.038 A 
ATOM     11  C   UNL     1      30.295 -26.898  47.574  0.00  0.00    +0.047 A 
ATOM     12  C   UNL     1      30.901 -25.857  48.390  0.00  0.00    +0.035 A 
ATOM     32  C   UNL     1      32.323 -25.782  48.443  0.00  0.00    +0.024 A 
ATOM     33  C   UNL     1      33.149 -26.711  47.713  0.00  0.00    +0.007 A 
ATOM     34  C   UNL     1      32.558 -27.741  46.908  0.00  0.00    -0.029 A 
ATOM     35  C   UNL     1      33.493 -28.713  46.151  0.00  0.00    +0.045 C 
ENDROOT
BRANCH  10   9
ATOM      4  C   UNL     1      28.690 -31.950  46.403  0.00  0.00    +0.077 A 
ATOM      5  C   UNL     1      28.724 -32.191  47.816  0.00  0.00    +0.048 A 
ATOM      6  C   UNL     1      29.376 -31.231  48.623  0.00  0.00    +0.116 A 
ATOM      7  N   UNL     1      29.947 -30.117  48.047  0.00  0.00    -0.223 NA
ATOM      8  C   UNL     1      29.898 -29.916  46.680  0.00  0.00    +0.220 A 
ATOM      9  N   UNL     1      30.459 -28.798  46.081  0.00  0.00    -0.283 N 
ATOM     36  H   UNL     1      30.407 -28.690  45.068  0.00  0.00    +0.155 HD
ATOM     37  N   UNL     1      29.282 -30.818  45.888  0.00  0.00    -0.214 NA
BRANCH   4   3
ATOM      1  C   UNL     1      26.696 -33.323  43.330  0.00  0.00    +0.020 A 
ATOM      2  C   UNL     1      27.310 -32.392  44.249  0.00  0.00    +0.013 A 
ATOM      3  C   UNL     1      28.035 -32.870  45.420  0.00  0.00    +0.019 A 
ATOM     38  C   UNL     1      28.121 -34.307  45.633  0.00  0.00    +0.120 A 
ATOM     39  N   UNL     1      27.519 -35.179  44.732  0.00  0.00    -0.263 NA
ATOM     40  C   UNL     1      26.817 -34.731  43.603  0.00  0.00    +0.111 A 
ENDBRANCH   4   3
ENDBRANCH  10   9
BRANCH  12  13
ATOM     13  N   UNL     1      30.141 -24.899  49.155  0.00  0.00    -0.281 N 
ATOM     14  C   UNL     1      30.388 -24.450  50.442  0.00  0.00    +0.248 C 
ATOM     30  O   UNL     1      31.182 -24.966  51.214  0.00  0.00    -0.270 OA
ATOM     31  H   UNL     1      29.323 -24.505  48.692  0.00  0.00    +0.155 HD
BRANCH  14  15
ATOM     15  C   UNL     1      29.633 -23.264  50.950  0.00  0.00    +0.037 A 
ATOM     16  C   UNL     1      30.323 -22.135  51.578  0.00  0.00    +0.013 A 
ATOM     17  C   UNL     1      29.569 -21.011  52.074  0.00  0.00    +0.005 A 
ATOM     18  C   UNL     1      28.114 -21.011  51.943  0.00  0.00    -0.033 A 
ATOM     28  C   UNL     1      27.455 -22.142  51.311  0.00  0.00    +0.005 A 
ATOM     29  C   UNL     1      28.191 -23.246  50.824  0.00  0.00    +0.013 A 
BRANCH  18  19
ATOM     19  C   UNL     1      27.228 -19.864  52.463  0.00  0.00    +0.119 C 
BRANCH  19  20
ATOM     20  N   UNL     1      26.978 -18.719  51.538  0.00  0.00    -0.302 NA
ATOM     21  C   UNL     1      28.080 -17.659  51.625  0.00  0.00    +0.066 C 
ATOM     22  C   UNL     1      27.815 -16.480  50.634  0.00  0.00    -0.064 C 
ATOM     23  N   UNL     1      26.447 -15.864  50.932  0.00  0.00    +0.379 N 
ATOM     24  C   UNL     1      26.219 -14.718  50.041  0.00  0.00    -0.096 C 
ATOM     25  H   UNL     1      26.471 -15.480  51.979  0.00  0.00    -0.082 HD
ATOM     26  C   UNL     1      25.345 -16.912  50.851  0.00  0.00    -0.064 C 
ATOM     27  C   UNL     1      25.634 -18.093  51.818  0.00  0.00    +0.066 C 
ENDBRANCH  19  20
ENDBRANCH  18  19
ENDBRANCH  14  15
ENDBRANCH  12  13
TORSDOF 6
ENDMDL
MODEL 3
REMARK VINA RESULT:     -11.3      3.943      7.673
REMARK  Name = C:\Users\Docking\Desktop\test protocol\1iep_ligandH.pdb
REMARK  8 active torsions:
REMARK  status: ('A' for Active; 'I' for Inactive)
REMARK    1  A    between atoms: _5  and  _11
REMARK    2  A    between atoms: _19  and  _21
REMARK    3  A    between atoms: _22  and  _66
REMARK    4  A    between atoms: _27  and  _30
REMARK    5  A    between atoms: _32  and  _33
REMARK    6  A    between atoms: _38  and  _43
REMARK    7  A    between atoms: _43  and  _46
REMARK    8  A    between atoms: _53  and  _55
REMARK                            x       y       z     vdW  Elec       q    Type
REMARK                         _______ _______ _______ _____ _____    ______ ____
ROOT
ATOM     10  C   UNL     1      30.789 -21.213  49.565  0.00  0.00    +0.038 A 
ATOM     11  C   UNL     1      30.530 -22.502  49.033  0.00  0.00    +0.047 A 
ATOM     12  C   UNL     1      31.593 -23.484  48.888  0.00  0.00    +0.035 A 
ATOM     32  C   UNL     1      32.909 -23.121  49.296  0.00  0.00    +0.024 A 
ATOM     33  C   UNL     1      33.191 -21.814  49.837  0.00  0.00    +0.007 A 
ATOM     34  C   UNL     1      32.147 -20.841  49.981  0.00  0.00    -0.029 A 
ATOM     35  C   UNL     1      32.508 -19.453  50.561  0.00  0.00    +0.045 C 
ENDROOT
BRANCH  10   9
ATOM      4  C   UNL     1      27.101 -19.305  51.971  0.00  0.00    +0.077 A 
ATOM      5  C   UNL     1      27.280 -20.202  53.076  0.00  0.00    +0.048 A 
ATOM      6  C   UNL     1      28.329 -21.145  52.982  0.00  0.00    +0.116 A 
ATOM      7  N   UNL     1      29.132 -21.178  51.863  0.00  0.00    -0.223 NA
ATOM      8  C   UNL     1      28.931 -20.299  50.814  0.00  0.00    +0.220 A 
ATOM      9  N   UNL     1      29.731 -20.309  49.682  0.00  0.00    -0.283 N 
ATOM     36  H   UNL     1      29.545 -19.650  48.927  0.00  0.00    +0.155 HD
ATOM     37  N   UNL     1      27.935 -19.391  50.879  0.00  0.00    -0.214 NA
BRANCH   4   3
ATOM      1  C   UNL     1      24.380 -16.803  50.690  0.00  0.00    +0.020 A 
ATOM      2  C   UNL     1      25.402 -17.825  50.682  0.00  0.00    +0.013 A 
ATOM      3  C   UNL     1      26.038 -18.251  51.922  0.00  0.00    +0.019 A 
ATOM     38  C   UNL     1      25.614 -17.620  53.163  0.00  0.00    +0.120 A 
ATOM     39  N   UNL     1      24.629 -16.637  53.139  0.00  0.00    -0.263 NA
ATOM     40  C   UNL     1      24.011 -16.218  51.952  0.00  0.00    +0.111 A 
ENDBRANCH   4   3
ENDBRANCH  10   9
BRANCH  12  13
ATOM     13  N   UNL     1      31.391 -24.806  48.347  0.00  0.00    -0.281 N 
ATOM     14  C   UNL     1      32.314 -25.833  48.242  0.00  0.00    +0.248 C 
ATOM     30  O   UNL     1      33.518 -25.700  48.403  0.00  0.00    -0.270 OA
ATOM     31  H   UNL     1      30.453 -25.008  48.000  0.00  0.00    +0.155 HD
BRANCH  14  15
ATOM     15  C   UNL     1      31.832 -27.205  47.894  0.00  0.00    +0.037 A 
ATOM     16  C   UNL     1      30.531 -27.693  48.359  0.00  0.00    +0.013 A 
ATOM     17  C   UNL     1      30.097 -29.026  48.023  0.00  0.00    +0.005 A 
ATOM     18  C   UNL     1      30.966 -29.880  47.216  0.00  0.00    -0.033 A 
ATOM     28  C   UNL     1      32.249 -29.368  46.764  0.00  0.00    +0.005 A 
ATOM     29  C   UNL     1      32.678 -28.062  47.092  0.00  0.00    +0.013 A 
BRANCH  18  19
ATOM     19  C   UNL     1      30.593 -31.323  46.828  0.00  0.00    +0.119 C 
BRANCH  19  20
ATOM     20  N   UNL     1      29.155 -31.606  46.545  0.00  0.00    -0.302 NA
ATOM     21  C   UNL     1      28.496 -32.413  47.667  0.00  0.00    +0.066 C 
ATOM     22  C   UNL     1      26.985 -32.680  47.364  0.00  0.00    -0.064 C 
ATOM     23  N   UNL     1      26.857 -33.408  46.025  0.00  0.00    +0.379 N 
ATOM     24  C   UNL     1      25.442 -33.712  45.766  0.00  0.00    -0.096 C 
ATOM     25  H   UNL     1      27.401 -34.378  46.114  0.00  0.00    -0.082 HD
ATOM     26  C   UNL     1      27.512 -32.613  44.905  0.00  0.00    -0.064 C 
ATOM     27  C   UNL     1      29.005 -32.328  45.229  0.00  0.00    +0.066 C 
ENDBRANCH  19  20
ENDBRANCH  18  19
ENDBRANCH  14  15
ENDBRANCH  12  13
TORSDOF 6
ENDMDL
MODEL 4
REMARK VINA RESULT:     -11.2      3.206     13.725
REMARK  Name = C:\Users\Docking\Desktop\test protocol\1iep_ligandH.pdb
REMARK  8 active torsions:
REMARK  status: ('A' for Active; 'I' for Inactive)
REMARK    1  A    between atoms: _5  and  _11
REMARK    2  A    between atoms: _19  and  _21
REMARK    3  A    between atoms: _22  and  _66
REMARK    4  A    between atoms: _27  and  _30
REMARK    5  A    between atoms: _32  and  _33
REMARK    6  A    between atoms: _38  and  _43
REMARK    7  A    between atoms: _43  and  _46
REMARK    8  A    between atoms: _53  and  _55
REMARK                            x       y       z     vdW  Elec       q    Type
REMARK                         _______ _______ _______ _____ _____    ______ ____
ROOT
ATOM     10  C   UNL     1      31.391 -25.416  49.616  0.00  0.00    +0.038 A 
ATOM     11  C   UNL     1      30.414 -24.388  49.643  0.00  0.00    +0.047 A 
ATOM     12  C   UNL     1      30.797 -22.985  49.633  0.00  0.00    +0.035 A 
ATOM     32  C   UNL     1      32.186 -22.665  49.591  0.00  0.00    +0.024 A 
ATOM     33  C   UNL     1      33.192 -23.697  49.564  0.00  0.00    +0.007 A 
ATOM     34  C   UNL     1      32.820 -25.083  49.576  0.00  0.00    -0.029 A 
ATOM     35  C   UNL     1      33.941 -26.147  49.552  0.00  0.00    +0.045 C 
ENDROOT
BRANCH  10   9
ATOM      4  C   UNL     1      30.445 -29.576  47.417  0.00  0.00    +0.077 A 
ATOM      5  C   UNL     1      30.801 -29.046  46.132  0.00  0.00    +0.048 A 
ATOM      6  C   UNL     1      31.216 -27.697  46.079  0.00  0.00    +0.116 A 
ATOM      7  N   UNL     1      31.267 -26.943  47.232  0.00  0.00    -0.223 NA
ATOM      8  C   UNL     1      30.915 -27.484  48.454  0.00  0.00    +0.220 A 
ATOM      9  N   UNL     1      30.966 -26.747  49.627  0.00  0.00    -0.283 N 
ATOM     36  H   UNL     1      30.691 -27.181  50.508  0.00  0.00    +0.155 HD
ATOM     37  N   UNL     1      30.514 -28.770  48.531  0.00  0.00    -0.214 NA
BRANCH   4   3
ATOM      1  C   UNL     1      28.642 -32.737  48.852  0.00  0.00    +0.020 A 
ATOM      2  C   UNL     1      29.049 -31.361  48.683  0.00  0.00    +0.013 A 
ATOM      3  C   UNL     1      29.991 -30.986  47.636  0.00  0.00    +0.019 A 
ATOM     38  C   UNL     1      30.505 -32.035  46.768  0.00  0.00    +0.120 A 
ATOM     39  N   UNL     1      30.096 -33.352  46.955  0.00  0.00    -0.263 NA
ATOM     40  C   UNL     1      29.192 -33.725  47.961  0.00  0.00    +0.111 A 
ENDBRANCH   4   3
ENDBRANCH  10   9
BRANCH  12  13
ATOM     13  N   UNL     1      29.851 -21.898  49.668  0.00  0.00    -0.281 N 
ATOM     14  C   UNL     1      29.450 -21.153  50.765  0.00  0.00    +0.248 C 
ATOM     30  O   UNL     1      29.688 -21.450  51.926  0.00  0.00    -0.270 OA
ATOM     31  H   UNL     1      29.424 -21.648  48.776  0.00  0.00    +0.155 HD
BRANCH  14  15
ATOM     15  C   UNL     1      28.659 -19.905  50.540  0.00  0.00    +0.037 A 
ATOM     16  C   UNL     1      27.600 -19.499  51.467  0.00  0.00    +0.013 A 
ATOM     17  C   UNL     1      26.841 -18.299  51.218  0.00  0.00    +0.005 A 
ATOM     18  C   UNL     1      27.139 -17.496  50.035  0.00  0.00    -0.033 A 
ATOM     28  C   UNL     1      28.199 -17.919  49.134  0.00  0.00    +0.005 A 
ATOM     29  C   UNL     1      28.945 -19.095  49.375  0.00  0.00    +0.013 A 
BRANCH  18  19
ATOM     19  C   UNL     1      26.366 -16.213  49.678  0.00  0.00    +0.119 C 
BRANCH  19  20
ATOM     20  N   UNL     1      26.083 -15.254  50.788  0.00  0.00    -0.302 NA
ATOM     21  C   UNL     1      24.788 -15.599  51.528  0.00  0.00    +0.066 C 
ATOM     22  C   UNL     1      24.519 -14.599  52.700  0.00  0.00    -0.064 C 
ATOM     23  N   UNL     1      24.465 -13.174  52.148  0.00  0.00    +0.379 N 
ATOM     24  C   UNL     1      24.155 -12.237  53.238  0.00  0.00    -0.096 C 
ATOM     25  H   UNL     1      23.627 -13.127  51.414  0.00  0.00    -0.082 HD
ATOM     26  C   UNL     1      25.748 -12.824  51.408  0.00  0.00    -0.064 C 
ATOM     27  C   UNL     1      26.021 -13.840  50.264  0.00  0.00    +0.066 C 
ENDBRANCH  19  20
ENDBRANCH  18  19
ENDBRANCH  14  15
ENDBRANCH  12  13
TORSDOF 6
ENDMDL
MODEL 5
REMARK VINA RESULT:     -11.1      1.999      3.251
REMARK  Name = C:\Users\Docking\Desktop\test protocol\1iep_ligandH.pdb
REMARK  8 active torsions:
REMARK  status: ('A' for Active; 'I' for Inactive)
REMARK    1  A    between atoms: _5  and  _11
REMARK    2  A    between atoms: _19  and  _21
REMARK    3  A    between atoms: _22  and  _66
REMARK    4  A    between atoms: _27  and  _30
REMARK    5  A    between atoms: _32  and  _33
REMARK    6  A    between atoms: _38  and  _43
REMARK    7  A    between atoms: _43  and  _46
REMARK    8  A    between atoms: _53  and  _55
REMARK                            x       y       z     vdW  Elec       q    Type
REMARK                         _______ _______ _______ _____ _____    ______ ____
ROOT
ATOM     10  C   UNL     1      23.236 -14.335  52.172  0.00  0.00    +0.038 A 
ATOM     11  C   UNL     1      23.912 -15.579  52.258  0.00  0.00    +0.047 A 
ATOM     12  C   UNL     1      25.356 -15.663  52.102  0.00  0.00    +0.035 A 
ATOM     32  C   UNL     1      26.080 -14.460  51.861  0.00  0.00    +0.024 A 
ATOM     33  C   UNL     1      25.409 -13.187  51.768  0.00  0.00    +0.007 A 
ATOM     34  C   UNL     1      23.985 -13.098  51.919  0.00  0.00    -0.029 A 
ATOM     35  C   UNL     1      23.317 -11.708  51.804  0.00  0.00    +0.045 C 
ENDROOT
BRANCH  10   9
ATOM      4  C   UNL     1      19.207 -15.691  54.401  0.00  0.00    +0.077 A 
ATOM      5  C   UNL     1      19.925 -16.537  55.310  0.00  0.00    +0.048 A 
ATOM      6  C   UNL     1      21.329 -16.601  55.166  0.00  0.00    +0.116 A 
ATOM      7  N   UNL     1      21.958 -15.868  54.183  0.00  0.00    -0.223 NA
ATOM      8  C   UNL     1      21.236 -15.064  53.321  0.00  0.00    +0.220 A 
ATOM      9  N   UNL     1      21.848 -14.312  52.330  0.00  0.00    -0.283 N 
ATOM     36  H   UNL     1      21.280 -13.737  51.709  0.00  0.00    +0.155 HD
ATOM     37  N   UNL     1      19.894 -14.987  53.437  0.00  0.00    -0.214 NA
BRANCH   4   3
ATOM      1  C   UNL     1      15.556 -14.962  55.599  0.00  0.00    +0.020 A 
ATOM      2  C   UNL     1      16.992 -15.117  55.626  0.00  0.00    +0.013 A 
ATOM      3  C   UNL     1      17.721 -15.516  54.428  0.00  0.00    +0.019 A 
ATOM     38  C   UNL     1      16.961 -15.750  53.209  0.00  0.00    +0.120 A 
ATOM     39  N   UNL     1      15.578 -15.593  53.214  0.00  0.00    -0.263 NA
ATOM     40  C   UNL     1      14.866 -15.212  54.361  0.00  0.00    +0.111 A 
ENDBRANCH   4   3
ENDBRANCH  10   9
BRANCH  12  13
ATOM     13  N   UNL     1      26.096 -16.898  52.172  0.00  0.00    -0.281 N 
ATOM     14  C   UNL     1      25.991 -18.002  51.342  0.00  0.00    +0.248 C 
ATOM     30  O   UNL     1      25.088 -18.179  50.538  0.00  0.00    -0.270 OA
ATOM     31  H   UNL     1      26.781 -16.968  52.925  0.00  0.00    +0.155 HD
BRANCH  14  15
ATOM     15  C   UNL     1      27.031 -19.072  51.428  0.00  0.00    +0.037 A 
ATOM     16  C   UNL     1      28.118 -19.155  50.449  0.00  0.00    +0.013 A 
ATOM     17  C   UNL     1      29.099 -20.207  50.545  0.00  0.00    +0.005 A 
ATOM     18  C   UNL     1      28.997 -21.185  51.626  0.00  0.00    -0.033 A 
ATOM     28  C   UNL     1      27.912 -21.076  52.586  0.00  0.00    +0.005 A 
ATOM     29  C   UNL     1      26.948 -20.047  52.495  0.00  0.00    +0.013 A 
BRANCH  18  19
ATOM     19  C   UNL     1      29.987 -22.353  51.793  0.00  0.00    +0.119 C 
BRANCH  19  20
ATOM     20  N   UNL     1      30.339 -23.131  50.568  0.00  0.00    -0.302 NA
ATOM     21  C   UNL     1      29.433 -24.352  50.383  0.00  0.00    +0.066 C 
ATOM     22  C   UNL     1      29.801 -25.142  49.085  0.00  0.00    -0.064 C 
ATOM     23  N   UNL     1      31.270 -25.562  49.146  0.00  0.00    +0.379 N 
ATOM     24  C   UNL     1      31.603 -26.355  47.954  0.00  0.00    -0.096 C 
ATOM     25  H   UNL     1      31.396 -26.221  50.037  0.00  0.00    -0.082 HD
ATOM     26  C   UNL     1      32.178 -24.355  49.332  0.00  0.00    -0.064 C 
ATOM     27  C   UNL     1      31.785 -23.560  50.609  0.00  0.00    +0.066 C 
ENDBRANCH  19  20
ENDBRANCH  18  19
ENDBRANCH  14  15
ENDBRANCH  12  13
TORSDOF 6
ENDMDL
