MODEL 1
REMARK VINA RESULT:     -11.2      0.000      0.000
REMARK  Name = C:\Users\Docking\Desktop\test protocol\1iep_ligandH.pdb
REMARK  8 active torsions:
REMARK  status: ('A' for Active; 'I' for Inactive)
REMARK    1  A    between atoms: _5  and  _11
REMARK    2  A    between atoms: _19  and  _21
REMARK    3  A    between atoms: _22  and  _66
REMARK    4  A    between atoms: _27  and  _30
REMARK    5  A    between atoms: _32  and  _33
REMARK    6  A    between atoms: _38  and  _43
REMARK    7  A    between atoms: _43  and  _46
REMARK    8  A    between atoms: _53  and  _55
REMARK                            x       y       z     vdW  Elec       q    Type
REMARK                         _______ _______ _______ _____ _____    ______ ____
ROOT
ATOM     10  C   UNL     1      28.628 -28.184  51.985  0.00  0.00    +0.038 A 
ATOM     11  C   UNL     1      27.903 -28.293  53.199  0.00  0.00    +0.047 A 
ATOM     12  C   UNL     1      28.587 -28.474  54.470  0.00  0.00    +0.035 A 
ATOM     32  C   UNL     1      30.011 -28.537  54.468  0.00  0.00    +0.024 A 
ATOM     33  C   UNL     1      30.764 -28.429  53.243  0.00  0.00    +0.007 A 
ATOM     34  C   UNL     1      30.095 -28.253  51.986  0.00  0.00    -0.029 A 
ATOM     35  C   UNL     1      30.952 -28.150  50.704  0.00  0.00    +0.045 C 
ENDROOT
BRANCH  10   9
ATOM      4  C   UNL     1      26.225 -29.903  48.202  0.00  0.00    +0.077 A 
ATOM      5  C   UNL     1      26.419 -31.261  48.622  0.00  0.00    +0.048 A 
ATOM      6  C   UNL     1      27.148 -31.475  49.813  0.00  0.00    +0.116 A 
ATOM      7  N   UNL     1      27.643 -30.402  50.523  0.00  0.00    -0.223 NA
ATOM      8  C   UNL     1      27.439 -29.105  50.090  0.00  0.00    +0.220 A 
ATOM      9  N   UNL     1      27.921 -28.011  50.793  0.00  0.00    -0.283 N 
ATOM     36  H   UNL     1      27.756 -27.070  50.437  0.00  0.00    +0.155 HD
ATOM     37  N   UNL     1      26.747 -28.874  48.955  0.00  0.00    -0.214 NA
BRANCH   4   3
ATOM      1  C   UNL     1      23.945 -27.984  45.668  0.00  0.00    +0.020 A 
ATOM      2  C   UNL     1      24.652 -28.313  46.885  0.00  0.00    +0.013 A 
ATOM      3  C   UNL     1      25.472 -29.515  46.968  0.00  0.00    +0.019 A 
ATOM     38  C   UNL     1      25.559 -30.368  45.792  0.00  0.00    +0.120 A 
ATOM     39  N   UNL     1      24.867 -30.026  44.635  0.00  0.00    -0.263 NA
ATOM     40  C   UNL     1      24.072 -28.873  44.544  0.00  0.00    +0.111 A 
ENDBRANCH   4   3
ENDBRANCH  10   9
BRANCH  12  13
ATOM     13  N   UNL     1      27.904 -28.599  55.734  0.00  0.00    -0.281 N 
ATOM     14  C   UNL     1      28.098 -29.556  56.716  0.00  0.00    +0.248 C 
ATOM     30  O   UNL     1      28.745 -30.582  56.563  0.00  0.00    -0.270 OA
ATOM     31  H   UNL     1      27.190 -27.897  55.928  0.00  0.00    +0.155 HD
BRANCH  14  15
ATOM     15  C   UNL     1      27.472 -29.352  58.058  0.00  0.00    +0.037 A 
ATOM     16  C   UNL     1      26.183 -29.960  58.395  0.00  0.00    +0.013 A 
ATOM     17  C   UNL     1      25.593 -29.733  59.691  0.00  0.00    +0.005 A 
ATOM     18  C   UNL     1      26.293 -28.893  60.660  0.00  0.00    -0.033 A 
ATOM     28  C   UNL     1      27.574 -28.306  60.300  0.00  0.00    +0.005 A 
ATOM     29  C   UNL     1      28.155 -28.526  59.031  0.00  0.00    +0.013 A 
BRANCH  18  19
ATOM     19  C   UNL     1      25.728 -28.580  62.058  0.00  0.00    +0.119 C 
BRANCH  19  20
ATOM     20  N   UNL     1      25.937 -27.198  62.585  0.00  0.00    -0.302 NA
ATOM     21  C   UNL     1      25.798 -27.138  64.109  0.00  0.00    +0.066 C 
ATOM     22  C   UNL     1      26.042 -25.690  64.646  0.00  0.00    -0.064 C 
ATOM     23  N   UNL     1      25.060 -24.728  63.974  0.00  0.00    +0.379 N 
ATOM     24  C   UNL     1      25.247 -23.376  64.520  0.00  0.00    -0.096 C 
ATOM     25  H   UNL     1      24.029 -25.060  64.238  0.00  0.00    -0.082 HD
ATOM     26  C   UNL     1      25.189 -24.784  62.459  0.00  0.00    -0.064 C 
ATOM     27  C   UNL     1      24.975 -26.232  61.938  0.00  0.00    +0.066 C 
ENDBRANCH  19  20
ENDBRANCH  18  19
ENDBRANCH  14  15
ENDBRANCH  12  13
TORSDOF 6
ENDMDL
MODEL 2
REMARK VINA RESULT:     -10.5      2.026     12.622
REMARK  Name = C:\Users\Docking\Desktop\test protocol\1iep_ligandH.pdb
REMARK  8 active torsions:
REMARK  status: ('A' for Active; 'I' for Inactive)
REMARK    1  A    between atoms: _5  and  _11
REMARK    2  A    between atoms: _19  and  _21
REMARK    3  A    between atoms: _22  and  _66
REMARK    4  A    between atoms: _27  and  _30
REMARK    5  A    between atoms: _32  and  _33
REMARK    6  A    between atoms: _38  and  _43
REMARK    7  A    between atoms: _43  and  _46
REMARK    8  A    between atoms: _53  and  _55
REMARK                            x       y       z     vdW  Elec       q    Type
REMARK                         _______ _______ _______ _____ _____    ______ ____
ROOT
ATOM     10  C   UNL     1      29.062 -28.260  56.894  0.00  0.00    +0.038 A 
ATOM     11  C   UNL     1      28.337 -28.437  55.688  0.00  0.00    +0.047 A 
ATOM     12  C   UNL     1      28.899 -29.186  54.575  0.00  0.00    +0.035 A 
ATOM     32  C   UNL     1      30.202 -29.743  54.725  0.00  0.00    +0.024 A 
ATOM     33  C   UNL     1      30.954 -29.572  55.944  0.00  0.00    +0.007 A 
ATOM     34  C   UNL     1      30.405 -28.832  57.044  0.00  0.00    -0.029 A 
ATOM     35  C   UNL     1      31.258 -28.675  58.324  0.00  0.00    +0.045 C 
ENDROOT
BRANCH  10   9
ATOM      4  C   UNL     1      26.336 -27.952  60.833  0.00  0.00    +0.077 A 
ATOM      5  C   UNL     1      26.038 -29.354  60.808  0.00  0.00    +0.048 A 
ATOM      6  C   UNL     1      26.599 -30.119  59.760  0.00  0.00    +0.116 A 
ATOM      7  N   UNL     1      27.399 -29.515  58.815  0.00  0.00    -0.223 NA
ATOM      8  C   UNL     1      27.666 -28.159  58.867  0.00  0.00    +0.220 A 
ATOM      9  N   UNL     1      28.473 -27.532  57.931  0.00  0.00    -0.283 N 
ATOM     36  H   UNL     1      28.640 -26.529  58.000  0.00  0.00    +0.155 HD
ATOM     37  N   UNL     1      27.140 -27.407  59.856  0.00  0.00    -0.214 NA
BRANCH   4   3
ATOM      1  C   UNL     1      25.197 -24.712  62.705  0.00  0.00    +0.020 A 
ATOM      2  C   UNL     1      25.702 -25.575  61.663  0.00  0.00    +0.013 A 
ATOM      3  C   UNL     1      25.820 -27.012  61.878  0.00  0.00    +0.019 A 
ATOM     38  C   UNL     1      25.415 -27.547  63.169  0.00  0.00    +0.120 A 
ATOM     39  N   UNL     1      24.933 -26.691  64.154  0.00  0.00    -0.263 NA
ATOM     40  C   UNL     1      24.817 -25.306  63.959  0.00  0.00    +0.111 A 
ENDBRANCH   4   3
ENDBRANCH  10   9
BRANCH  12  13
ATOM     13  N   UNL     1      28.213 -29.392  53.323  0.00  0.00    -0.281 N 
ATOM     14  C   UNL     1      28.553 -28.898  52.074  0.00  0.00    +0.248 C 
ATOM     30  O   UNL     1      29.384 -28.023  51.880  0.00  0.00    -0.270 OA
ATOM     31  H   UNL     1      27.375 -29.972  53.363  0.00  0.00    +0.155 HD
BRANCH  14  15
ATOM     15  C   UNL     1      27.859 -29.444  50.869  0.00  0.00    +0.037 A 
ATOM     16  C   UNL     1      27.583 -30.877  50.734  0.00  0.00    +0.013 A 
ATOM     17  C   UNL     1      26.928 -31.379  49.553  0.00  0.00    +0.005 A 
ATOM     18  C   UNL     1      26.542 -30.447  48.496  0.00  0.00    -0.033 A 
ATOM     28  C   UNL     1      26.823 -29.030  48.658  0.00  0.00    +0.005 A 
ATOM     29  C   UNL     1      27.466 -28.534  49.814  0.00  0.00    +0.013 A 
BRANCH  18  19
ATOM     19  C   UNL     1      25.858 -30.898  47.192  0.00  0.00    +0.119 C 
BRANCH  19  20
ATOM     20  N   UNL     1      24.643 -30.143  46.762  0.00  0.00    -0.302 NA
ATOM     21  C   UNL     1      23.445 -30.412  47.677  0.00  0.00    +0.066 C 
ATOM     22  C   UNL     1      22.190 -29.597  47.226  0.00  0.00    -0.064 C 
ATOM     23  N   UNL     1      21.852 -29.948  45.776  0.00  0.00    +0.379 N 
ATOM     24  C   UNL     1      20.637 -29.228  45.366  0.00  0.00    -0.096 C 
ATOM     25  H   UNL     1      21.628 -31.039  45.735  0.00  0.00    -0.082 HD
ATOM     26  C   UNL     1      23.038 -29.687  44.859  0.00  0.00    -0.064 C 
ATOM     27  C   UNL     1      24.289 -30.478  45.333  0.00  0.00    +0.066 C 
ENDBRANCH  19  20
ENDBRANCH  18  19
ENDBRANCH  14  15
ENDBRANCH  12  13
TORSDOF 6
ENDMDL
MODEL 3
REMARK VINA RESULT:     -10.4      2.164     13.191
REMARK  Name = C:\Users\Docking\Desktop\test protocol\1iep_ligandH.pdb
REMARK  8 active torsions:
REMARK  status: ('A' for Active; 'I' for Inactive)
REMARK    1  A    between atoms: _5  and  _11
REMARK    2  A    between atoms: _19  and  _21
REMARK    3  A    between atoms: _22  and  _66
REMARK    4  A    between atoms: _27  and  _30
REMARK    5  A    between atoms: _32  and  _33
REMARK    6  A    between atoms: _38  and  _43
REMARK    7  A    between atoms: _43  and  _46
REMARK    8  A    between atoms: _53  and  _55
REMARK                            x       y       z     vdW  Elec       q    Type
REMARK                         _______ _______ _______ _____ _____    ______ ____
ROOT
ATOM     10  C   UNL     1      28.955 -28.243  57.003  0.00  0.00    +0.038 A 
ATOM     11  C   UNL     1      28.239 -28.441  55.795  0.00  0.00    +0.047 A 
ATOM     12  C   UNL     1      28.861 -29.086  54.649  0.00  0.00    +0.035 A 
ATOM     32  C   UNL     1      30.213 -29.521  54.769  0.00  0.00    +0.024 A 
ATOM     33  C   UNL     1      30.956 -29.327  55.989  0.00  0.00    +0.007 A 
ATOM     34  C   UNL     1      30.349 -28.689  57.122  0.00  0.00    -0.029 A 
ATOM     35  C   UNL     1      31.195 -28.502  58.403  0.00  0.00    +0.045 C 
ENDROOT
BRANCH  10   9
ATOM      4  C   UNL     1      26.136 -28.340  60.886  0.00  0.00    +0.077 A 
ATOM      5  C   UNL     1      25.909 -29.751  60.759  0.00  0.00    +0.048 A 
ATOM      6  C   UNL     1      26.530 -30.413  59.677  0.00  0.00    +0.116 A 
ATOM      7  N   UNL     1      27.318 -29.707  58.793  0.00  0.00    -0.223 NA
ATOM      8  C   UNL     1      27.515 -28.347  58.944  0.00  0.00    +0.220 A 
ATOM      9  N   UNL     1      28.309 -27.618  58.072  0.00  0.00    -0.283 N 
ATOM     36  H   UNL     1      28.424 -26.615  58.213  0.00  0.00    +0.155 HD
ATOM     37  N   UNL     1      26.932 -27.691  59.969  0.00  0.00    -0.214 NA
BRANCH   4   3
ATOM      1  C   UNL     1      23.725 -26.922  63.621  0.00  0.00    +0.020 A 
ATOM      2  C   UNL     1      24.243 -27.763  62.566  0.00  0.00    +0.013 A 
ATOM      3  C   UNL     1      25.551 -27.501  61.980  0.00  0.00    +0.019 A 
ATOM     38  C   UNL     1      26.316 -26.371  62.487  0.00  0.00    +0.120 A 
ATOM     39  N   UNL     1      25.790 -25.578  63.502  0.00  0.00    -0.263 NA
ATOM     40  C   UNL     1      24.532 -25.820  64.073  0.00  0.00    +0.111 A 
ENDBRANCH   4   3
ENDBRANCH  10   9
BRANCH  12  13
ATOM     13  N   UNL     1      28.186 -29.306  53.394  0.00  0.00    -0.281 N 
ATOM     14  C   UNL     1      28.589 -28.909  52.129  0.00  0.00    +0.248 C 
ATOM     30  O   UNL     1      29.490 -28.114  51.909  0.00  0.00    -0.270 OA
ATOM     31  H   UNL     1      27.304 -29.817  53.443  0.00  0.00    +0.155 HD
BRANCH  14  15
ATOM     15  C   UNL     1      27.879 -29.465  50.937  0.00  0.00    +0.037 A 
ATOM     16  C   UNL     1      27.604 -30.899  50.817  0.00  0.00    +0.013 A 
ATOM     17  C   UNL     1      26.932 -31.412  49.649  0.00  0.00    +0.005 A 
ATOM     18  C   UNL     1      26.529 -30.487  48.591  0.00  0.00    -0.033 A 
ATOM     28  C   UNL     1      26.810 -29.069  48.739  0.00  0.00    +0.005 A 
ATOM     29  C   UNL     1      27.469 -28.563  49.882  0.00  0.00    +0.013 A 
BRANCH  18  19
ATOM     19  C   UNL     1      25.827 -30.948  47.301  0.00  0.00    +0.119 C 
BRANCH  19  20
ATOM     20  N   UNL     1      26.481 -30.599  46.004  0.00  0.00    -0.302 NA
ATOM     21  C   UNL     1      25.639 -31.034  44.801  0.00  0.00    +0.066 C 
ATOM     22  C   UNL     1      26.327 -30.641  43.453  0.00  0.00    -0.064 C 
ATOM     23  N   UNL     1      27.721 -31.268  43.394  0.00  0.00    +0.379 N 
ATOM     24  C   UNL     1      28.349 -30.948  42.103  0.00  0.00    -0.096 C 
ATOM     25  H   UNL     1      27.597 -32.375  43.445  0.00  0.00    -0.082 HD
ATOM     26  C   UNL     1      28.564 -30.843  44.588  0.00  0.00    -0.064 C 
ATOM     27  C   UNL     1      27.857 -31.212  45.923  0.00  0.00    +0.066 C 
ENDBRANCH  19  20
ENDBRANCH  18  19
ENDBRANCH  14  15
ENDBRANCH  12  13
TORSDOF 6
ENDMDL
MODEL 4
REMARK VINA RESULT:     -10.3      4.850     13.904
REMARK  Name = C:\Users\Docking\Desktop\test protocol\1iep_ligandH.pdb
REMARK  8 active torsions:
REMARK  status: ('A' for Active; 'I' for Inactive)
REMARK    1  A    between atoms: _5  and  _11
REMARK    2  A    between atoms: _19  and  _21
REMARK    3  A    between atoms: _22  and  _66
REMARK    4  A    between atoms: _27  and  _30
REMARK    5  A    between atoms: _32  and  _33
REMARK    6  A    between atoms: _38  and  _43
REMARK    7  A    between atoms: _43  and  _46
REMARK    8  A    between atoms: _53  and  _55
REMARK                            x       y       z     vdW  Elec       q    Type
REMARK                         _______ _______ _______ _____ _____    ______ ____
ROOT
ATOM     10  C   UNL     1      23.601 -26.825  64.429  0.00  0.00    +0.038 A 
ATOM     11  C   UNL     1      24.232 -27.462  63.330  0.00  0.00    +0.047 A 
ATOM     12  C   UNL     1      25.655 -27.295  63.078  0.00  0.00    +0.035 A 
ATOM     32  C   UNL     1      26.406 -26.473  63.969  0.00  0.00    +0.024 A 
ATOM     33  C   UNL     1      25.781 -25.817  65.090  0.00  0.00    +0.007 A 
ATOM     34  C   UNL     1      24.377 -25.976  65.341  0.00  0.00    -0.029 A 
ATOM     35  C   UNL     1      23.758 -25.244  66.555  0.00  0.00    +0.045 C 
ENDROOT
BRANCH  10   9
ATOM      4  C   UNL     1      19.861 -29.495  65.816  0.00  0.00    +0.077 A 
ATOM      5  C   UNL     1      20.705 -30.604  66.157  0.00  0.00    +0.048 A 
ATOM      6  C   UNL     1      22.094 -30.450  65.954  0.00  0.00    +0.116 A 
ATOM      7  N   UNL     1      22.593 -29.269  65.447  0.00  0.00    -0.223 NA
ATOM      8  C   UNL     1      21.752 -28.220  65.127  0.00  0.00    +0.220 A 
ATOM      9  N   UNL     1      22.232 -27.020  64.623  0.00  0.00    -0.283 N 
ATOM     36  H   UNL     1      21.578 -26.273  64.392  0.00  0.00    +0.155 HD
ATOM     37  N   UNL     1      20.420 -28.343  65.310  0.00  0.00    -0.214 NA
BRANCH   4   3
ATOM      1  C   UNL     1      16.145 -28.350  66.237  0.00  0.00    +0.020 A 
ATOM      2  C   UNL     1      17.580 -28.286  66.084  0.00  0.00    +0.013 A 
ATOM      3  C   UNL     1      18.373 -29.504  65.976  0.00  0.00    +0.019 A 
ATOM     38  C   UNL     1      17.677 -30.781  66.027  0.00  0.00    +0.120 A 
ATOM     39  N   UNL     1      16.294 -30.812  66.176  0.00  0.00    -0.263 NA
ATOM     40  C   UNL     1      15.521 -29.646  66.283  0.00  0.00    +0.111 A 
ENDBRANCH   4   3
ENDBRANCH  10   9
BRANCH  12  13
ATOM     13  N   UNL     1      26.348 -27.910  61.974  0.00  0.00    -0.281 N 
ATOM     14  C   UNL     1      26.720 -27.330  60.773  0.00  0.00    +0.248 C 
ATOM     30  O   UNL     1      26.322 -26.245  60.376  0.00  0.00    -0.270 OA
ATOM     31  H   UNL     1      26.595 -28.893  62.093  0.00  0.00    +0.155 HD
BRANCH  14  15
ATOM     15  C   UNL     1      27.659 -28.068  59.874  0.00  0.00    +0.037 A 
ATOM     16  C   UNL     1      27.332 -29.402  59.364  0.00  0.00    +0.013 A 
ATOM     17  C   UNL     1      28.263 -30.099  58.513  0.00  0.00    +0.005 A 
ATOM     18  C   UNL     1      29.532 -29.462  58.166  0.00  0.00    -0.033 A 
ATOM     28  C   UNL     1      29.829 -28.137  58.682  0.00  0.00    +0.005 A 
ATOM     29  C   UNL     1      28.919 -27.450  59.517  0.00  0.00    +0.013 A 
BRANCH  18  19
ATOM     19  C   UNL     1      30.594 -30.141  57.281  0.00  0.00    +0.119 C 
BRANCH  19  20
ATOM     20  N   UNL     1      30.484 -29.943  55.805  0.00  0.00    -0.302 NA
ATOM     21  C   UNL     1      31.555 -28.986  55.273  0.00  0.00    +0.066 C 
ATOM     22  C   UNL     1      31.438 -28.807  53.724  0.00  0.00    -0.064 C 
ATOM     23  N   UNL     1      30.038 -28.300  53.376  0.00  0.00    +0.379 N 
ATOM     24  C   UNL     1      29.944 -28.076  51.926  0.00  0.00    -0.096 C 
ATOM     25  H   UNL     1      29.900 -27.316  53.880  0.00  0.00    -0.082 HD
ATOM     26  C   UNL     1      28.967 -29.244  53.904  0.00  0.00    -0.064 C 
ATOM     27  C   UNL     1      29.109 -29.438  55.439  0.00  0.00    +0.066 C 
ENDBRANCH  19  20
ENDBRANCH  18  19
ENDBRANCH  14  15
ENDBRANCH  12  13
TORSDOF 6
ENDMDL
MODEL 5
REMARK VINA RESULT:      -9.9      4.275     11.526
REMARK  Name = C:\Users\Docking\Desktop\test protocol\1iep_ligandH.pdb
REMARK  8 active torsions:
REMARK  status: ('A' for Active; 'I' for Inactive)
REMARK    1  A    between atoms: _5  and  _11
REMARK    2  A    between atoms: _19  and  _21
REMARK    3  A    between atoms: _22  and  _66
REMARK    4  A    between atoms: _27  and  _30
REMARK    5  A    between atoms: _32  and  _33
REMARK    6  A    between atoms: _38  and  _43
REMARK    7  A    between atoms: _43  and  _46
REMARK    8  A    between atoms: _53  and  _55
REMARK                            x       y       z     vdW  Elec       q    Type
REMARK                         _______ _______ _______ _____ _____    ______ ____
ROOT
ATOM     10  C   UNL     1      28.581 -28.505  52.647  0.00  0.00    +0.038 A 
ATOM     11  C   UNL     1      27.429 -29.061  52.037  0.00  0.00    +0.047 A 
ATOM     12  C   UNL     1      27.491 -29.653  50.709  0.00  0.00    +0.035 A 
ATOM     32  C   UNL     1      28.746 -29.663  50.033  0.00  0.00    +0.024 A 
ATOM     33  C   UNL     1      29.928 -29.100  50.638  0.00  0.00    +0.007 A 
ATOM     34  C   UNL     1      29.871 -28.514  51.946  0.00  0.00    -0.029 A 
ATOM     35  C   UNL     1      31.168 -27.920  52.544  0.00  0.00    +0.045 C 
ENDROOT
BRANCH  10   9
ATOM      4  C   UNL     1      29.001 -28.747  57.422  0.00  0.00    +0.077 A 
ATOM      5  C   UNL     1      29.468 -30.103  57.372  0.00  0.00    +0.048 A 
ATOM      6  C   UNL     1      29.580 -30.703  56.098  0.00  0.00    +0.116 A 
ATOM      7  N   UNL     1      29.247 -29.992  54.966  0.00  0.00    -0.223 NA
ATOM      8  C   UNL     1      28.797 -28.687  55.050  0.00  0.00    +0.220 A 
ATOM      9  N   UNL     1      28.464 -27.950  53.924  0.00  0.00    -0.283 N 
ATOM     36  H   UNL     1      28.130 -26.993  54.028  0.00  0.00    +0.155 HD
ATOM     37  N   UNL     1      28.681 -28.091  56.255  0.00  0.00    -0.214 NA
BRANCH   4   3
ATOM      1  C   UNL     1      29.738 -26.849  60.763  0.00  0.00    +0.020 A 
ATOM      2  C   UNL     1      29.954 -27.596  59.545  0.00  0.00    +0.013 A 
ATOM      3  C   UNL     1      28.833 -27.974  58.694  0.00  0.00    +0.019 A 
ATOM     38  C   UNL     1      27.495 -27.577  59.106  0.00  0.00    +0.120 A 
ATOM     39  N   UNL     1      27.317 -26.859  60.284  0.00  0.00    -0.263 NA
ATOM     40  C   UNL     1      28.388 -26.492  61.112  0.00  0.00    +0.111 A 
ENDBRANCH   4   3
ENDBRANCH  10   9
BRANCH  12  13
ATOM     13  N   UNL     1      26.352 -30.225  50.035  0.00  0.00    -0.281 N 
ATOM     14  C   UNL     1      26.268 -31.452  49.398  0.00  0.00    +0.248 C 
ATOM     30  O   UNL     1      27.229 -32.156  49.124  0.00  0.00    -0.270 OA
ATOM     31  H   UNL     1      25.505 -29.657  50.027  0.00  0.00    +0.155 HD
BRANCH  14  15
ATOM     15  C   UNL     1      24.924 -31.965  48.993  0.00  0.00    +0.037 A 
ATOM     16  C   UNL     1      24.652 -33.402  48.911  0.00  0.00    +0.013 A 
ATOM     17  C   UNL     1      23.352 -33.870  48.501  0.00  0.00    +0.005 A 
ATOM     18  C   UNL     1      22.312 -32.898  48.171  0.00  0.00    -0.033 A 
ATOM     28  C   UNL     1      22.607 -31.478  48.267  0.00  0.00    +0.005 A 
ATOM     29  C   UNL     1      23.881 -31.016  48.667  0.00  0.00    +0.013 A 
BRANCH  18  19
ATOM     19  C   UNL     1      20.903 -33.307  47.705  0.00  0.00    +0.119 C 
BRANCH  19  20
ATOM     20  N   UNL     1      19.829 -33.366  48.741  0.00  0.00    -0.302 NA
ATOM     21  C   UNL     1      19.116 -32.021  48.907  0.00  0.00    +0.066 C 
ATOM     22  C   UNL     1      17.981 -32.107  49.979  0.00  0.00    -0.064 C 
ATOM     23  N   UNL     1      18.575 -32.572  51.310  0.00  0.00    +0.379 N 
ATOM     24  C   UNL     1      17.521 -32.598  52.335  0.00  0.00    -0.096 C 
ATOM     25  H   UNL     1      19.334 -31.818  51.623  0.00  0.00    -0.082 HD
ATOM     26  C   UNL     1      19.289 -33.907  51.154  0.00  0.00    -0.064 C 
ATOM     27  C   UNL     1      20.394 -33.819  50.065  0.00  0.00    +0.066 C 
ENDBRANCH  19  20
ENDBRANCH  18  19
ENDBRANCH  14  15
ENDBRANCH  12  13
TORSDOF 6
ENDMDL
