MODEL 1
REMARK VINA RESULT:     -11.1      0.000      0.000
REMARK  Name = C:\Users\Docking\Desktop\test protocol\1iep_ligandH.pdb
REMARK  8 active torsions:
REMARK  status: ('A' for Active; 'I' for Inactive)
REMARK    1  A    between atoms: _5  and  _11
REMARK    2  A    between atoms: _19  and  _21
REMARK    3  A    between atoms: _22  and  _66
REMARK    4  A    between atoms: _27  and  _30
REMARK    5  A    between atoms: _32  and  _33
REMARK    6  A    between atoms: _38  and  _43
REMARK    7  A    between atoms: _43  and  _46
REMARK    8  A    between atoms: _53  and  _55
REMARK                            x       y       z     vdW  Elec       q    Type
REMARK                         _______ _______ _______ _____ _____    ______ ____
ROOT
ATOM     10  C   UNL     1      29.088 -27.974  56.904  0.00  0.00    +0.038 A 
ATOM     11  C   UNL     1      28.367 -28.180  55.700  0.00  0.00    +0.047 A 
ATOM     12  C   UNL     1      28.932 -28.958  54.608  0.00  0.00    +0.035 A 
ATOM     32  C   UNL     1      30.233 -29.515  54.778  0.00  0.00    +0.024 A 
ATOM     33  C   UNL     1      30.980 -29.316  55.995  0.00  0.00    +0.007 A 
ATOM     34  C   UNL     1      30.429 -28.547  57.074  0.00  0.00    -0.029 A 
ATOM     35  C   UNL     1      31.278 -28.359  58.353  0.00  0.00    +0.045 C 
ENDROOT
BRANCH  10   9
ATOM      4  C   UNL     1      26.495 -27.578  60.923  0.00  0.00    +0.077 A 
ATOM      5  C   UNL     1      26.274 -28.994  60.990  0.00  0.00    +0.048 A 
ATOM      6  C   UNL     1      26.839 -29.788  59.967  0.00  0.00    +0.116 A 
ATOM      7  N   UNL     1      27.569 -29.200  58.957  0.00  0.00    -0.223 NA
ATOM      8  C   UNL     1      27.761 -27.831  58.921  0.00  0.00    +0.220 A 
ATOM      9  N   UNL     1      28.498 -27.219  57.919  0.00  0.00    -0.283 N 
ATOM     36  H   UNL     1      28.611 -26.205  57.924  0.00  0.00    +0.155 HD
ATOM     37  N   UNL     1      27.231 -27.051  59.886  0.00  0.00    -0.214 NA
BRANCH   4   3
ATOM      1  C   UNL     1      25.258 -24.296  62.653  0.00  0.00    +0.020 A 
ATOM      2  C   UNL     1      25.773 -25.191  61.644  0.00  0.00    +0.013 A 
ATOM      3  C   UNL     1      25.965 -26.607  61.932  0.00  0.00    +0.019 A 
ATOM     38  C   UNL     1      25.622 -27.089  63.261  0.00  0.00    +0.120 A 
ATOM     39  N   UNL     1      25.129 -26.202  64.214  0.00  0.00    -0.263 NA
ATOM     40  C   UNL     1      24.942 -24.837  63.949  0.00  0.00    +0.111 A 
ENDBRANCH   4   3
ENDBRANCH  10   9
BRANCH  12  13
ATOM     13  N   UNL     1      28.250 -29.194  53.359  0.00  0.00    -0.281 N 
ATOM     14  C   UNL     1      28.580 -28.709  52.104  0.00  0.00    +0.248 C 
ATOM     30  O   UNL     1      29.394 -27.821  51.899  0.00  0.00    -0.270 OA
ATOM     31  H   UNL     1      27.424 -29.790  53.407  0.00  0.00    +0.155 HD
BRANCH  14  15
ATOM     15  C   UNL     1      27.897 -29.284  50.906  0.00  0.00    +0.037 A 
ATOM     16  C   UNL     1      27.579 -30.712  50.825  0.00  0.00    +0.013 A 
ATOM     17  C   UNL     1      26.936 -31.244  49.650  0.00  0.00    +0.005 A 
ATOM     18  C   UNL     1      26.604 -30.346  48.546  0.00  0.00    -0.033 A 
ATOM     28  C   UNL     1      26.926 -28.933  48.655  0.00  0.00    +0.005 A 
ATOM     29  C   UNL     1      27.558 -28.408  49.805  0.00  0.00    +0.013 A 
BRANCH  18  19
ATOM     19  C   UNL     1      25.936 -30.830  47.245  0.00  0.00    +0.119 C 
BRANCH  19  20
ATOM     20  N   UNL     1      24.788 -30.028  46.727  0.00  0.00    -0.302 NA
ATOM     21  C   UNL     1      23.491 -30.325  47.485  0.00  0.00    +0.066 C 
ATOM     22  C   UNL     1      22.306 -29.461  46.945  0.00  0.00    -0.064 C 
ATOM     23  N   UNL     1      22.129 -29.721  45.448  0.00  0.00    +0.379 N 
ATOM     24  C   UNL     1      20.979 -28.954  44.948  0.00  0.00    -0.096 C 
ATOM     25  H   UNL     1      21.897 -30.804  45.318  0.00  0.00    -0.082 HD
ATOM     26  C   UNL     1      23.415 -29.431  44.686  0.00  0.00    -0.064 C 
ATOM     27  C   UNL     1      24.594 -30.273  45.251  0.00  0.00    +0.066 C 
ENDBRANCH  19  20
ENDBRANCH  18  19
ENDBRANCH  14  15
ENDBRANCH  12  13
TORSDOF 6
ENDMDL
MODEL 2
REMARK VINA RESULT:     -11.1      1.409      2.230
REMARK  Name = C:\Users\Docking\Desktop\test protocol\1iep_ligandH.pdb
REMARK  8 active torsions:
REMARK  status: ('A' for Active; 'I' for Inactive)
REMARK    1  A    between atoms: _5  and  _11
REMARK    2  A    between atoms: _19  and  _21
REMARK    3  A    between atoms: _22  and  _66
REMARK    4  A    between atoms: _27  and  _30
REMARK    5  A    between atoms: _32  and  _33
REMARK    6  A    between atoms: _38  and  _43
REMARK    7  A    between atoms: _43  and  _46
REMARK    8  A    between atoms: _53  and  _55
REMARK                            x       y       z     vdW  Elec       q    Type
REMARK                         _______ _______ _______ _____ _____    ______ ____
ROOT
ATOM     10  C   UNL     1      29.116 -27.974  56.781  0.00  0.00    +0.038 A 
ATOM     11  C   UNL     1      28.387 -28.200  55.585  0.00  0.00    +0.047 A 
ATOM     12  C   UNL     1      28.955 -28.973  54.492  0.00  0.00    +0.035 A 
ATOM     32  C   UNL     1      30.268 -29.505  54.651  0.00  0.00    +0.024 A 
ATOM     33  C   UNL     1      31.023 -29.285  55.859  0.00  0.00    +0.007 A 
ATOM     34  C   UNL     1      30.469 -28.521  56.940  0.00  0.00    -0.029 A 
ATOM     35  C   UNL     1      31.327 -28.311  58.210  0.00  0.00    +0.045 C 
ENDROOT
BRANCH  10   9
ATOM      4  C   UNL     1      26.561 -27.605  60.827  0.00  0.00    +0.077 A 
ATOM      5  C   UNL     1      26.370 -29.025  60.905  0.00  0.00    +0.048 A 
ATOM      6  C   UNL     1      26.939 -29.814  59.881  0.00  0.00    +0.116 A 
ATOM      7  N   UNL     1      27.645 -29.217  58.859  0.00  0.00    -0.223 NA
ATOM      8  C   UNL     1      27.809 -27.845  58.812  0.00  0.00    +0.220 A 
ATOM      9  N   UNL     1      28.522 -27.224  57.798  0.00  0.00    -0.283 N 
ATOM     36  H   UNL     1      28.614 -26.209  57.795  0.00  0.00    +0.155 HD
ATOM     37  N   UNL     1      27.274 -27.070  59.778  0.00  0.00    -0.214 NA
BRANCH   4   3
ATOM      1  C   UNL     1      25.391 -24.317  62.592  0.00  0.00    +0.020 A 
ATOM      2  C   UNL     1      25.918 -25.207  61.584  0.00  0.00    +0.013 A 
ATOM      3  C   UNL     1      26.023 -26.639  61.835  0.00  0.00    +0.019 A 
ATOM     38  C   UNL     1      25.581 -27.141  63.128  0.00  0.00    +0.120 A 
ATOM     39  N   UNL     1      25.078 -26.260  64.080  0.00  0.00    -0.263 NA
ATOM     40  C   UNL     1      24.975 -24.880  63.849  0.00  0.00    +0.111 A 
ENDBRANCH   4   3
ENDBRANCH  10   9
BRANCH  12  13
ATOM     13  N   UNL     1      28.265 -29.228  53.251  0.00  0.00    -0.281 N 
ATOM     14  C   UNL     1      28.523 -28.679  52.006  0.00  0.00    +0.248 C 
ATOM     30  O   UNL     1      29.253 -27.719  51.811  0.00  0.00    -0.270 OA
ATOM     31  H   UNL     1      27.494 -29.894  53.297  0.00  0.00    +0.155 HD
BRANCH  14  15
ATOM     15  C   UNL     1      27.862 -29.274  50.804  0.00  0.00    +0.037 A 
ATOM     16  C   UNL     1      27.484 -28.446  49.656  0.00  0.00    +0.013 A 
ATOM     17  C   UNL     1      26.833 -29.042  48.517  0.00  0.00    +0.005 A 
ATOM     18  C   UNL     1      26.556 -30.476  48.520  0.00  0.00    -0.033 A 
ATOM     28  C   UNL     1      26.945 -31.276  49.670  0.00  0.00    +0.005 A 
ATOM     29  C   UNL     1      27.583 -30.694  50.789  0.00  0.00    +0.013 A 
BRANCH  18  19
ATOM     19  C   UNL     1      25.845 -31.193  47.357  0.00  0.00    +0.119 C 
BRANCH  19  20
ATOM     20  N   UNL     1      26.258 -30.822  45.971  0.00  0.00    -0.302 NA
ATOM     21  C   UNL     1      25.168 -31.138  44.943  0.00  0.00    +0.066 C 
ATOM     22  C   UNL     1      25.607 -30.722  43.501  0.00  0.00    -0.064 C 
ATOM     23  N   UNL     1      26.913 -31.435  43.143  0.00  0.00    +0.379 N 
ATOM     24  C   UNL     1      27.298 -31.092  41.767  0.00  0.00    -0.096 C 
ATOM     25  H   UNL     1      26.718 -32.533  43.177  0.00  0.00    -0.082 HD
ATOM     26  C   UNL     1      28.001 -31.128  44.162  0.00  0.00    -0.064 C 
ATOM     27  C   UNL     1      27.543 -31.518  45.595  0.00  0.00    +0.066 C 
ENDBRANCH  19  20
ENDBRANCH  18  19
ENDBRANCH  14  15
ENDBRANCH  12  13
TORSDOF 6
ENDMDL
MODEL 3
REMARK VINA RESULT:     -10.7      1.384      2.068
REMARK  Name = C:\Users\Docking\Desktop\test protocol\1iep_ligandH.pdb
REMARK  8 active torsions:
REMARK  status: ('A' for Active; 'I' for Inactive)
REMARK    1  A    between atoms: _5  and  _11
REMARK    2  A    between atoms: _19  and  _21
REMARK    3  A    between atoms: _22  and  _66
REMARK    4  A    between atoms: _27  and  _30
REMARK    5  A    between atoms: _32  and  _33
REMARK    6  A    between atoms: _38  and  _43
REMARK    7  A    between atoms: _43  and  _46
REMARK    8  A    between atoms: _53  and  _55
REMARK                            x       y       z     vdW  Elec       q    Type
REMARK                         _______ _______ _______ _____ _____    ______ ____
ROOT
ATOM     10  C   UNL     1      29.057 -27.980  56.818  0.00  0.00    +0.038 A 
ATOM     11  C   UNL     1      28.341 -28.227  55.619  0.00  0.00    +0.047 A 
ATOM     12  C   UNL     1      28.935 -28.987  54.530  0.00  0.00    +0.035 A 
ATOM     32  C   UNL     1      30.261 -29.484  54.698  0.00  0.00    +0.024 A 
ATOM     33  C   UNL     1      31.003 -29.242  55.910  0.00  0.00    +0.007 A 
ATOM     34  C   UNL     1      30.423 -28.491  56.986  0.00  0.00    -0.029 A 
ATOM     35  C   UNL     1      31.268 -28.256  58.260  0.00  0.00    +0.045 C 
ENDROOT
BRANCH  10   9
ATOM      4  C   UNL     1      26.467 -27.673  60.848  0.00  0.00    +0.077 A 
ATOM      5  C   UNL     1      26.312 -29.097  60.927  0.00  0.00    +0.048 A 
ATOM      6  C   UNL     1      26.908 -29.872  59.907  0.00  0.00    +0.116 A 
ATOM      7  N   UNL     1      27.605 -29.259  58.889  0.00  0.00    -0.223 NA
ATOM      8  C   UNL     1      27.734 -27.883  58.842  0.00  0.00    +0.220 A 
ATOM      9  N   UNL     1      28.438 -27.245  57.832  0.00  0.00    -0.283 N 
ATOM     36  H   UNL     1      28.504 -26.227  57.828  0.00  0.00    +0.155 HD
ATOM     37  N   UNL     1      27.173 -27.120  59.803  0.00  0.00    -0.214 NA
BRANCH   4   3
ATOM      1  C   UNL     1      24.569 -26.190  63.929  0.00  0.00    +0.020 A 
ATOM      2  C   UNL     1      25.094 -27.152  62.988  0.00  0.00    +0.013 A 
ATOM      3  C   UNL     1      25.899 -26.719  61.852  0.00  0.00    +0.019 A 
ATOM     38  C   UNL     1      26.156 -25.296  61.697  0.00  0.00    +0.120 A 
ATOM     39  N   UNL     1      25.636 -24.392  62.619  0.00  0.00    -0.263 NA
ATOM     40  C   UNL     1      24.859 -24.796  63.715  0.00  0.00    +0.111 A 
ENDBRANCH   4   3
ENDBRANCH  10   9
BRANCH  12  13
ATOM     13  N   UNL     1      28.260 -29.261  53.287  0.00  0.00    -0.281 N 
ATOM     14  C   UNL     1      28.481 -28.677  52.050  0.00  0.00    +0.248 C 
ATOM     30  O   UNL     1      29.153 -27.672  51.871  0.00  0.00    -0.270 OA
ATOM     31  H   UNL     1      27.529 -29.972  53.322  0.00  0.00    +0.155 HD
BRANCH  14  15
ATOM     15  C   UNL     1      27.855 -29.290  50.839  0.00  0.00    +0.037 A 
ATOM     16  C   UNL     1      27.478 -28.474  49.683  0.00  0.00    +0.013 A 
ATOM     17  C   UNL     1      26.860 -29.088  48.534  0.00  0.00    +0.005 A 
ATOM     18  C   UNL     1      26.615 -30.528  48.537  0.00  0.00    -0.033 A 
ATOM     28  C   UNL     1      27.003 -31.315  49.696  0.00  0.00    +0.005 A 
ATOM     29  C   UNL     1      27.609 -30.717  50.824  0.00  0.00    +0.013 A 
BRANCH  18  19
ATOM     19  C   UNL     1      25.941 -31.264  47.364  0.00  0.00    +0.119 C 
BRANCH  19  20
ATOM     20  N   UNL     1      24.506 -31.643  47.529  0.00  0.00    -0.302 NA
ATOM     21  C   UNL     1      23.718 -30.585  48.306  0.00  0.00    +0.066 C 
ATOM     22  C   UNL     1      22.214 -30.986  48.449  0.00  0.00    -0.064 C 
ATOM     23  N   UNL     1      22.116 -32.348  49.139  0.00  0.00    +0.379 N 
ATOM     24  C   UNL     1      20.702 -32.702  49.327  0.00  0.00    -0.096 C 
ATOM     25  H   UNL     1      22.578 -32.250  50.148  0.00  0.00    -0.082 HD
ATOM     26  C   UNL     1      22.899 -33.406  48.374  0.00  0.00    -0.064 C 
ATOM     27  C   UNL     1      24.386 -32.984  48.212  0.00  0.00    +0.066 C 
ENDBRANCH  19  20
ENDBRANCH  18  19
ENDBRANCH  14  15
ENDBRANCH  12  13
TORSDOF 6
ENDMDL
MODEL 4
REMARK VINA RESULT:     -10.6      2.689     12.751
REMARK  Name = C:\Users\Docking\Desktop\test protocol\1iep_ligandH.pdb
REMARK  8 active torsions:
REMARK  status: ('A' for Active; 'I' for Inactive)
REMARK    1  A    between atoms: _5  and  _11
REMARK    2  A    between atoms: _19  and  _21
REMARK    3  A    between atoms: _22  and  _66
REMARK    4  A    between atoms: _27  and  _30
REMARK    5  A    between atoms: _32  and  _33
REMARK    6  A    between atoms: _38  and  _43
REMARK    7  A    between atoms: _43  and  _46
REMARK    8  A    between atoms: _53  and  _55
REMARK                            x       y       z     vdW  Elec       q    Type
REMARK                         _______ _______ _______ _____ _____    ______ ____
ROOT
ATOM     10  C   UNL     1      29.238 -29.356  55.181  0.00  0.00    +0.038 A 
ATOM     11  C   UNL     1      28.322 -28.944  56.182  0.00  0.00    +0.047 A 
ATOM     12  C   UNL     1      28.770 -28.218  57.360  0.00  0.00    +0.035 A 
ATOM     32  C   UNL     1      30.160 -27.926  57.485  0.00  0.00    +0.024 A 
ATOM     33  C   UNL     1      31.105 -28.338  56.477  0.00  0.00    +0.007 A 
ATOM     34  C   UNL     1      30.669 -29.056  55.314  0.00  0.00    -0.029 A 
ATOM     35  C   UNL     1      31.727 -29.479  54.269  0.00  0.00    +0.045 C 
ENDROOT
BRANCH  10   9
ATOM      4  C   UNL     1      27.893 -29.569  50.578  0.00  0.00    +0.077 A 
ATOM      5  C   UNL     1      28.155 -28.173  50.376  0.00  0.00    +0.048 A 
ATOM      6  C   UNL     1      28.628 -27.434  51.484  0.00  0.00    +0.116 A 
ATOM      7  N   UNL     1      28.821 -28.055  52.698  0.00  0.00    -0.223 NA
ATOM      8  C   UNL     1      28.557 -29.403  52.860  0.00  0.00    +0.220 A 
ATOM      9  N   UNL     1      28.752 -30.050  54.070  0.00  0.00    -0.283 N 
ATOM     36  H   UNL     1      28.539 -31.044  54.151  0.00  0.00    +0.155 HD
ATOM     37  N   UNL     1      28.104 -30.130  51.818  0.00  0.00    -0.214 NA
BRANCH   4   3
ATOM      1  C   UNL     1      27.410 -31.385  47.147  0.00  0.00    +0.020 A 
ATOM      2  C   UNL     1      27.928 -30.480  48.148  0.00  0.00    +0.013 A 
ATOM      3  C   UNL     1      27.393 -30.484  49.504  0.00  0.00    +0.019 A 
ATOM     38  C   UNL     1      26.327 -31.423  49.817  0.00  0.00    +0.120 A 
ATOM     39  N   UNL     1      25.847 -32.281  48.833  0.00  0.00    -0.263 NA
ATOM     40  C   UNL     1      26.352 -32.285  47.524  0.00  0.00    +0.111 A 
ENDBRANCH   4   3
ENDBRANCH  10   9
BRANCH  12  13
ATOM     13  N   UNL     1      27.887 -27.782  58.413  0.00  0.00    -0.281 N 
ATOM     14  C   UNL     1      27.399 -28.523  59.477  0.00  0.00    +0.248 C 
ATOM     30  O   UNL     1      27.478 -29.739  59.566  0.00  0.00    -0.270 OA
ATOM     31  H   UNL     1      27.586 -26.808  58.369  0.00  0.00    +0.155 HD
BRANCH  14  15
ATOM     15  C   UNL     1      26.711 -27.811  60.597  0.00  0.00    +0.037 A 
ATOM     16  C   UNL     1      27.206 -26.528  61.100  0.00  0.00    +0.013 A 
ATOM     17  C   UNL     1      26.534 -25.871  62.193  0.00  0.00    +0.005 A 
ATOM     18  C   UNL     1      25.356 -26.497  62.789  0.00  0.00    -0.033 A 
ATOM     28  C   UNL     1      24.883 -27.768  62.267  0.00  0.00    +0.005 A 
ATOM     29  C   UNL     1      25.540 -28.416  61.197  0.00  0.00    +0.013 A 
BRANCH  18  19
ATOM     19  C   UNL     1      24.589 -25.878  63.972  0.00  0.00    +0.119 C 
BRANCH  19  20
ATOM     20  N   UNL     1      24.394 -24.398  63.962  0.00  0.00    -0.302 NA
ATOM     21  C   UNL     1      24.210 -23.852  62.543  0.00  0.00    +0.066 C 
ATOM     22  C   UNL     1      23.985 -22.305  62.552  0.00  0.00    -0.064 C 
ATOM     23  N   UNL     1      25.168 -21.625  63.244  0.00  0.00    +0.379 N 
ATOM     24  C   UNL     1      24.988 -20.167  63.203  0.00  0.00    -0.096 C 
ATOM     25  H   UNL     1      26.086 -21.869  62.661  0.00  0.00    -0.082 HD
ATOM     26  C   UNL     1      25.360 -22.163  64.654  0.00  0.00    -0.064 C 
ATOM     27  C   UNL     1      25.553 -23.705  64.636  0.00  0.00    +0.066 C 
ENDBRANCH  19  20
ENDBRANCH  18  19
ENDBRANCH  14  15
ENDBRANCH  12  13
TORSDOF 6
ENDMDL
MODEL 5
REMARK VINA RESULT:     -10.3      7.634     12.425
REMARK  Name = C:\Users\Docking\Desktop\test protocol\1iep_ligandH.pdb
REMARK  8 active torsions:
REMARK  status: ('A' for Active; 'I' for Inactive)
REMARK    1  A    between atoms: _5  and  _11
REMARK    2  A    between atoms: _19  and  _21
REMARK    3  A    between atoms: _22  and  _66
REMARK    4  A    between atoms: _27  and  _30
REMARK    5  A    between atoms: _32  and  _33
REMARK    6  A    between atoms: _38  and  _43
REMARK    7  A    between atoms: _43  and  _46
REMARK    8  A    between atoms: _53  and  _55
REMARK                            x       y       z     vdW  Elec       q    Type
REMARK                         _______ _______ _______ _____ _____    ______ ____
ROOT
ATOM     10  C   UNL     1      21.422 -33.422  64.528  0.00  0.00    +0.038 A 
ATOM     11  C   UNL     1      22.336 -32.925  63.564  0.00  0.00    +0.047 A 
ATOM     12  C   UNL     1      22.688 -31.515  63.517  0.00  0.00    +0.035 A 
ATOM     32  C   UNL     1      22.091 -30.638  64.469  0.00  0.00    +0.024 A 
ATOM     33  C   UNL     1      21.160 -31.126  65.456  0.00  0.00    +0.007 A 
ATOM     34  C   UNL     1      20.807 -32.516  65.505  0.00  0.00    -0.029 A 
ATOM     35  C   UNL     1      19.798 -32.982  66.580  0.00  0.00    +0.045 C 
ENDROOT
BRANCH  10   9
ATOM      4  C   UNL     1      22.485 -37.992  63.513  0.00  0.00    +0.077 A 
ATOM      5  C   UNL     1      23.734 -37.629  62.909  0.00  0.00    +0.048 A 
ATOM      6  C   UNL     1      24.063 -36.255  62.872  0.00  0.00    +0.116 A 
ATOM      7  N   UNL     1      23.199 -35.322  63.405  0.00  0.00    -0.223 NA
ATOM      8  C   UNL     1      22.001 -35.706  63.979  0.00  0.00    +0.220 A 
ATOM      9  N   UNL     1      21.121 -34.786  64.528  0.00  0.00    -0.283 N 
ATOM     36  H   UNL     1      20.244 -35.109  64.936  0.00  0.00    +0.155 HD
ATOM     37  N   UNL     1      21.664 -37.012  64.025  0.00  0.00    -0.214 NA
BRANCH   4   3
ATOM      1  C   UNL     1      22.037 -41.842  62.986  0.00  0.00    +0.020 A 
ATOM      2  C   UNL     1      22.541 -40.496  62.834  0.00  0.00    +0.013 A 
ATOM      3  C   UNL     1      21.999 -39.403  63.630  0.00  0.00    +0.019 A 
ATOM     38  C   UNL     1      20.938 -39.707  64.579  0.00  0.00    +0.120 A 
ATOM     39  N   UNL     1      20.471 -41.012  64.703  0.00  0.00    -0.263 NA
ATOM     40  C   UNL     1      20.985 -42.072  63.941  0.00  0.00    +0.111 A 
ENDBRANCH   4   3
ENDBRANCH  10   9
BRANCH  12  13
ATOM     13  N   UNL     1      23.603 -30.951  62.556  0.00  0.00    -0.281 N 
ATOM     14  C   UNL     1      23.721 -29.627  62.167  0.00  0.00    +0.248 C 
ATOM     30  O   UNL     1      22.909 -28.753  62.433  0.00  0.00    -0.270 OA
ATOM     31  H   UNL     1      24.241 -31.609  62.107  0.00  0.00    +0.155 HD
BRANCH  14  15
ATOM     15  C   UNL     1      24.906 -29.216  61.354  0.00  0.00    +0.037 A 
ATOM     16  C   UNL     1      25.416 -30.063  60.272  0.00  0.00    +0.013 A 
ATOM     17  C   UNL     1      26.571 -29.651  59.514  0.00  0.00    +0.005 A 
ATOM     18  C   UNL     1      27.223 -28.384  59.835  0.00  0.00    -0.033 A 
ATOM     28  C   UNL     1      26.694 -27.561  60.910  0.00  0.00    +0.005 A 
ATOM     29  C   UNL     1      25.562 -27.962  61.656  0.00  0.00    +0.013 A 
BRANCH  18  19
ATOM     19  C   UNL     1      28.473 -27.875  59.093  0.00  0.00    +0.119 C 
BRANCH  19  20
ATOM     20  N   UNL     1      28.711 -28.399  57.715  0.00  0.00    -0.302 NA
ATOM     21  C   UNL     1      30.203 -28.522  57.396  0.00  0.00    +0.066 C 
ATOM     22  C   UNL     1      30.434 -29.092  55.959  0.00  0.00    -0.064 C 
ATOM     23  N   UNL     1      29.733 -28.194  54.938  0.00  0.00    +0.379 N 
ATOM     24  C   UNL     1      29.996 -28.695  53.581  0.00  0.00    -0.096 C 
ATOM     25  H   UNL     1      30.185 -27.177  55.017  0.00  0.00    -0.082 HD
ATOM     26  C   UNL     1      28.249 -28.064  55.249  0.00  0.00    -0.064 C 
ATOM     27  C   UNL     1      28.032 -27.524  56.691  0.00  0.00    +0.066 C 
ENDBRANCH  19  20
ENDBRANCH  18  19
ENDBRANCH  14  15
ENDBRANCH  12  13
TORSDOF 6
ENDMDL
