MODEL 1
REMARK VINA RESULT:      -8.1      0.000      0.000
REMARK  Name = C:\Users\Docking\Desktop\test protocol\1iep_ligandH.pdb
REMARK  8 active torsions:
REMARK  status: ('A' for Active; 'I' for Inactive)
REMARK    1  A    between atoms: _5  and  _11
REMARK    2  A    between atoms: _19  and  _21
REMARK    3  A    between atoms: _22  and  _66
REMARK    4  A    between atoms: _27  and  _30
REMARK    5  A    between atoms: _32  and  _33
REMARK    6  A    between atoms: _38  and  _43
REMARK    7  A    between atoms: _43  and  _46
REMARK    8  A    between atoms: _53  and  _55
REMARK                            x       y       z     vdW  Elec       q    Type
REMARK                         _______ _______ _______ _____ _____    ______ ____
ROOT
ATOM     10  C   UNL     1      -8.912  14.996  32.915  0.00  0.00    +0.038 A 
ATOM     11  C   UNL     1      -9.377  14.173  33.973  0.00  0.00    +0.047 A 
ATOM     12  C   UNL     1     -10.076  14.740  35.116  0.00  0.00    +0.035 A 
ATOM     32  C   UNL     1     -10.286  16.150  35.148  0.00  0.00    +0.024 A 
ATOM     33  C   UNL     1      -9.819  17.001  34.082  0.00  0.00    +0.007 A 
ATOM     34  C   UNL     1      -9.127  16.447  32.953  0.00  0.00    -0.029 A 
ATOM     35  C   UNL     1      -8.643  17.408  31.842  0.00  0.00    +0.045 C 
ENDROOT
BRANCH  10   9
ATOM      4  C   UNL     1      -4.910  13.813  30.544  0.00  0.00    +0.077 A 
ATOM      5  C   UNL     1      -4.074  14.464  31.511  0.00  0.00    +0.048 A 
ATOM      6  C   UNL     1      -4.714  15.098  32.600  0.00  0.00    +0.116 A 
ATOM      7  N   UNL     1      -6.088  15.075  32.704  0.00  0.00    -0.223 NA
ATOM      8  C   UNL     1      -6.865  14.440  31.753  0.00  0.00    +0.220 A 
ATOM      9  N   UNL     1      -8.247  14.398  31.842  0.00  0.00    -0.283 N 
ATOM     36  H   UNL     1      -8.785  13.925  31.116  0.00  0.00    +0.155 HD
ATOM     37  N   UNL     1      -6.278  13.829  30.703  0.00  0.00    -0.214 NA
BRANCH   4   3
ATOM      1  C   UNL     1      -2.502  12.232  27.898  0.00  0.00    +0.020 A 
ATOM      2  C   UNL     1      -2.959  12.933  29.076  0.00  0.00    +0.013 A 
ATOM      3  C   UNL     1      -4.383  13.097  29.340  0.00  0.00    +0.019 A 
ATOM     38  C   UNL     1      -5.326  12.535  28.384  0.00  0.00    +0.120 A 
ATOM     39  N   UNL     1      -4.857  11.867  27.258  0.00  0.00    -0.263 NA
ATOM     40  C   UNL     1      -3.489  11.704  26.993  0.00  0.00    +0.111 A 
ENDBRANCH   4   3
ENDBRANCH  10   9
BRANCH  12  13
ATOM     13  N   UNL     1     -10.564  13.956  36.223  0.00  0.00    -0.281 N 
ATOM     14  C   UNL     1     -11.741  13.230  36.299  0.00  0.00    +0.248 C 
ATOM     30  O   UNL     1     -12.660  13.318  35.499  0.00  0.00    -0.270 OA
ATOM     31  H   UNL     1      -9.969  13.934  37.052  0.00  0.00    +0.155 HD
BRANCH  14  15
ATOM     15  C   UNL     1     -11.930  12.278  37.436  0.00  0.00    +0.037 A 
ATOM     16  C   UNL     1     -12.433  12.736  38.734  0.00  0.00    +0.013 A 
ATOM     17  C   UNL     1     -12.590  11.800  39.820  0.00  0.00    +0.005 A 
ATOM     18  C   UNL     1     -12.245  10.396  39.610  0.00  0.00    -0.033 A 
ATOM     28  C   UNL     1     -11.753   9.969  38.311  0.00  0.00    +0.005 A 
ATOM     29  C   UNL     1     -11.597  10.883  37.245  0.00  0.00    +0.013 A 
BRANCH  18  19
ATOM     19  C   UNL     1     -12.360   9.333  40.718  0.00  0.00    +0.119 C 
BRANCH  19  20
ATOM     20  N   UNL     1     -11.267   9.281  41.734  0.00  0.00    -0.302 NA
ATOM     21  C   UNL     1     -10.602   7.903  41.793  0.00  0.00    +0.066 C 
ATOM     22  C   UNL     1      -9.446   7.874  42.845  0.00  0.00    -0.064 C 
ATOM     23  N   UNL     1      -9.997   8.268  44.216  0.00  0.00    +0.379 N 
ATOM     24  C   UNL     1      -8.925   8.185  45.218  0.00  0.00    -0.096 C 
ATOM     25  H   UNL     1     -10.778   7.522  44.493  0.00  0.00    -0.082 HD
ATOM     26  C   UNL     1     -10.662   9.636  44.166  0.00  0.00    -0.064 C 
ATOM     27  C   UNL     1     -11.790   9.663  43.097  0.00  0.00    +0.066 C 
ENDBRANCH  19  20
ENDBRANCH  18  19
ENDBRANCH  14  15
ENDBRANCH  12  13
TORSDOF 6
ENDMDL
MODEL 2
REMARK VINA RESULT:      -8.1     12.856     18.212
REMARK  Name = C:\Users\Docking\Desktop\test protocol\1iep_ligandH.pdb
REMARK  8 active torsions:
REMARK  status: ('A' for Active; 'I' for Inactive)
REMARK    1  A    between atoms: _5  and  _11
REMARK    2  A    between atoms: _19  and  _21
REMARK    3  A    between atoms: _22  and  _66
REMARK    4  A    between atoms: _27  and  _30
REMARK    5  A    between atoms: _32  and  _33
REMARK    6  A    between atoms: _38  and  _43
REMARK    7  A    between atoms: _43  and  _46
REMARK    8  A    between atoms: _53  and  _55
REMARK                            x       y       z     vdW  Elec       q    Type
REMARK                         _______ _______ _______ _____ _____    ______ ____
ROOT
ATOM     10  C   UNL     1     -11.459  22.817  25.509  0.00  0.00    +0.038 A 
ATOM     11  C   UNL     1     -11.471  24.110  26.093  0.00  0.00    +0.047 A 
ATOM     12  C   UNL     1     -12.456  25.105  25.698  0.00  0.00    +0.035 A 
ATOM     32  C   UNL     1     -13.416  24.748  24.706  0.00  0.00    +0.024 A 
ATOM     33  C   UNL     1     -13.417  23.439  24.101  0.00  0.00    +0.007 A 
ATOM     34  C   UNL     1     -12.446  22.455  24.485  0.00  0.00    -0.029 A 
ATOM     35  C   UNL     1     -12.490  21.070  23.799  0.00  0.00    +0.045 C 
ENDROOT
BRANCH  10   9
ATOM      4  C   UNL     1      -7.138  20.760  25.136  0.00  0.00    +0.077 A 
ATOM      5  C   UNL     1      -6.790  21.560  23.997  0.00  0.00    +0.048 A 
ATOM      6  C   UNL     1      -7.754  22.483  23.534  0.00  0.00    +0.116 A 
ATOM      7  N   UNL     1      -8.971  22.591  24.171  0.00  0.00    -0.223 NA
ATOM      8  C   UNL     1      -9.276  21.804  25.266  0.00  0.00    +0.220 A 
ATOM      9  N   UNL     1     -10.490  21.901  25.927  0.00  0.00    -0.283 N 
ATOM     36  H   UNL     1     -10.679  21.297  26.726  0.00  0.00    +0.155 HD
ATOM     37  N   UNL     1      -8.373  20.913  25.727  0.00  0.00    -0.214 NA
BRANCH   4   3
ATOM      1  C   UNL     1      -5.356  18.401  27.698  0.00  0.00    +0.020 A 
ATOM      2  C   UNL     1      -6.260  19.392  27.160  0.00  0.00    +0.013 A 
ATOM      3  C   UNL     1      -6.225  19.742  25.746  0.00  0.00    +0.019 A 
ATOM     38  C   UNL     1      -5.256  19.066  24.896  0.00  0.00    +0.120 A 
ATOM     39  N   UNL     1      -4.398  18.117  25.442  0.00  0.00    -0.263 NA
ATOM     40  C   UNL     1      -4.421  17.773  26.802  0.00  0.00    +0.111 A 
ENDBRANCH   4   3
ENDBRANCH  10   9
BRANCH  12  13
ATOM     13  N   UNL     1     -12.513  26.436  26.249  0.00  0.00    -0.281 N 
ATOM     14  C   UNL     1     -13.633  27.143  26.654  0.00  0.00    +0.248 C 
ATOM     30  O   UNL     1     -14.784  26.817  26.402  0.00  0.00    -0.270 OA
ATOM     31  H   UNL     1     -11.618  26.914  26.355  0.00  0.00    +0.155 HD
BRANCH  14  15
ATOM     15  C   UNL     1     -13.449  28.401  27.439  0.00  0.00    +0.037 A 
ATOM     16  C   UNL     1     -13.669  28.433  28.887  0.00  0.00    +0.013 A 
ATOM     17  C   UNL     1     -13.501  29.664  29.617  0.00  0.00    +0.005 A 
ATOM     18  C   UNL     1     -13.107  30.874  28.900  0.00  0.00    -0.033 A 
ATOM     28  C   UNL     1     -12.889  30.813  27.464  0.00  0.00    +0.005 A 
ATOM     29  C   UNL     1     -13.055  29.609  26.745  0.00  0.00    +0.013 A 
BRANCH  18  19
ATOM     19  C   UNL     1     -12.925  32.236  29.595  0.00  0.00    +0.119 C 
BRANCH  19  20
ATOM     20  N   UNL     1     -14.158  32.934  30.068  0.00  0.00    -0.302 NA
ATOM     21  C   UNL     1     -14.937  33.568  28.912  0.00  0.00    +0.066 C 
ATOM     22  C   UNL     1     -16.236  34.274  29.422  0.00  0.00    -0.064 C 
ATOM     23  N   UNL     1     -15.864  35.327  30.468  0.00  0.00    +0.379 N 
ATOM     24  C   UNL     1     -17.077  36.032  30.906  0.00  0.00    -0.096 C 
ATOM     25  H   UNL     1     -15.199  36.073  29.974  0.00  0.00    -0.082 HD
ATOM     26  C   UNL     1     -15.087  34.704  31.619  0.00  0.00    -0.064 C 
ATOM     27  C   UNL     1     -13.814  33.981  31.098  0.00  0.00    +0.066 C 
ENDBRANCH  19  20
ENDBRANCH  18  19
ENDBRANCH  14  15
ENDBRANCH  12  13
TORSDOF 6
ENDMDL
MODEL 3
REMARK VINA RESULT:      -8.0      9.700     14.605
REMARK  Name = C:\Users\Docking\Desktop\test protocol\1iep_ligandH.pdb
REMARK  8 active torsions:
REMARK  status: ('A' for Active; 'I' for Inactive)
REMARK    1  A    between atoms: _5  and  _11
REMARK    2  A    between atoms: _19  and  _21
REMARK    3  A    between atoms: _22  and  _66
REMARK    4  A    between atoms: _27  and  _30
REMARK    5  A    between atoms: _32  and  _33
REMARK    6  A    between atoms: _38  and  _43
REMARK    7  A    between atoms: _43  and  _46
REMARK    8  A    between atoms: _53  and  _55
REMARK                            x       y       z     vdW  Elec       q    Type
REMARK                         _______ _______ _______ _____ _____    ______ ____
ROOT
ATOM     10  C   UNL     1     -10.678  23.940  25.047  0.00  0.00    +0.038 A 
ATOM     11  C   UNL     1     -10.331  22.799  25.816  0.00  0.00    +0.047 A 
ATOM     12  C   UNL     1     -10.024  21.528  25.179  0.00  0.00    +0.035 A 
ATOM     32  C   UNL     1     -10.078  21.455  23.756  0.00  0.00    +0.024 A 
ATOM     33  C   UNL     1     -10.430  22.604  22.960  0.00  0.00    +0.007 A 
ATOM     34  C   UNL     1     -10.736  23.860  23.583  0.00  0.00    -0.029 A 
ATOM     35  C   UNL     1     -11.113  25.057  22.680  0.00  0.00    +0.045 C 
ENDROOT
BRANCH  10   9
ATOM      4  C   UNL     1     -13.739  27.300  26.588  0.00  0.00    +0.077 A 
ATOM      5  C   UNL     1     -14.863  26.631  25.997  0.00  0.00    +0.048 A 
ATOM      6  C   UNL     1     -14.609  25.429  25.300  0.00  0.00    +0.116 A 
ATOM      7  N   UNL     1     -13.324  24.941  25.206  0.00  0.00    -0.223 NA
ATOM      8  C   UNL     1     -12.263  25.612  25.786  0.00  0.00    +0.220 A 
ATOM      9  N   UNL     1     -10.963  25.135  25.711  0.00  0.00    -0.283 N 
ATOM     36  H   UNL     1     -10.206  25.663  26.146  0.00  0.00    +0.155 HD
ATOM     37  N   UNL     1     -12.478  26.763  26.456  0.00  0.00    -0.214 NA
BRANCH   4   3
ATOM      1  C   UNL     1     -12.901  30.746  28.237  0.00  0.00    +0.020 A 
ATOM      2  C   UNL     1     -12.745  29.526  27.481  0.00  0.00    +0.013 A 
ATOM      3  C   UNL     1     -13.847  28.579  27.360  0.00  0.00    +0.019 A 
ATOM     38  C   UNL     1     -15.102  28.900  28.021  0.00  0.00    +0.120 A 
ATOM     39  N   UNL     1     -15.223  30.082  28.744  0.00  0.00    -0.263 NA
ATOM     40  C   UNL     1     -14.169  31.000  28.869  0.00  0.00    +0.111 A 
ENDBRANCH   4   3
ENDBRANCH  10   9
BRANCH  12  13
ATOM     13  N   UNL     1      -9.674  20.334  25.907  0.00  0.00    -0.281 N 
ATOM     14  C   UNL     1      -8.435  19.718  25.988  0.00  0.00    +0.248 C 
ATOM     30  O   UNL     1      -7.484  19.984  25.269  0.00  0.00    -0.270 OA
ATOM     31  H   UNL     1     -10.431  19.888  26.426  0.00  0.00    +0.155 HD
BRANCH  14  15
ATOM     15  C   UNL     1      -8.229  18.643  27.005  0.00  0.00    +0.037 A 
ATOM     16  C   UNL     1      -6.904  18.375  27.570  0.00  0.00    +0.013 A 
ATOM     17  C   UNL     1      -6.729  17.321  28.536  0.00  0.00    +0.005 A 
ATOM     18  C   UNL     1      -7.884  16.525  28.945  0.00  0.00    -0.033 A 
ATOM     28  C   UNL     1      -9.188  16.815  28.373  0.00  0.00    +0.005 A 
ATOM     29  C   UNL     1      -9.363  17.848  27.424  0.00  0.00    +0.013 A 
BRANCH  18  19
ATOM     19  C   UNL     1      -7.786  15.367  29.955  0.00  0.00    +0.119 C 
BRANCH  19  20
ATOM     20  N   UNL     1      -8.559  15.500  31.226  0.00  0.00    -0.302 NA
ATOM     21  C   UNL     1      -8.268  16.824  31.938  0.00  0.00    +0.066 C 
ATOM     22  C   UNL     1      -9.101  16.958  33.255  0.00  0.00    -0.064 C 
ATOM     23  N   UNL     1      -8.795  15.771  34.171  0.00  0.00    +0.379 N 
ATOM     24  C   UNL     1      -9.533  15.924  35.433  0.00  0.00    -0.096 C 
ATOM     25  H   UNL     1      -7.707  15.800  34.409  0.00  0.00    -0.082 HD
ATOM     26  C   UNL     1      -9.079  14.451  33.469  0.00  0.00    -0.064 C 
ATOM     27  C   UNL     1      -8.268  14.341  32.148  0.00  0.00    +0.066 C 
ENDBRANCH  19  20
ENDBRANCH  18  19
ENDBRANCH  14  15
ENDBRANCH  12  13
TORSDOF 6
ENDMDL
MODEL 4
REMARK VINA RESULT:      -8.0      1.894      2.427
REMARK  Name = C:\Users\Docking\Desktop\test protocol\1iep_ligandH.pdb
REMARK  8 active torsions:
REMARK  status: ('A' for Active; 'I' for Inactive)
REMARK    1  A    between atoms: _5  and  _11
REMARK    2  A    between atoms: _19  and  _21
REMARK    3  A    between atoms: _22  and  _66
REMARK    4  A    between atoms: _27  and  _30
REMARK    5  A    between atoms: _32  and  _33
REMARK    6  A    between atoms: _38  and  _43
REMARK    7  A    between atoms: _43  and  _46
REMARK    8  A    between atoms: _53  and  _55
REMARK                            x       y       z     vdW  Elec       q    Type
REMARK                         _______ _______ _______ _____ _____    ______ ____
ROOT
ATOM     10  C   UNL     1      -8.880  15.072  32.822  0.00  0.00    +0.038 A 
ATOM     11  C   UNL     1      -9.331  14.083  33.733  0.00  0.00    +0.047 A 
ATOM     12  C   UNL     1     -10.056  14.445  34.940  0.00  0.00    +0.035 A 
ATOM     32  C   UNL     1     -10.308  15.826  35.188  0.00  0.00    +0.024 A 
ATOM     33  C   UNL     1      -9.856  16.845  34.273  0.00  0.00    +0.007 A 
ATOM     34  C   UNL     1      -9.138  16.494  33.082  0.00  0.00    -0.029 A 
ATOM     35  C   UNL     1      -8.673  17.629  32.141  0.00  0.00    +0.045 C 
ENDROOT
BRANCH  10   9
ATOM      4  C   UNL     1      -4.818  14.241  30.405  0.00  0.00    +0.077 A 
ATOM      5  C   UNL     1      -4.005  14.675  31.504  0.00  0.00    +0.048 A 
ATOM      6  C   UNL     1      -4.672  15.111  32.671  0.00  0.00    +0.116 A 
ATOM      7  N   UNL     1      -6.049  15.109  32.724  0.00  0.00    -0.223 NA
ATOM      8  C   UNL     1      -6.803  14.686  31.645  0.00  0.00    +0.220 A 
ATOM      9  N   UNL     1      -8.189  14.667  31.678  0.00  0.00    -0.283 N 
ATOM     36  H   UNL     1      -8.709  14.355  30.859  0.00  0.00    +0.155 HD
ATOM     37  N   UNL     1      -6.190  14.266  30.518  0.00  0.00    -0.214 NA
BRANCH   4   3
ATOM      1  C   UNL     1      -4.244  13.619  26.586  0.00  0.00    +0.020 A 
ATOM      2  C   UNL     1      -4.820  14.122  27.812  0.00  0.00    +0.013 A 
ATOM      3  C   UNL     1      -4.261  13.748  29.105  0.00  0.00    +0.019 A 
ATOM     38  C   UNL     1      -3.111  12.858  29.123  0.00  0.00    +0.120 A 
ATOM     39  N   UNL     1      -2.579  12.388  27.927  0.00  0.00    -0.263 NA
ATOM     40  C   UNL     1      -3.109  12.739  26.676  0.00  0.00    +0.111 A 
ENDBRANCH   4   3
ENDBRANCH  10   9
BRANCH  12  13
ATOM     13  N   UNL     1     -10.531  13.485  35.906  0.00  0.00    -0.281 N 
ATOM     14  C   UNL     1     -11.636  12.656  35.809  0.00  0.00    +0.248 C 
ATOM     30  O   UNL     1     -12.512  12.767  34.964  0.00  0.00    -0.270 OA
ATOM     31  H   UNL     1      -9.985  13.407  36.764  0.00  0.00    +0.155 HD
BRANCH  14  15
ATOM     15  C   UNL     1     -11.800  11.552  36.804  0.00  0.00    +0.037 A 
ATOM     16  C   UNL     1     -11.576  11.779  38.234  0.00  0.00    +0.013 A 
ATOM     17  C   UNL     1     -11.724  10.693  39.170  0.00  0.00    +0.005 A 
ATOM     18  C   UNL     1     -12.100   9.370  38.679  0.00  0.00    -0.033 A 
ATOM     28  C   UNL     1     -12.321   9.174  37.255  0.00  0.00    +0.005 A 
ATOM     29  C   UNL     1     -12.176  10.236  36.335  0.00  0.00    +0.013 A 
BRANCH  18  19
ATOM     19  C   UNL     1     -12.261   8.149  39.603  0.00  0.00    +0.119 C 
BRANCH  19  20
ATOM     20  N   UNL     1     -11.227   7.075  39.503  0.00  0.00    -0.302 NA
ATOM     21  C   UNL     1     -11.804   5.773  38.941  0.00  0.00    +0.066 C 
ATOM     22  C   UNL     1     -10.705   4.668  38.822  0.00  0.00    -0.064 C 
ATOM     23  N   UNL     1     -10.072   4.432  40.195  0.00  0.00    +0.379 N 
ATOM     24  C   UNL     1      -9.078   3.353  40.098  0.00  0.00    -0.096 C 
ATOM     25  H   UNL     1     -10.878   4.089  40.884  0.00  0.00    -0.082 HD
ATOM     26  C   UNL     1      -9.498   5.723  40.762  0.00  0.00    -0.064 C 
ATOM     27  C   UNL     1     -10.592   6.823  40.849  0.00  0.00    +0.066 C 
ENDBRANCH  19  20
ENDBRANCH  18  19
ENDBRANCH  14  15
ENDBRANCH  12  13
TORSDOF 6
ENDMDL
MODEL 5
REMARK VINA RESULT:      -7.9     18.333     23.672
REMARK  Name = C:\Users\Docking\Desktop\test protocol\1iep_ligandH.pdb
REMARK  8 active torsions:
REMARK  status: ('A' for Active; 'I' for Inactive)
REMARK    1  A    between atoms: _5  and  _11
REMARK    2  A    between atoms: _19  and  _21
REMARK    3  A    between atoms: _22  and  _66
REMARK    4  A    between atoms: _27  and  _30
REMARK    5  A    between atoms: _32  and  _33
REMARK    6  A    between atoms: _38  and  _43
REMARK    7  A    between atoms: _43  and  _46
REMARK    8  A    between atoms: _53  and  _55
REMARK                            x       y       z     vdW  Elec       q    Type
REMARK                         _______ _______ _______ _____ _____    ______ ____
ROOT
ATOM     10  C   UNL     1     -17.158  33.410  26.731  0.00  0.00    +0.038 A 
ATOM     11  C   UNL     1     -16.647  32.141  26.354  0.00  0.00    +0.047 A 
ATOM     12  C   UNL     1     -15.417  31.623  26.933  0.00  0.00    +0.035 A 
ATOM     32  C   UNL     1     -14.735  32.422  27.896  0.00  0.00    +0.024 A 
ATOM     33  C   UNL     1     -15.240  33.714  28.290  0.00  0.00    +0.007 A 
ATOM     34  C   UNL     1     -16.451  34.232  27.720  0.00  0.00    -0.029 A 
ATOM     35  C   UNL     1     -16.942  35.626  28.175  0.00  0.00    +0.045 C 
ENDROOT
BRANCH  10   9
ATOM      4  C   UNL     1     -19.592  35.418  23.115  0.00  0.00    +0.077 A 
ATOM      5  C   UNL     1     -18.399  35.616  22.343  0.00  0.00    +0.048 A 
ATOM      6  C   UNL     1     -17.178  35.193  22.916  0.00  0.00    +0.116 A 
ATOM      7  N   UNL     1     -17.164  34.616  24.167  0.00  0.00    -0.223 NA
ATOM      8  C   UNL     1     -18.333  34.442  24.886  0.00  0.00    +0.220 A 
ATOM      9  N   UNL     1     -18.343  33.858  26.143  0.00  0.00    -0.283 N 
ATOM     36  H   UNL     1     -19.225  33.754  26.644  0.00  0.00    +0.155 HD
ATOM     37  N   UNL     1     -19.511  34.839  24.362  0.00  0.00    -0.214 NA
BRANCH   4   3
ATOM      1  C   UNL     1     -23.470  35.575  22.629  0.00  0.00    +0.020 A 
ATOM      2  C   UNL     1     -22.175  35.158  23.114  0.00  0.00    +0.013 A 
ATOM      3  C   UNL     1     -20.959  35.810  22.645  0.00  0.00    +0.019 A 
ATOM     38  C   UNL     1     -21.089  36.889  21.677  0.00  0.00    +0.120 A 
ATOM     39  N   UNL     1     -22.350  37.267  21.226  0.00  0.00    -0.263 NA
ATOM     40  C   UNL     1     -23.527  36.646  21.670  0.00  0.00    +0.111 A 
ENDBRANCH   4   3
ENDBRANCH  10   9
BRANCH  12  13
ATOM     13  N   UNL     1     -14.846  30.346  26.584  0.00  0.00    -0.281 N 
ATOM     14  C   UNL     1     -14.793  29.197  27.355  0.00  0.00    +0.248 C 
ATOM     30  O   UNL     1     -15.041  29.155  28.551  0.00  0.00    -0.270 OA
ATOM     31  H   UNL     1     -14.430  30.282  25.654  0.00  0.00    +0.155 HD
BRANCH  14  15
ATOM     15  C   UNL     1     -14.393  27.911  26.708  0.00  0.00    +0.037 A 
ATOM     16  C   UNL     1     -15.321  27.172  25.848  0.00  0.00    +0.013 A 
ATOM     17  C   UNL     1     -14.915  25.925  25.250  0.00  0.00    +0.005 A 
ATOM     18  C   UNL     1     -13.573  25.409  25.508  0.00  0.00    -0.033 A 
ATOM     28  C   UNL     1     -12.670  26.166  26.361  0.00  0.00    +0.005 A 
ATOM     29  C   UNL     1     -13.065  27.388  26.950  0.00  0.00    +0.013 A 
BRANCH  18  19
ATOM     19  C   UNL     1     -13.062  24.077  24.929  0.00  0.00    +0.119 C 
BRANCH  19  20
ATOM     20  N   UNL     1     -11.584  23.862  24.907  0.00  0.00    -0.302 NA
ATOM     21  C   UNL     1     -10.985  24.132  23.524  0.00  0.00    +0.066 C 
ATOM     22  C   UNL     1      -9.435  23.924  23.525  0.00  0.00    -0.064 C 
ATOM     23  N   UNL     1      -9.115  22.502  23.986  0.00  0.00    +0.379 N 
ATOM     24  C   UNL     1      -7.661  22.284  23.932  0.00  0.00    -0.096 C 
ATOM     25  H   UNL     1      -9.589  21.797  23.263  0.00  0.00    -0.082 HD
ATOM     26  C   UNL     1      -9.709  22.224  25.359  0.00  0.00    -0.064 C 
ATOM     27  C   UNL     1     -11.245  22.462  25.355  0.00  0.00    +0.066 C 
ENDBRANCH  19  20
ENDBRANCH  18  19
ENDBRANCH  14  15
ENDBRANCH  12  13
TORSDOF 6
ENDMDL
