MODEL 1
REMARK VINA RESULT:      -8.6      0.000      0.000
REMARK  Name = C:\Users\Docking\Desktop\test protocol\1iep_ligandH.pdb
REMARK  8 active torsions:
REMARK  status: ('A' for Active; 'I' for Inactive)
REMARK    1  A    between atoms: _5  and  _11
REMARK    2  A    between atoms: _19  and  _21
REMARK    3  A    between atoms: _22  and  _66
REMARK    4  A    between atoms: _27  and  _30
REMARK    5  A    between atoms: _32  and  _33
REMARK    6  A    between atoms: _38  and  _43
REMARK    7  A    between atoms: _43  and  _46
REMARK    8  A    between atoms: _53  and  _55
REMARK                            x       y       z     vdW  Elec       q    Type
REMARK                         _______ _______ _______ _____ _____    ______ ____
ROOT
ATOM     10  C   UNL     1      30.767  44.694  46.156  0.00  0.00    +0.038 A 
ATOM     11  C   UNL     1      32.015  44.693  46.830  0.00  0.00    +0.047 A 
ATOM     12  C   UNL     1      32.149  45.256  48.164  0.00  0.00    +0.035 A 
ATOM     32  C   UNL     1      30.991  45.810  48.784  0.00  0.00    +0.024 A 
ATOM     33  C   UNL     1      29.715  45.820  48.112  0.00  0.00    +0.007 A 
ATOM     34  C   UNL     1      29.577  45.268  46.795  0.00  0.00    -0.029 A 
ATOM     35  C   UNL     1      28.186  45.312  46.120  0.00  0.00    +0.045 C 
ENDROOT
BRANCH  10   9
ATOM      4  C   UNL     1      29.636  41.133  43.142  0.00  0.00    +0.077 A 
ATOM      5  C   UNL     1      29.174  40.296  44.211  0.00  0.00    +0.048 A 
ATOM      6  C   UNL     1      29.251  40.816  45.523  0.00  0.00    +0.116 A 
ATOM      7  N   UNL     1      29.754  42.081  45.737  0.00  0.00    -0.223 NA
ATOM      8  C   UNL     1      30.193  42.862  44.684  0.00  0.00    +0.220 A 
ATOM      9  N   UNL     1      30.695  44.140  44.875  0.00  0.00    -0.283 N 
ATOM     36  H   UNL     1      31.015  44.681  44.073  0.00  0.00    +0.155 HD
ATOM     37  N   UNL     1      30.131  42.387  43.422  0.00  0.00    -0.214 NA
BRANCH   4   3
ATOM      1  C   UNL     1      30.580  39.525  39.704  0.00  0.00    +0.020 A 
ATOM      2  C   UNL     1      30.646  39.890  41.100  0.00  0.00    +0.013 A 
ATOM      3  C   UNL     1      29.616  40.726  41.701  0.00  0.00    +0.019 A 
ATOM     38  C   UNL     1      28.522  41.181  40.856  0.00  0.00    +0.120 A 
ATOM     39  N   UNL     1      28.485  40.815  39.514  0.00  0.00    -0.263 NA
ATOM     40  C   UNL     1      29.472  40.011  38.924  0.00  0.00    +0.111 A 
ENDBRANCH   4   3
ENDBRANCH  10   9
BRANCH  12  13
ATOM     13  N   UNL     1      33.392  45.291  48.895  0.00  0.00    -0.281 N 
ATOM     14  C   UNL     1      34.301  44.262  49.077  0.00  0.00    +0.248 C 
ATOM     30  O   UNL     1      34.080  43.089  48.816  0.00  0.00    -0.270 OA
ATOM     31  H   UNL     1      33.629  46.182  49.331  0.00  0.00    +0.155 HD
BRANCH  14  15
ATOM     15  C   UNL     1      35.647  44.580  49.644  0.00  0.00    +0.037 A 
ATOM     16  C   UNL     1      36.348  45.817  49.289  0.00  0.00    +0.013 A 
ATOM     17  C   UNL     1      37.653  46.092  49.837  0.00  0.00    +0.005 A 
ATOM     18  C   UNL     1      38.265  45.127  50.748  0.00  0.00    -0.033 A 
ATOM     28  C   UNL     1      37.545  43.910  51.087  0.00  0.00    +0.005 A 
ATOM     29  C   UNL     1      36.267  43.637  50.551  0.00  0.00    +0.013 A 
BRANCH  18  19
ATOM     19  C   UNL     1      39.662  45.327  51.363  0.00  0.00    +0.119 C 
BRANCH  19  20
ATOM     20  N   UNL     1      40.817  45.420  50.421  0.00  0.00    -0.302 NA
ATOM     21  C   UNL     1      40.904  44.202  49.496  0.00  0.00    +0.066 C 
ATOM     22  C   UNL     1      42.104  44.326  48.502  0.00  0.00    -0.064 C 
ATOM     23  N   UNL     1      43.402  44.498  49.293  0.00  0.00    +0.379 N 
ATOM     24  C   UNL     1      44.539  44.557  48.363  0.00  0.00    -0.096 C 
ATOM     25  H   UNL     1      43.532  43.593  49.930  0.00  0.00    -0.082 HD
ATOM     26  C   UNL     1      43.324  45.705  50.217  0.00  0.00    -0.064 C 
ATOM     27  C   UNL     1      42.110  45.586  51.181  0.00  0.00    +0.066 C 
ENDBRANCH  19  20
ENDBRANCH  18  19
ENDBRANCH  14  15
ENDBRANCH  12  13
TORSDOF 6
ENDMDL
MODEL 2
REMARK VINA RESULT:      -8.5      6.786     10.753
REMARK  Name = C:\Users\Docking\Desktop\test protocol\1iep_ligandH.pdb
REMARK  8 active torsions:
REMARK  status: ('A' for Active; 'I' for Inactive)
REMARK    1  A    between atoms: _5  and  _11
REMARK    2  A    between atoms: _19  and  _21
REMARK    3  A    between atoms: _22  and  _66
REMARK    4  A    between atoms: _27  and  _30
REMARK    5  A    between atoms: _32  and  _33
REMARK    6  A    between atoms: _38  and  _43
REMARK    7  A    between atoms: _43  and  _46
REMARK    8  A    between atoms: _53  and  _55
REMARK                            x       y       z     vdW  Elec       q    Type
REMARK                         _______ _______ _______ _____ _____    ______ ____
ROOT
ATOM     10  C   UNL     1      30.214  43.664  47.116  0.00  0.00    +0.038 A 
ATOM     11  C   UNL     1      29.783  42.818  48.170  0.00  0.00    +0.047 A 
ATOM     12  C   UNL     1      28.932  43.321  49.237  0.00  0.00    +0.035 A 
ATOM     32  C   UNL     1      28.537  44.689  49.199  0.00  0.00    +0.024 A 
ATOM     33  C   UNL     1      28.967  45.563  48.136  0.00  0.00    +0.007 A 
ATOM     34  C   UNL     1      29.808  45.074  47.081  0.00  0.00    -0.029 A 
ATOM     35  C   UNL     1      30.244  46.058  45.970  0.00  0.00    +0.045 C 
ENDROOT
BRANCH  10   9
ATOM      4  C   UNL     1      30.852  41.340  42.965  0.00  0.00    +0.077 A 
ATOM      5  C   UNL     1      29.441  41.152  42.785  0.00  0.00    +0.048 A 
ATOM      6  C   UNL     1      28.586  41.662  43.788  0.00  0.00    +0.116 A 
ATOM      7  N   UNL     1      29.113  42.310  44.883  0.00  0.00    -0.223 NA
ATOM      8  C   UNL     1      30.478  42.473  45.027  0.00  0.00    +0.220 A 
ATOM      9  N   UNL     1      31.030  43.129  46.117  0.00  0.00    -0.283 N 
ATOM     36  H   UNL     1      32.043  43.222  46.189  0.00  0.00    +0.155 HD
ATOM     37  N   UNL     1      31.317  41.994  44.084  0.00  0.00    -0.214 NA
BRANCH   4   3
ATOM      1  C   UNL     1      32.670  39.351  40.130  0.00  0.00    +0.020 A 
ATOM      2  C   UNL     1      31.640  39.775  41.050  0.00  0.00    +0.013 A 
ATOM      3  C   UNL     1      31.883  40.860  41.992  0.00  0.00    +0.019 A 
ATOM     38  C   UNL     1      33.190  41.501  41.976  0.00  0.00    +0.120 A 
ATOM     39  N   UNL     1      34.163  41.070  41.080  0.00  0.00    -0.263 NA
ATOM     40  C   UNL     1      33.941  40.025  40.170  0.00  0.00    +0.111 A 
ENDBRANCH   4   3
ENDBRANCH  10   9
BRANCH  12  13
ATOM     13  N   UNL     1      28.470  42.511  50.338  0.00  0.00    -0.281 N 
ATOM     14  C   UNL     1      27.405  42.759  51.189  0.00  0.00    +0.248 C 
ATOM     30  O   UNL     1      26.817  43.827  51.266  0.00  0.00    -0.270 OA
ATOM     31  H   UNL     1      28.990  41.651  50.510  0.00  0.00    +0.155 HD
BRANCH  14  15
ATOM     15  C   UNL     1      26.935  41.667  52.094  0.00  0.00    +0.037 A 
ATOM     16  C   UNL     1      25.514  41.329  52.203  0.00  0.00    +0.013 A 
ATOM     17  C   UNL     1      25.086  40.282  53.097  0.00  0.00    +0.005 A 
ATOM     18  C   UNL     1      26.082  39.565  53.889  0.00  0.00    -0.033 A 
ATOM     28  C   UNL     1      27.486  39.917  53.758  0.00  0.00    +0.005 A 
ATOM     29  C   UNL     1      27.909  40.943  52.883  0.00  0.00    +0.013 A 
BRANCH  18  19
ATOM     19  C   UNL     1      25.714  38.448  54.884  0.00  0.00    +0.119 C 
BRANCH  19  20
ATOM     20  N   UNL     1      25.769  37.042  54.384  0.00  0.00    -0.302 NA
ATOM     21  C   UNL     1      24.414  36.569  53.848  0.00  0.00    +0.066 C 
ATOM     22  C   UNL     1      24.496  35.104  53.309  0.00  0.00    -0.064 C 
ATOM     23  N   UNL     1      24.989  34.180  54.424  0.00  0.00    +0.379 N 
ATOM     24  C   UNL     1      25.011  32.793  53.938  0.00  0.00    -0.096 C 
ATOM     25  H   UNL     1      24.251  34.235  55.259  0.00  0.00    -0.082 HD
ATOM     26  C   UNL     1      26.333  34.644  54.965  0.00  0.00    -0.064 C 
ATOM     27  C   UNL     1      26.249  36.112  55.471  0.00  0.00    +0.066 C 
ENDBRANCH  19  20
ENDBRANCH  18  19
ENDBRANCH  14  15
ENDBRANCH  12  13
TORSDOF 6
ENDMDL
MODEL 3
REMARK VINA RESULT:      -8.3      6.286     14.195
REMARK  Name = C:\Users\Docking\Desktop\test protocol\1iep_ligandH.pdb
REMARK  8 active torsions:
REMARK  status: ('A' for Active; 'I' for Inactive)
REMARK    1  A    between atoms: _5  and  _11
REMARK    2  A    between atoms: _19  and  _21
REMARK    3  A    between atoms: _22  and  _66
REMARK    4  A    between atoms: _27  and  _30
REMARK    5  A    between atoms: _32  and  _33
REMARK    6  A    between atoms: _38  and  _43
REMARK    7  A    between atoms: _43  and  _46
REMARK    8  A    between atoms: _53  and  _55
REMARK                            x       y       z     vdW  Elec       q    Type
REMARK                         _______ _______ _______ _____ _____    ______ ____
ROOT
ATOM     10  C   UNL     1      30.482  40.876  41.133  0.00  0.00    +0.038 A 
ATOM     11  C   UNL     1      29.499  41.790  40.673  0.00  0.00    +0.047 A 
ATOM     12  C   UNL     1      28.954  41.694  39.327  0.00  0.00    +0.035 A 
ATOM     32  C   UNL     1      29.431  40.654  38.477  0.00  0.00    +0.024 A 
ATOM     33  C   UNL     1      30.430  39.718  38.928  0.00  0.00    +0.007 A 
ATOM     34  C   UNL     1      30.973  39.809  40.254  0.00  0.00    -0.029 A 
ATOM     35  C   UNL     1      32.047  38.781  40.682  0.00  0.00    +0.045 C 
ENDROOT
BRANCH  10   9
ATOM      4  C   UNL     1      29.897  40.863  45.897  0.00  0.00    +0.077 A 
ATOM      5  C   UNL     1      28.495  40.584  45.783  0.00  0.00    +0.048 A 
ATOM      6  C   UNL     1      27.961  40.459  44.481  0.00  0.00    +0.116 A 
ATOM      7  N   UNL     1      28.779  40.603  43.381  0.00  0.00    -0.223 NA
ATOM      8  C   UNL     1      30.127  40.873  43.526  0.00  0.00    +0.220 A 
ATOM      9  N   UNL     1      30.970  41.014  42.434  0.00  0.00    -0.283 N 
ATOM     36  H   UNL     1      31.958  41.221  42.582  0.00  0.00    +0.155 HD
ATOM     37  N   UNL     1      30.661  40.999  44.759  0.00  0.00    -0.214 NA
BRANCH   4   3
ATOM      1  C   UNL     1      31.451  40.138  49.412  0.00  0.00    +0.020 A 
ATOM      2  C   UNL     1      30.754  39.933  48.163  0.00  0.00    +0.013 A 
ATOM      3  C   UNL     1      30.609  41.021  47.205  0.00  0.00    +0.019 A 
ATOM     38  C   UNL     1      31.185  42.314  47.542  0.00  0.00    +0.120 A 
ATOM     39  N   UNL     1      31.850  42.482  48.753  0.00  0.00    -0.263 NA
ATOM     40  C   UNL     1      31.994  41.442  49.684  0.00  0.00    +0.111 A 
ENDBRANCH   4   3
ENDBRANCH  10   9
BRANCH  12  13
ATOM     13  N   UNL     1      27.961  42.598  38.802  0.00  0.00    -0.281 N 
ATOM     14  C   UNL     1      26.633  42.716  39.179  0.00  0.00    +0.248 C 
ATOM     30  O   UNL     1      26.039  41.910  39.881  0.00  0.00    -0.270 OA
ATOM     31  H   UNL     1      28.274  43.227  38.063  0.00  0.00    +0.155 HD
BRANCH  14  15
ATOM     15  C   UNL     1      25.846  43.890  38.693  0.00  0.00    +0.037 A 
ATOM     16  C   UNL     1      26.442  44.887  37.800  0.00  0.00    +0.013 A 
ATOM     17  C   UNL     1      25.666  46.020  37.361  0.00  0.00    +0.005 A 
ATOM     18  C   UNL     1      24.284  46.161  37.814  0.00  0.00    -0.033 A 
ATOM     28  C   UNL     1      23.717  45.154  38.695  0.00  0.00    +0.005 A 
ATOM     29  C   UNL     1      24.474  44.043  39.129  0.00  0.00    +0.013 A 
BRANCH  18  19
ATOM     19  C   UNL     1      23.389  47.348  37.412  0.00  0.00    +0.119 C 
BRANCH  19  20
ATOM     20  N   UNL     1      23.519  48.603  38.211  0.00  0.00    -0.302 NA
ATOM     21  C   UNL     1      22.196  49.005  38.869  0.00  0.00    +0.066 C 
ATOM     22  C   UNL     1      22.356  50.307  39.719  0.00  0.00    -0.064 C 
ATOM     23  N   UNL     1      22.881  51.434  38.827  0.00  0.00    +0.379 N 
ATOM     24  C   UNL     1      22.978  52.675  39.610  0.00  0.00    -0.096 C 
ATOM     25  H   UNL     1      22.133  51.601  38.018  0.00  0.00    -0.082 HD
ATOM     26  C   UNL     1      24.196  51.041  38.167  0.00  0.00    -0.064 C 
ATOM     27  C   UNL     1      24.033  49.730  37.349  0.00  0.00    +0.066 C 
ENDBRANCH  19  20
ENDBRANCH  18  19
ENDBRANCH  14  15
ENDBRANCH  12  13
TORSDOF 6
ENDMDL
MODEL 4
REMARK VINA RESULT:      -8.0      8.760     10.018
REMARK  Name = C:\Users\Docking\Desktop\test protocol\1iep_ligandH.pdb
REMARK  8 active torsions:
REMARK  status: ('A' for Active; 'I' for Inactive)
REMARK    1  A    between atoms: _5  and  _11
REMARK    2  A    between atoms: _19  and  _21
REMARK    3  A    between atoms: _22  and  _66
REMARK    4  A    between atoms: _27  and  _30
REMARK    5  A    between atoms: _32  and  _33
REMARK    6  A    between atoms: _38  and  _43
REMARK    7  A    between atoms: _43  and  _46
REMARK    8  A    between atoms: _53  and  _55
REMARK                            x       y       z     vdW  Elec       q    Type
REMARK                         _______ _______ _______ _____ _____    ______ ____
ROOT
ATOM     10  C   UNL     1      32.129  38.557  51.745  0.00  0.00    +0.038 A 
ATOM     11  C   UNL     1      33.432  37.999  51.766  0.00  0.00    +0.047 A 
ATOM     12  C   UNL     1      33.737  36.828  52.572  0.00  0.00    +0.035 A 
ATOM     32  C   UNL     1      32.689  36.248  53.345  0.00  0.00    +0.024 A 
ATOM     33  C   UNL     1      31.358  36.802  53.337  0.00  0.00    +0.007 A 
ATOM     34  C   UNL     1      31.052  37.959  52.544  0.00  0.00    -0.029 A 
ATOM     35  C   UNL     1      29.609  38.515  52.579  0.00  0.00    +0.045 C 
ENDROOT
BRANCH  10   9
ATOM      4  C   UNL     1      30.500  40.648  47.744  0.00  0.00    +0.077 A 
ATOM      5  C   UNL     1      30.112  39.390  47.173  0.00  0.00    +0.048 A 
ATOM      6  C   UNL     1      30.356  38.228  47.939  0.00  0.00    +0.116 A 
ATOM      7  N   UNL     1      30.943  38.328  49.181  0.00  0.00    -0.223 NA
ATOM      8  C   UNL     1      31.307  39.557  49.701  0.00  0.00    +0.220 A 
ATOM      9  N   UNL     1      31.892  39.682  50.952  0.00  0.00    -0.283 N 
ATOM     36  H   UNL     1      32.152  40.605  51.297  0.00  0.00    +0.155 HD
ATOM     37  N   UNL     1      31.086  40.681  48.989  0.00  0.00    -0.214 NA
BRANCH   4   3
ATOM      1  C   UNL     1      30.192  43.420  45.001  0.00  0.00    +0.020 A 
ATOM      2  C   UNL     1      30.389  42.126  45.613  0.00  0.00    +0.013 A 
ATOM      3  C   UNL     1      30.305  41.965  47.059  0.00  0.00    +0.019 A 
ATOM     38  C   UNL     1      30.016  43.143  47.864  0.00  0.00    +0.120 A 
ATOM     39  N   UNL     1      29.833  44.376  47.247  0.00  0.00    -0.263 NA
ATOM     40  C   UNL     1      29.913  44.544  45.856  0.00  0.00    +0.111 A 
ENDBRANCH   4   3
ENDBRANCH  10   9
BRANCH  12  13
ATOM     13  N   UNL     1      35.044  36.222  52.639  0.00  0.00    -0.281 N 
ATOM     14  C   UNL     1      36.104  36.572  53.460  0.00  0.00    +0.248 C 
ATOM     30  O   UNL     1      36.160  37.603  54.115  0.00  0.00    -0.270 OA
ATOM     31  H   UNL     1      35.208  35.441  52.005  0.00  0.00    +0.155 HD
BRANCH  14  15
ATOM     15  C   UNL     1      37.278  35.652  53.556  0.00  0.00    +0.037 A 
ATOM     16  C   UNL     1      38.356  35.690  52.565  0.00  0.00    +0.013 A 
ATOM     17  C   UNL     1      39.468  34.779  52.672  0.00  0.00    +0.005 A 
ATOM     18  C   UNL     1      39.508  33.823  53.776  0.00  0.00    -0.033 A 
ATOM     28  C   UNL     1      38.427  33.811  54.748  0.00  0.00    +0.005 A 
ATOM     29  C   UNL     1      37.335  34.701  54.646  0.00  0.00    +0.013 A 
BRANCH  18  19
ATOM     19  C   UNL     1      40.645  32.800  53.956  0.00  0.00    +0.119 C 
BRANCH  19  20
ATOM     20  N   UNL     1      41.066  32.026  52.751  0.00  0.00    -0.302 NA
ATOM     21  C   UNL     1      40.669  30.550  52.849  0.00  0.00    +0.066 C 
ATOM     22  C   UNL     1      41.097  29.759  51.570  0.00  0.00    -0.064 C 
ATOM     23  N   UNL     1      42.606  29.902  51.366  0.00  0.00    +0.379 N 
ATOM     24  C   UNL     1      43.020  29.112  50.197  0.00  0.00    -0.096 C 
ATOM     25  H   UNL     1      43.110  29.471  52.262  0.00  0.00    -0.082 HD
ATOM     26  C   UNL     1      43.009  31.367  51.270  0.00  0.00    -0.064 C 
ATOM     27  C   UNL     1      42.554  32.149  52.533  0.00  0.00    +0.066 C 
ENDBRANCH  19  20
ENDBRANCH  18  19
ENDBRANCH  14  15
ENDBRANCH  12  13
TORSDOF 6
ENDMDL
MODEL 5
REMARK VINA RESULT:      -8.0      6.893     12.413
REMARK  Name = C:\Users\Docking\Desktop\test protocol\1iep_ligandH.pdb
REMARK  8 active torsions:
REMARK  status: ('A' for Active; 'I' for Inactive)
REMARK    1  A    between atoms: _5  and  _11
REMARK    2  A    between atoms: _19  and  _21
REMARK    3  A    between atoms: _22  and  _66
REMARK    4  A    between atoms: _27  and  _30
REMARK    5  A    between atoms: _32  and  _33
REMARK    6  A    between atoms: _38  and  _43
REMARK    7  A    between atoms: _43  and  _46
REMARK    8  A    between atoms: _53  and  _55
REMARK                            x       y       z     vdW  Elec       q    Type
REMARK                         _______ _______ _______ _____ _____    ______ ____
ROOT
ATOM     10  C   UNL     1      32.203  36.849  52.514  0.00  0.00    +0.038 A 
ATOM     11  C   UNL     1      31.869  37.596  51.355  0.00  0.00    +0.047 A 
ATOM     12  C   UNL     1      30.655  38.395  51.299  0.00  0.00    +0.035 A 
ATOM     32  C   UNL     1      29.804  38.413  52.443  0.00  0.00    +0.024 A 
ATOM     33  C   UNL     1      30.127  37.659  53.628  0.00  0.00    +0.007 A 
ATOM     34  C   UNL     1      31.323  36.867  53.689  0.00  0.00    -0.029 A 
ATOM     35  C   UNL     1      31.616  36.073  54.983  0.00  0.00    +0.045 C 
ENDROOT
BRANCH  10   9
ATOM      4  C   UNL     1      36.795  36.180  53.740  0.00  0.00    +0.077 A 
ATOM      5  C   UNL     1      36.860  37.444  54.417  0.00  0.00    +0.048 A 
ATOM      6  C   UNL     1      35.692  38.239  54.420  0.00  0.00    +0.116 A 
ATOM      7  N   UNL     1      34.550  37.793  53.790  0.00  0.00    -0.223 NA
ATOM      8  C   UNL     1      34.521  36.570  53.146  0.00  0.00    +0.220 A 
ATOM      9  N   UNL     1      33.381  36.099  52.513  0.00  0.00    -0.283 N 
ATOM     36  H   UNL     1      33.403  35.195  52.043  0.00  0.00    +0.155 HD
ATOM     37  N   UNL     1      35.624  35.793  53.128  0.00  0.00    -0.214 NA
BRANCH   4   3
ATOM      1  C   UNL     1      40.127  34.439  52.661  0.00  0.00    +0.020 A 
ATOM      2  C   UNL     1      39.039  35.389  52.704  0.00  0.00    +0.013 A 
ATOM      3  C   UNL     1      37.945  35.226  53.653  0.00  0.00    +0.019 A 
ATOM     38  C   UNL     1      37.982  34.082  54.552  0.00  0.00    +0.120 A 
ATOM     39  N   UNL     1      39.041  33.182  54.486  0.00  0.00    -0.263 NA
ATOM     40  C   UNL     1      40.099  33.328  53.576  0.00  0.00    +0.111 A 
ENDBRANCH   4   3
ENDBRANCH  10   9
BRANCH  12  13
ATOM     13  N   UNL     1      30.260  39.167  50.147  0.00  0.00    -0.281 N 
ATOM     14  C   UNL     1      30.947  40.207  49.543  0.00  0.00    +0.248 C 
ATOM     30  O   UNL     1      31.912  40.775  50.033  0.00  0.00    -0.270 OA
ATOM     31  H   UNL     1      29.365  38.917  49.726  0.00  0.00    +0.155 HD
BRANCH  14  15
ATOM     15  C   UNL     1      30.488  40.696  48.207  0.00  0.00    +0.037 A 
ATOM     16  C   UNL     1      29.785  39.812  47.275  0.00  0.00    +0.013 A 
ATOM     17  C   UNL     1      29.368  40.305  45.986  0.00  0.00    +0.005 A 
ATOM     18  C   UNL     1      29.651  41.691  45.623  0.00  0.00    -0.033 A 
ATOM     28  C   UNL     1      30.345  42.548  46.570  0.00  0.00    +0.005 A 
ATOM     29  C   UNL     1      30.757  42.069  47.833  0.00  0.00    +0.013 A 
BRANCH  18  19
ATOM     19  C   UNL     1      29.261  42.296  44.261  0.00  0.00    +0.119 C 
BRANCH  19  20
ATOM     20  N   UNL     1      30.099  41.924  43.083  0.00  0.00    -0.302 NA
ATOM     21  C   UNL     1      29.540  40.706  42.341  0.00  0.00    +0.066 C 
ATOM     22  C   UNL     1      30.416  40.344  41.098  0.00  0.00    -0.064 C 
ATOM     23  N   UNL     1      31.856  40.089  41.549  0.00  0.00    +0.379 N 
ATOM     24  C   UNL     1      32.670  39.692  40.391  0.00  0.00    -0.096 C 
ATOM     25  H   UNL     1      31.839  39.232  42.262  0.00  0.00    -0.082 HD
ATOM     26  C   UNL     1      32.419  41.294  42.290  0.00  0.00    -0.064 C 
ATOM     27  C   UNL     1      31.524  41.663  43.506  0.00  0.00    +0.066 C 
ENDBRANCH  19  20
ENDBRANCH  18  19
ENDBRANCH  14  15
ENDBRANCH  12  13
TORSDOF 6
ENDMDL
