MODEL 1
REMARK VINA RESULT:      -9.1      0.000      0.000
REMARK  Name = C:\Users\Docking\Desktop\test protocol\1iep_ligandH.pdb
REMARK  8 active torsions:
REMARK  status: ('A' for Active; 'I' for Inactive)
REMARK    1  A    between atoms: _5  and  _11
REMARK    2  A    between atoms: _19  and  _21
REMARK    3  A    between atoms: _22  and  _66
REMARK    4  A    between atoms: _27  and  _30
REMARK    5  A    between atoms: _32  and  _33
REMARK    6  A    between atoms: _38  and  _43
REMARK    7  A    between atoms: _43  and  _46
REMARK    8  A    between atoms: _53  and  _55
REMARK                            x       y       z     vdW  Elec       q    Type
REMARK                         _______ _______ _______ _____ _____    ______ ____
ROOT
ATOM     10  C   UNL     1      21.402  24.682  18.254  0.00  0.00    +0.038 A 
ATOM     11  C   UNL     1      20.612  24.045  19.245  0.00  0.00    +0.047 A 
ATOM     12  C   UNL     1      21.202  23.114  20.194  0.00  0.00    +0.035 A 
ATOM     32  C   UNL     1      22.601  22.856  20.106  0.00  0.00    +0.024 A 
ATOM     33  C   UNL     1      23.419  23.494  19.104  0.00  0.00    +0.007 A 
ATOM     34  C   UNL     1      22.842  24.411  18.164  0.00  0.00    -0.029 A 
ATOM     35  C   UNL     1      23.765  25.061  17.107  0.00  0.00    +0.045 C 
ENDROOT
BRANCH  10   9
ATOM      4  C   UNL     1      19.562  25.776  13.958  0.00  0.00    +0.077 A 
ATOM      5  C   UNL     1      19.885  24.484  13.424  0.00  0.00    +0.048 A 
ATOM      6  C   UNL     1      20.531  23.569  14.286  0.00  0.00    +0.116 A 
ATOM      7  N   UNL     1      20.826  23.930  15.583  0.00  0.00    -0.223 NA
ATOM      8  C   UNL     1      20.502  25.185  16.065  0.00  0.00    +0.220 A 
ATOM      9  N   UNL     1      20.783  25.567  17.368  0.00  0.00    -0.283 N 
ATOM     36  H   UNL     1      20.534  26.504  17.683  0.00  0.00    +0.155 HD
ATOM     37  N   UNL     1      19.886  26.077  15.262  0.00  0.00    -0.214 NA
BRANCH   4   3
ATOM      1  C   UNL     1      18.102  29.227  12.837  0.00  0.00    +0.020 A 
ATOM      2  C   UNL     1      18.775  28.228  13.634  0.00  0.00    +0.013 A 
ATOM      3  C   UNL     1      18.876  26.850  13.172  0.00  0.00    +0.019 A 
ATOM     38  C   UNL     1      18.281  26.513  11.887  0.00  0.00    +0.120 A 
ATOM     39  N   UNL     1      17.638  27.496  11.142  0.00  0.00    -0.263 NA
ATOM     40  C   UNL     1      17.533  28.825  11.577  0.00  0.00    +0.111 A 
ENDBRANCH   4   3
ENDBRANCH  10   9
BRANCH  12  13
ATOM     13  N   UNL     1      20.449  22.431  21.217  0.00  0.00    -0.281 N 
ATOM     14  C   UNL     1      20.636  22.482  22.588  0.00  0.00    +0.248 C 
ATOM     30  O   UNL     1      21.620  22.957  23.135  0.00  0.00    -0.270 OA
ATOM     31  H   UNL     1      19.686  21.839  20.890  0.00  0.00    +0.155 HD
BRANCH  14  15
ATOM     15  C   UNL     1      19.584  21.908  23.482  0.00  0.00    +0.037 A 
ATOM     16  C   UNL     1      19.442  22.352  24.871  0.00  0.00    +0.013 A 
ATOM     17  C   UNL     1      18.430  21.770  25.717  0.00  0.00    +0.005 A 
ATOM     18  C   UNL     1      17.550  20.738  25.173  0.00  0.00    -0.033 A 
ATOM     28  C   UNL     1      17.709  20.320  23.790  0.00  0.00    +0.005 A 
ATOM     29  C   UNL     1      18.700  20.888  22.959  0.00  0.00    +0.013 A 
BRANCH  18  19
ATOM     19  C   UNL     1      16.456  20.047  26.009  0.00  0.00    +0.119 C 
BRANCH  19  20
ATOM     20  N   UNL     1      16.664  19.980  27.486  0.00  0.00    -0.302 NA
ATOM     21  C   UNL     1      17.541  18.792  27.890  0.00  0.00    +0.066 C 
ATOM     22  C   UNL     1      17.767  18.750  29.437  0.00  0.00    -0.064 C 
ATOM     23  N   UNL     1      16.413  18.690  30.146  0.00  0.00    +0.379 N 
ATOM     24  C   UNL     1      16.623  18.592  31.597  0.00  0.00    -0.096 C 
ATOM     25  H   UNL     1      15.900  17.757  29.815  0.00  0.00    -0.082 HD
ATOM     26  C   UNL     1      15.534  19.867  29.748  0.00  0.00    -0.064 C 
ATOM     27  C   UNL     1      15.340  19.916  28.206  0.00  0.00    +0.066 C 
ENDBRANCH  19  20
ENDBRANCH  18  19
ENDBRANCH  14  15
ENDBRANCH  12  13
TORSDOF 6
ENDMDL
MODEL 2
REMARK VINA RESULT:      -9.0     12.780     18.375
REMARK  Name = C:\Users\Docking\Desktop\test protocol\1iep_ligandH.pdb
REMARK  8 active torsions:
REMARK  status: ('A' for Active; 'I' for Inactive)
REMARK    1  A    between atoms: _5  and  _11
REMARK    2  A    between atoms: _19  and  _21
REMARK    3  A    between atoms: _22  and  _66
REMARK    4  A    between atoms: _27  and  _30
REMARK    5  A    between atoms: _32  and  _33
REMARK    6  A    between atoms: _38  and  _43
REMARK    7  A    between atoms: _43  and  _46
REMARK    8  A    between atoms: _53  and  _55
REMARK                            x       y       z     vdW  Elec       q    Type
REMARK                         _______ _______ _______ _____ _____    ______ ____
ROOT
ATOM     10  C   UNL     1      16.704  34.305  15.010  0.00  0.00    +0.038 A 
ATOM     11  C   UNL     1      16.601  35.694  15.275  0.00  0.00    +0.047 A 
ATOM     12  C   UNL     1      16.176  36.183  16.577  0.00  0.00    +0.035 A 
ATOM     32  C   UNL     1      15.865  35.228  17.588  0.00  0.00    +0.024 A 
ATOM     33  C   UNL     1      15.963  33.812  17.336  0.00  0.00    +0.007 A 
ATOM     34  C   UNL     1      16.380  33.324  16.053  0.00  0.00    -0.029 A 
ATOM     35  C   UNL     1      16.460  31.795  15.837  0.00  0.00    +0.045 C 
ENDROOT
BRANCH  10   9
ATOM      4  C   UNL     1      15.807  32.619  10.606  0.00  0.00    +0.077 A 
ATOM      5  C   UNL     1      14.399  32.529  10.864  0.00  0.00    +0.048 A 
ATOM      6  C   UNL     1      13.947  32.920  12.144  0.00  0.00    +0.116 A 
ATOM      7  N   UNL     1      14.845  33.366  13.089  0.00  0.00    -0.223 NA
ATOM      8  C   UNL     1      16.197  33.438  12.809  0.00  0.00    +0.220 A 
ATOM      9  N   UNL     1      17.117  33.891  13.742  0.00  0.00    -0.283 N 
ATOM     36  H   UNL     1      18.107  33.923  13.499  0.00  0.00    +0.155 HD
ATOM     37  N   UNL     1      16.654  33.070  11.594  0.00  0.00    -0.214 NA
BRANCH   4   3
ATOM      1  C   UNL     1      17.294  32.797   6.993  0.00  0.00    +0.020 A 
ATOM      2  C   UNL     1      16.681  33.209   8.235  0.00  0.00    +0.013 A 
ATOM      3  C   UNL     1      16.438  32.246   9.301  0.00  0.00    +0.019 A 
ATOM     38  C   UNL     1      16.830  30.863   9.077  0.00  0.00    +0.120 A 
ATOM     39  N   UNL     1      17.417  30.495   7.870  0.00  0.00    -0.263 NA
ATOM     40  C   UNL     1      17.654  31.413   6.836  0.00  0.00    +0.111 A 
ENDBRANCH   4   3
ENDBRANCH  10   9
BRANCH  12  13
ATOM     13  N   UNL     1      16.045  37.582  16.901  0.00  0.00    -0.281 N 
ATOM     14  C   UNL     1      17.056  38.500  17.136  0.00  0.00    +0.248 C 
ATOM     30  O   UNL     1      18.229  38.206  17.314  0.00  0.00    -0.270 OA
ATOM     31  H   UNL     1      15.092  37.939  16.966  0.00  0.00    +0.155 HD
BRANCH  14  15
ATOM     15  C   UNL     1      16.712  39.953  17.197  0.00  0.00    +0.037 A 
ATOM     16  C   UNL     1      17.603  40.969  16.631  0.00  0.00    +0.013 A 
ATOM     17  C   UNL     1      17.256  42.365  16.718  0.00  0.00    +0.005 A 
ATOM     18  C   UNL     1      16.009  42.753  17.374  0.00  0.00    -0.033 A 
ATOM     28  C   UNL     1      15.141  41.724  17.922  0.00  0.00    +0.005 A 
ATOM     29  C   UNL     1      15.479  40.355  17.839  0.00  0.00    +0.013 A 
BRANCH  18  19
ATOM     19  C   UNL     1      15.568  44.221  17.531  0.00  0.00    +0.119 C 
BRANCH  19  20
ATOM     20  N   UNL     1      14.212  44.586  17.024  0.00  0.00    -0.302 NA
ATOM     21  C   UNL     1      14.284  45.439  15.755  0.00  0.00    +0.066 C 
ATOM     22  C   UNL     1      12.856  45.793  15.225  0.00  0.00    -0.064 C 
ATOM     23  N   UNL     1      12.074  46.518  16.322  0.00  0.00    +0.379 N 
ATOM     24  C   UNL     1      10.751  46.903  15.807  0.00  0.00    -0.096 C 
ATOM     25  H   UNL     1      12.626  47.454  16.569  0.00  0.00    -0.082 HD
ATOM     26  C   UNL     1      12.000  45.677  17.588  0.00  0.00    -0.064 C 
ATOM     27  C   UNL     1      13.423  45.306  18.090  0.00  0.00    +0.066 C 
ENDBRANCH  19  20
ENDBRANCH  18  19
ENDBRANCH  14  15
ENDBRANCH  12  13
TORSDOF 6
ENDMDL
MODEL 3
REMARK VINA RESULT:      -8.9      5.569     10.625
REMARK  Name = C:\Users\Docking\Desktop\test protocol\1iep_ligandH.pdb
REMARK  8 active torsions:
REMARK  status: ('A' for Active; 'I' for Inactive)
REMARK    1  A    between atoms: _5  and  _11
REMARK    2  A    between atoms: _19  and  _21
REMARK    3  A    between atoms: _22  and  _66
REMARK    4  A    between atoms: _27  and  _30
REMARK    5  A    between atoms: _32  and  _33
REMARK    6  A    between atoms: _38  and  _43
REMARK    7  A    between atoms: _43  and  _46
REMARK    8  A    between atoms: _53  and  _55
REMARK                            x       y       z     vdW  Elec       q    Type
REMARK                         _______ _______ _______ _____ _____    ______ ____
ROOT
ATOM     10  C   UNL     1      17.676  31.381  12.738  0.00  0.00    +0.038 A 
ATOM     11  C   UNL     1      18.139  30.183  13.340  0.00  0.00    +0.047 A 
ATOM     12  C   UNL     1      17.939  28.893  12.699  0.00  0.00    +0.035 A 
ATOM     32  C   UNL     1      17.265  28.860  11.443  0.00  0.00    +0.024 A 
ATOM     33  C   UNL     1      16.788  30.068  10.817  0.00  0.00    +0.007 A 
ATOM     34  C   UNL     1      16.980  31.343  11.446  0.00  0.00    -0.029 A 
ATOM     35  C   UNL     1      16.441  32.605  10.733  0.00  0.00    +0.045 C 
ENDROOT
BRANCH  10   9
ATOM      4  C   UNL     1      16.716  34.535  16.227  0.00  0.00    +0.077 A 
ATOM      5  C   UNL     1      15.671  33.712  16.764  0.00  0.00    +0.048 A 
ATOM      6  C   UNL     1      15.408  32.488  16.109  0.00  0.00    +0.116 A 
ATOM      7  N   UNL     1      16.141  32.124  15.001  0.00  0.00    -0.223 NA
ATOM      8  C   UNL     1      17.140  32.942  14.507  0.00  0.00    +0.220 A 
ATOM      9  N   UNL     1      17.895  32.593  13.398  0.00  0.00    -0.283 N 
ATOM     36  H   UNL     1      18.619  33.227  13.060  0.00  0.00    +0.155 HD
ATOM     37  N   UNL     1      17.411  34.117  15.113  0.00  0.00    -0.214 NA
BRANCH   4   3
ATOM      1  C   UNL     1      16.774  38.325  17.192  0.00  0.00    +0.020 A 
ATOM      2  C   UNL     1      16.345  37.076  16.607  0.00  0.00    +0.013 A 
ATOM      3  C   UNL     1      17.115  35.855  16.809  0.00  0.00    +0.019 A 
ATOM     38  C   UNL     1      18.324  35.934  17.616  0.00  0.00    +0.120 A 
ATOM     39  N   UNL     1      18.713  37.151  18.166  0.00  0.00    -0.263 NA
ATOM     40  C   UNL     1      17.981  38.332  17.976  0.00  0.00    +0.111 A 
ENDBRANCH   4   3
ENDBRANCH  10   9
BRANCH  12  13
ATOM     13  N   UNL     1      18.379  27.643  13.266  0.00  0.00    -0.281 N 
ATOM     14  C   UNL     1      19.579  26.986  13.051  0.00  0.00    +0.248 C 
ATOM     30  O   UNL     1      20.374  27.270  12.166  0.00  0.00    -0.270 OA
ATOM     31  H   UNL     1      17.727  27.187  13.904  0.00  0.00    +0.155 HD
BRANCH  14  15
ATOM     15  C   UNL     1      19.944  25.838  13.936  0.00  0.00    +0.037 A 
ATOM     16  C   UNL     1      20.000  24.468  13.421  0.00  0.00    +0.013 A 
ATOM     17  C   UNL     1      20.338  23.377  14.301  0.00  0.00    +0.005 A 
ATOM     18  C   UNL     1      20.623  23.654  15.707  0.00  0.00    -0.033 A 
ATOM     28  C   UNL     1      20.565  25.023  16.191  0.00  0.00    +0.005 A 
ATOM     29  C   UNL     1      20.233  26.094  15.331  0.00  0.00    +0.013 A 
BRANCH  18  19
ATOM     19  C   UNL     1      20.971  22.549  16.722  0.00  0.00    +0.119 C 
BRANCH  19  20
ATOM     20  N   UNL     1      21.527  22.981  18.039  0.00  0.00    -0.302 NA
ATOM     21  C   UNL     1      22.518  21.962  18.607  0.00  0.00    +0.066 C 
ATOM     22  C   UNL     1      23.106  22.440  19.974  0.00  0.00    -0.064 C 
ATOM     23  N   UNL     1      21.962  22.691  20.959  0.00  0.00    +0.379 N 
ATOM     24  C   UNL     1      22.515  23.085  22.263  0.00  0.00    -0.096 C 
ATOM     25  H   UNL     1      21.420  21.727  21.099  0.00  0.00    -0.082 HD
ATOM     26  C   UNL     1      20.971  23.702  20.401  0.00  0.00    -0.064 C 
ATOM     27  C   UNL     1      20.414  23.230  19.028  0.00  0.00    +0.066 C 
ENDBRANCH  19  20
ENDBRANCH  18  19
ENDBRANCH  14  15
ENDBRANCH  12  13
TORSDOF 6
ENDMDL
MODEL 4
REMARK VINA RESULT:      -8.9     12.752     18.680
REMARK  Name = C:\Users\Docking\Desktop\test protocol\1iep_ligandH.pdb
REMARK  8 active torsions:
REMARK  status: ('A' for Active; 'I' for Inactive)
REMARK    1  A    between atoms: _5  and  _11
REMARK    2  A    between atoms: _19  and  _21
REMARK    3  A    between atoms: _22  and  _66
REMARK    4  A    between atoms: _27  and  _30
REMARK    5  A    between atoms: _32  and  _33
REMARK    6  A    between atoms: _38  and  _43
REMARK    7  A    between atoms: _43  and  _46
REMARK    8  A    between atoms: _53  and  _55
REMARK                            x       y       z     vdW  Elec       q    Type
REMARK                         _______ _______ _______ _____ _____    ______ ____
ROOT
ATOM     10  C   UNL     1      16.694  34.253  15.006  0.00  0.00    +0.038 A 
ATOM     11  C   UNL     1      16.596  35.647  15.251  0.00  0.00    +0.047 A 
ATOM     12  C   UNL     1      16.161  36.155  16.542  0.00  0.00    +0.035 A 
ATOM     32  C   UNL     1      15.834  35.216  17.563  0.00  0.00    +0.024 A 
ATOM     33  C   UNL     1      15.926  33.796  17.331  0.00  0.00    +0.007 A 
ATOM     34  C   UNL     1      16.353  33.288  16.059  0.00  0.00    -0.029 A 
ATOM     35  C   UNL     1      16.427  31.756  15.864  0.00  0.00    +0.045 C 
ENDROOT
BRANCH  10   9
ATOM      4  C   UNL     1      15.829  32.549  10.604  0.00  0.00    +0.077 A 
ATOM      5  C   UNL     1      14.415  32.491  10.840  0.00  0.00    +0.048 A 
ATOM      6  C   UNL     1      13.951  32.902  12.110  0.00  0.00    +0.116 A 
ATOM      7  N   UNL     1      14.845  33.337  13.065  0.00  0.00    -0.223 NA
ATOM      8  C   UNL     1      16.202  33.379  12.805  0.00  0.00    +0.220 A 
ATOM      9  N   UNL     1      17.118  33.820  13.748  0.00  0.00    -0.283 N 
ATOM     36  H   UNL     1      18.111  33.829  13.520  0.00  0.00    +0.155 HD
ATOM     37  N   UNL     1      16.670  32.990  11.600  0.00  0.00    -0.214 NA
BRANCH   4   3
ATOM      1  C   UNL     1      17.557  30.467   7.779  0.00  0.00    +0.020 A 
ATOM      2  C   UNL     1      16.944  30.799   9.044  0.00  0.00    +0.013 A 
ATOM      3  C   UNL     1      16.471  32.152   9.311  0.00  0.00    +0.019 A 
ATOM     38  C   UNL     1      16.633  33.153   8.267  0.00  0.00    +0.120 A 
ATOM     39  N   UNL     1      17.229  32.804   7.059  0.00  0.00    -0.263 NA
ATOM     40  C   UNL     1      17.690  31.507   6.792  0.00  0.00    +0.111 A 
ENDBRANCH   4   3
ENDBRANCH  10   9
BRANCH  12  13
ATOM     13  N   UNL     1      16.035  37.559  16.847  0.00  0.00    -0.281 N 
ATOM     14  C   UNL     1      17.035  38.442  17.220  0.00  0.00    +0.248 C 
ATOM     30  O   UNL     1      18.161  38.109  17.558  0.00  0.00    -0.270 OA
ATOM     31  H   UNL     1      15.095  37.949  16.779  0.00  0.00    +0.155 HD
BRANCH  14  15
ATOM     15  C   UNL     1      16.736  39.907  17.234  0.00  0.00    +0.037 A 
ATOM     16  C   UNL     1      15.480  40.421  17.784  0.00  0.00    +0.013 A 
ATOM     17  C   UNL     1      15.209  41.837  17.769  0.00  0.00    +0.005 A 
ATOM     18  C   UNL     1      16.200  42.749  17.203  0.00  0.00    -0.033 A 
ATOM     28  C   UNL     1      17.441  42.213  16.668  0.00  0.00    +0.005 A 
ATOM     29  C   UNL     1      17.708  40.825  16.680  0.00  0.00    +0.013 A 
BRANCH  18  19
ATOM     19  C   UNL     1      15.987  44.273  17.126  0.00  0.00    +0.119 C 
BRANCH  19  20
ATOM     20  N   UNL     1      15.370  44.815  15.879  0.00  0.00    -0.302 NA
ATOM     21  C   UNL     1      16.248  45.883  15.221  0.00  0.00    +0.066 C 
ATOM     22  C   UNL     1      15.598  46.423  13.906  0.00  0.00    -0.064 C 
ATOM     23  N   UNL     1      14.208  46.982  14.219  0.00  0.00    +0.379 N 
ATOM     24  C   UNL     1      13.618  47.543  12.995  0.00  0.00    -0.096 C 
ATOM     25  H   UNL     1      14.336  47.816  14.947  0.00  0.00    -0.082 HD
ATOM     26  C   UNL     1      13.330  45.927  14.876  0.00  0.00    -0.064 C 
ATOM     27  C   UNL     1      13.998  45.375  16.166  0.00  0.00    +0.066 C 
ENDBRANCH  19  20
ENDBRANCH  18  19
ENDBRANCH  14  15
ENDBRANCH  12  13
TORSDOF 6
ENDMDL
MODEL 5
REMARK VINA RESULT:      -8.9      7.136     10.861
REMARK  Name = C:\Users\Docking\Desktop\test protocol\1iep_ligandH.pdb
REMARK  8 active torsions:
REMARK  status: ('A' for Active; 'I' for Inactive)
REMARK    1  A    between atoms: _5  and  _11
REMARK    2  A    between atoms: _19  and  _21
REMARK    3  A    between atoms: _22  and  _66
REMARK    4  A    between atoms: _27  and  _30
REMARK    5  A    between atoms: _32  and  _33
REMARK    6  A    between atoms: _38  and  _43
REMARK    7  A    between atoms: _43  and  _46
REMARK    8  A    between atoms: _53  and  _55
REMARK                            x       y       z     vdW  Elec       q    Type
REMARK                         _______ _______ _______ _____ _____    ______ ____
ROOT
ATOM     10  C   UNL     1      17.967  30.929  13.158  0.00  0.00    +0.038 A 
ATOM     11  C   UNL     1      18.403  29.743  13.804  0.00  0.00    +0.047 A 
ATOM     12  C   UNL     1      18.190  28.436  13.201  0.00  0.00    +0.035 A 
ATOM     32  C   UNL     1      17.532  28.374  11.938  0.00  0.00    +0.024 A 
ATOM     33  C   UNL     1      17.081  29.569  11.269  0.00  0.00    +0.007 A 
ATOM     34  C   UNL     1      17.286  30.861  11.860  0.00  0.00    -0.029 A 
ATOM     35  C   UNL     1      16.777  32.107  11.100  0.00  0.00    +0.045 C 
ENDROOT
BRANCH  10   9
ATOM      4  C   UNL     1      16.800  34.364  16.300  0.00  0.00    +0.077 A 
ATOM      5  C   UNL     1      15.617  33.666  16.714  0.00  0.00    +0.048 A 
ATOM      6  C   UNL     1      15.341  32.430  16.089  0.00  0.00    +0.116 A 
ATOM      7  N   UNL     1      16.192  31.937  15.123  0.00  0.00    -0.223 NA
ATOM      8  C   UNL     1      17.324  32.637  14.746  0.00  0.00    +0.220 A 
ATOM      9  N   UNL     1      18.197  32.157  13.783  0.00  0.00    -0.283 N 
ATOM     36  H   UNL     1      19.017  32.706  13.527  0.00  0.00    +0.155 HD
ATOM     37  N   UNL     1      17.609  33.821  15.327  0.00  0.00    -0.214 NA
BRANCH   4   3
ATOM      1  C   UNL     1      16.915  38.151  17.275  0.00  0.00    +0.020 A 
ATOM      2  C   UNL     1      16.456  36.905  16.705  0.00  0.00    +0.013 A 
ATOM      3  C   UNL     1      17.229  35.681  16.870  0.00  0.00    +0.019 A 
ATOM     38  C   UNL     1      18.471  35.751  17.626  0.00  0.00    +0.120 A 
ATOM     39  N   UNL     1      18.888  36.965  18.163  0.00  0.00    -0.263 NA
ATOM     40  C   UNL     1      18.153  38.150  18.008  0.00  0.00    +0.111 A 
ENDBRANCH   4   3
ENDBRANCH  10   9
BRANCH  12  13
ATOM     13  N   UNL     1      18.603  27.198  13.813  0.00  0.00    -0.281 N 
ATOM     14  C   UNL     1      19.806  26.529  13.653  0.00  0.00    +0.248 C 
ATOM     30  O   UNL     1      20.630  26.786  12.789  0.00  0.00    -0.270 OA
ATOM     31  H   UNL     1      17.927  26.761  14.440  0.00  0.00    +0.155 HD
BRANCH  14  15
ATOM     15  C   UNL     1      20.133  25.401  14.578  0.00  0.00    +0.037 A 
ATOM     16  C   UNL     1      20.163  25.594  16.030  0.00  0.00    +0.013 A 
ATOM     17  C   UNL     1      20.499  24.494  16.899  0.00  0.00    +0.005 A 
ATOM     18  C   UNL     1      20.805  23.190  16.317  0.00  0.00    -0.033 A 
ATOM     28  C   UNL     1      20.763  23.025  14.874  0.00  0.00    +0.005 A 
ATOM     29  C   UNL     1      20.436  24.101  14.019  0.00  0.00    +0.013 A 
BRANCH  18  19
ATOM     19  C   UNL     1      21.194  21.966  17.167  0.00  0.00    +0.119 C 
BRANCH  19  20
ATOM     20  N   UNL     1      22.638  21.587  17.200  0.00  0.00    -0.302 NA
ATOM     21  C   UNL     1      22.950  20.428  16.249  0.00  0.00    +0.066 C 
ATOM     22  C   UNL     1      24.469  20.060  16.280  0.00  0.00    -0.064 C 
ATOM     23  N   UNL     1      24.878  19.710  17.712  0.00  0.00    +0.379 N 
ATOM     24  C   UNL     1      26.292  19.308  17.734  0.00  0.00    -0.096 C 
ATOM     25  H   UNL     1      24.271  18.832  18.031  0.00  0.00    -0.082 HD
ATOM     26  C   UNL     1      24.569  20.856  18.664  0.00  0.00    -0.064 C 
ATOM     27  C   UNL     1      23.062  21.234  18.604  0.00  0.00    +0.066 C 
ENDBRANCH  19  20
ENDBRANCH  18  19
ENDBRANCH  14  15
ENDBRANCH  12  13
TORSDOF 6
ENDMDL
