MODEL 1
REMARK VINA RESULT:      -8.1      0.000      0.000
REMARK  Name = C:\Users\Docking\Desktop\test protocol\1iep_ligandH.pdb
REMARK  8 active torsions:
REMARK  status: ('A' for Active; 'I' for Inactive)
REMARK    1  A    between atoms: _5  and  _11
REMARK    2  A    between atoms: _19  and  _21
REMARK    3  A    between atoms: _22  and  _66
REMARK    4  A    between atoms: _27  and  _30
REMARK    5  A    between atoms: _32  and  _33
REMARK    6  A    between atoms: _38  and  _43
REMARK    7  A    between atoms: _43  and  _46
REMARK    8  A    between atoms: _53  and  _55
REMARK                            x       y       z     vdW  Elec       q    Type
REMARK                         _______ _______ _______ _____ _____    ______ ____
ROOT
ATOM     10  C   UNL     1      16.998  -0.470  15.602  0.00  0.00    +0.038 A 
ATOM     11  C   UNL     1      16.627   0.602  16.454  0.00  0.00    +0.047 A 
ATOM     12  C   UNL     1      17.383   0.900  17.661  0.00  0.00    +0.035 A 
ATOM     32  C   UNL     1      18.514   0.088  17.967  0.00  0.00    +0.024 A 
ATOM     33  C   UNL     1      18.904  -1.005  17.113  0.00  0.00    +0.007 A 
ATOM     34  C   UNL     1      18.161  -1.306  15.923  0.00  0.00    -0.029 A 
ATOM     35  C   UNL     1      18.621  -2.495  15.047  0.00  0.00    +0.045 C 
ENDROOT
BRANCH  10   9
ATOM      4  C   UNL     1      13.582  -2.850  13.215  0.00  0.00    +0.077 A 
ATOM      5  C   UNL     1      13.309  -3.702  14.337  0.00  0.00    +0.048 A 
ATOM      6  C   UNL     1      14.075  -3.500  15.507  0.00  0.00    +0.116 A 
ATOM      7  N   UNL     1      15.039  -2.516  15.541  0.00  0.00    -0.223 NA
ATOM      8  C   UNL     1      15.278  -1.712  14.441  0.00  0.00    +0.220 A 
ATOM      9  N   UNL     1      16.237  -0.711  14.456  0.00  0.00    -0.283 N 
ATOM     36  H   UNL     1      16.387  -0.145  13.622  0.00  0.00    +0.155 HD
ATOM     37  N   UNL     1      14.560  -1.887  13.312  0.00  0.00    -0.214 NA
BRANCH   4   3
ATOM      1  C   UNL     1      10.749  -2.947  10.520  0.00  0.00    +0.020 A 
ATOM      2  C   UNL     1      11.402  -2.857  11.805  0.00  0.00    +0.013 A 
ATOM      3  C   UNL     1      12.854  -2.939  11.910  0.00  0.00    +0.019 A 
ATOM     38  C   UNL     1      13.621  -3.113  10.686  0.00  0.00    +0.120 A 
ATOM     39  N   UNL     1      12.964  -3.199   9.462  0.00  0.00    -0.263 NA
ATOM     40  C   UNL     1      11.567  -3.123   9.349  0.00  0.00    +0.111 A 
ENDBRANCH   4   3
ENDBRANCH  10   9
BRANCH  12  13
ATOM     13  N   UNL     1      17.049   1.970  18.568  0.00  0.00    -0.281 N 
ATOM     14  C   UNL     1      17.098   3.334  18.331  0.00  0.00    +0.248 C 
ATOM     30  O   UNL     1      17.644   3.849  17.367  0.00  0.00    -0.270 OA
ATOM     31  H   UNL     1      16.739   1.687  19.498  0.00  0.00    +0.155 HD
BRANCH  14  15
ATOM     15  C   UNL     1      16.462   4.261  19.316  0.00  0.00    +0.037 A 
ATOM     16  C   UNL     1      15.900   3.764  20.574  0.00  0.00    +0.013 A 
ATOM     17  C   UNL     1      15.276   4.677  21.499  0.00  0.00    +0.005 A 
ATOM     18  C   UNL     1      15.213   6.099  21.168  0.00  0.00    -0.033 A 
ATOM     28  C   UNL     1      15.783   6.566  19.915  0.00  0.00    +0.005 A 
ATOM     29  C   UNL     1      16.394   5.673  19.006  0.00  0.00    +0.013 A 
BRANCH  18  19
ATOM     19  C   UNL     1      14.547   7.142  22.085  0.00  0.00    +0.119 C 
BRANCH  19  20
ATOM     20  N   UNL     1      13.056   7.131  22.164  0.00  0.00    -0.302 NA
ATOM     21  C   UNL     1      12.547   6.234  23.297  0.00  0.00    +0.066 C 
ATOM     22  C   UNL     1      10.986   6.252  23.379  0.00  0.00    -0.064 C 
ATOM     23  N   UNL     1      10.402   5.811  22.036  0.00  0.00    +0.379 N 
ATOM     24  C   UNL     1       8.935   5.771  22.128  0.00  0.00    -0.096 C 
ATOM     25  H   UNL     1      10.757   4.773  21.837  0.00  0.00    -0.082 HD
ATOM     26  C   UNL     1      10.905   6.696  20.904  0.00  0.00    -0.064 C 
ATOM     27  C   UNL     1      12.458   6.694  20.849  0.00  0.00    +0.066 C 
ENDBRANCH  19  20
ENDBRANCH  18  19
ENDBRANCH  14  15
ENDBRANCH  12  13
TORSDOF 6
ENDMDL
MODEL 2
REMARK VINA RESULT:      -8.1      1.328      1.906
REMARK  Name = C:\Users\Docking\Desktop\test protocol\1iep_ligandH.pdb
REMARK  8 active torsions:
REMARK  status: ('A' for Active; 'I' for Inactive)
REMARK    1  A    between atoms: _5  and  _11
REMARK    2  A    between atoms: _19  and  _21
REMARK    3  A    between atoms: _22  and  _66
REMARK    4  A    between atoms: _27  and  _30
REMARK    5  A    between atoms: _32  and  _33
REMARK    6  A    between atoms: _38  and  _43
REMARK    7  A    between atoms: _43  and  _46
REMARK    8  A    between atoms: _53  and  _55
REMARK                            x       y       z     vdW  Elec       q    Type
REMARK                         _______ _______ _______ _____ _____    ______ ____
ROOT
ATOM     10  C   UNL     1      16.930  -0.585  15.506  0.00  0.00    +0.038 A 
ATOM     11  C   UNL     1      16.656   0.468  16.416  0.00  0.00    +0.047 A 
ATOM     12  C   UNL     1      17.495   0.691  17.583  0.00  0.00    +0.035 A 
ATOM     32  C   UNL     1      18.607  -0.176  17.791  0.00  0.00    +0.024 A 
ATOM     33  C   UNL     1      18.899  -1.252  16.877  0.00  0.00    +0.007 A 
ATOM     34  C   UNL     1      18.073  -1.479  15.726  0.00  0.00    -0.029 A 
ATOM     35  C   UNL     1      18.430  -2.652  14.783  0.00  0.00    +0.045 C 
ENDROOT
BRANCH  10   9
ATOM      4  C   UNL     1      13.304  -2.763  13.237  0.00  0.00    +0.077 A 
ATOM      5  C   UNL     1      13.078  -3.659  14.335  0.00  0.00    +0.048 A 
ATOM      6  C   UNL     1      13.921  -3.532  15.461  0.00  0.00    +0.116 A 
ATOM      7  N   UNL     1      14.913  -2.575  15.478  0.00  0.00    -0.223 NA
ATOM      8  C   UNL     1      15.105  -1.728  14.403  0.00  0.00    +0.220 A 
ATOM      9  N   UNL     1      16.091  -0.753  14.401  0.00  0.00    -0.283 N 
ATOM     36  H   UNL     1      16.206  -0.153  13.585  0.00  0.00    +0.155 HD
ATOM     37  N   UNL     1      14.314  -1.831  13.314  0.00  0.00    -0.214 NA
BRANCH   4   3
ATOM      1  C   UNL     1      12.192  -3.231   9.516  0.00  0.00    +0.020 A 
ATOM      2  C   UNL     1      13.017  -3.244  10.703  0.00  0.00    +0.013 A 
ATOM      3  C   UNL     1      12.493  -2.772  11.978  0.00  0.00    +0.019 A 
ATOM     38  C   UNL     1      11.120  -2.291  12.020  0.00  0.00    +0.120 A 
ATOM     39  N   UNL     1      10.351  -2.290  10.861  0.00  0.00    -0.263 NA
ATOM     40  C   UNL     1      10.844  -2.740   9.628  0.00  0.00    +0.111 A 
ENDBRANCH   4   3
ENDBRANCH  10   9
BRANCH  12  13
ATOM     13  N   UNL     1      17.261   1.739  18.545  0.00  0.00    -0.281 N 
ATOM     14  C   UNL     1      17.430   3.103  18.377  0.00  0.00    +0.248 C 
ATOM     30  O   UNL     1      18.015   3.616  17.434  0.00  0.00    -0.270 OA
ATOM     31  H   UNL     1      16.932   1.438  19.463  0.00  0.00    +0.155 HD
BRANCH  14  15
ATOM     15  C   UNL     1      16.883   4.032  19.412  0.00  0.00    +0.037 A 
ATOM     16  C   UNL     1      17.765   4.904  20.193  0.00  0.00    +0.013 A 
ATOM     17  C   UNL     1      17.212   5.778  21.198  0.00  0.00    +0.005 A 
ATOM     18  C   UNL     1      15.769   5.785  21.425  0.00  0.00    -0.033 A 
ATOM     28  C   UNL     1      14.918   4.914  20.633  0.00  0.00    +0.005 A 
ATOM     29  C   UNL     1      15.455   4.055  19.648  0.00  0.00    +0.013 A 
BRANCH  18  19
ATOM     19  C   UNL     1      15.095   6.670  22.491  0.00  0.00    +0.119 C 
BRANCH  19  20
ATOM     20  N   UNL     1      13.983   6.063  23.280  0.00  0.00    -0.302 NA
ATOM     21  C   UNL     1      12.689   6.875  23.168  0.00  0.00    +0.066 C 
ATOM     22  C   UNL     1      11.529   6.213  23.981  0.00  0.00    -0.064 C 
ATOM     23  N   UNL     1      11.953   6.069  25.444  0.00  0.00    +0.379 N 
ATOM     24  C   UNL     1      10.844   5.500  26.222  0.00  0.00    -0.096 C 
ATOM     25  H   UNL     1      12.155   7.091  25.839  0.00  0.00    -0.082 HD
ATOM     26  C   UNL     1      13.240   5.265  25.564  0.00  0.00    -0.064 C 
ATOM     27  C   UNL     1      14.378   5.915  24.728  0.00  0.00    +0.066 C 
ENDBRANCH  19  20
ENDBRANCH  18  19
ENDBRANCH  14  15
ENDBRANCH  12  13
TORSDOF 6
ENDMDL
MODEL 3
REMARK VINA RESULT:      -8.0      7.238     12.729
REMARK  Name = C:\Users\Docking\Desktop\test protocol\1iep_ligandH.pdb
REMARK  8 active torsions:
REMARK  status: ('A' for Active; 'I' for Inactive)
REMARK    1  A    between atoms: _5  and  _11
REMARK    2  A    between atoms: _19  and  _21
REMARK    3  A    between atoms: _22  and  _66
REMARK    4  A    between atoms: _27  and  _30
REMARK    5  A    between atoms: _32  and  _33
REMARK    6  A    between atoms: _38  and  _43
REMARK    7  A    between atoms: _43  and  _46
REMARK    8  A    between atoms: _53  and  _55
REMARK                            x       y       z     vdW  Elec       q    Type
REMARK                         _______ _______ _______ _____ _____    ______ ____
ROOT
ATOM     10  C   UNL     1      16.312  -3.272  13.462  0.00  0.00    +0.038 A 
ATOM     11  C   UNL     1      17.206  -3.256  12.361  0.00  0.00    +0.047 A 
ATOM     12  C   UNL     1      18.495  -2.587  12.448  0.00  0.00    +0.035 A 
ATOM     32  C   UNL     1      18.842  -1.947  13.674  0.00  0.00    +0.024 A 
ATOM     33  C   UNL     1      17.945  -1.953  14.802  0.00  0.00    +0.007 A 
ATOM     34  C   UNL     1      16.671  -2.608  14.721  0.00  0.00    -0.029 A 
ATOM     35  C   UNL     1      15.746  -2.577  15.960  0.00  0.00    +0.045 C 
ENDROOT
BRANCH  10   9
ATOM      4  C   UNL     1      11.590  -3.285  12.597  0.00  0.00    +0.077 A 
ATOM      5  C   UNL     1      11.556  -1.860  12.435  0.00  0.00    +0.048 A 
ATOM      6  C   UNL     1      12.774  -1.160  12.589  0.00  0.00    +0.116 A 
ATOM      7  N   UNL     1      13.933  -1.844  12.883  0.00  0.00    -0.223 NA
ATOM      8  C   UNL     1      13.931  -3.219  13.035  0.00  0.00    +0.220 A 
ATOM      9  N   UNL     1      15.087  -3.928  13.323  0.00  0.00    -0.283 N 
ATOM     36  H   UNL     1      15.042  -4.941  13.435  0.00  0.00    +0.155 HD
ATOM     37  N   UNL     1      12.781  -3.910  12.894  0.00  0.00    -0.214 NA
BRANCH   4   3
ATOM      1  C   UNL     1       9.158  -6.342  12.803  0.00  0.00    +0.020 A 
ATOM      2  C   UNL     1      10.346  -5.535  12.959  0.00  0.00    +0.013 A 
ATOM      3  C   UNL     1      10.386  -4.165  12.462  0.00  0.00    +0.019 A 
ATOM     38  C   UNL     1       9.198  -3.638  11.808  0.00  0.00    +0.120 A 
ATOM     39  N   UNL     1       8.069  -4.439  11.671  0.00  0.00    -0.263 NA
ATOM     40  C   UNL     1       8.019  -5.759  12.143  0.00  0.00    +0.111 A 
ENDBRANCH   4   3
ENDBRANCH  10   9
BRANCH  12  13
ATOM     13  N   UNL     1      19.440  -2.531  11.361  0.00  0.00    -0.281 N 
ATOM     14  C   UNL     1      19.444  -1.666  10.279  0.00  0.00    +0.248 C 
ATOM     30  O   UNL     1      18.508  -0.944   9.969  0.00  0.00    -0.270 OA
ATOM     31  H   UNL     1      20.199  -3.212  11.393  0.00  0.00    +0.155 HD
BRANCH  14  15
ATOM     15  C   UNL     1      20.656  -1.604   9.408  0.00  0.00    +0.037 A 
ATOM     16  C   UNL     1      21.277  -0.324   9.058  0.00  0.00    +0.013 A 
ATOM     17  C   UNL     1      22.436  -0.292   8.201  0.00  0.00    +0.005 A 
ATOM     18  C   UNL     1      22.983  -1.546   7.690  0.00  0.00    -0.033 A 
ATOM     28  C   UNL     1      22.352  -2.802   8.058  0.00  0.00    +0.005 A 
ATOM     29  C   UNL     1      21.215  -2.838   8.896  0.00  0.00    +0.013 A 
BRANCH  18  19
ATOM     19  C   UNL     1      24.205  -1.605   6.754  0.00  0.00    +0.119 C 
BRANCH  19  20
ATOM     20  N   UNL     1      25.514  -1.150   7.308  0.00  0.00    -0.302 NA
ATOM     21  C   UNL     1      26.676  -1.450   6.357  0.00  0.00    +0.066 C 
ATOM     22  C   UNL     1      28.036  -0.947   6.943  0.00  0.00    -0.064 C 
ATOM     23  N   UNL     1      28.271  -1.597   8.308  0.00  0.00    +0.379 N 
ATOM     24  C   UNL     1      29.576  -1.171   8.836  0.00  0.00    -0.096 C 
ATOM     25  H   UNL     1      28.312  -2.700   8.155  0.00  0.00    -0.082 HD
ATOM     26  C   UNL     1      27.119  -1.305   9.259  0.00  0.00    -0.064 C 
ATOM     27  C   UNL     1      25.769  -1.783   8.654  0.00  0.00    +0.066 C 
ENDBRANCH  19  20
ENDBRANCH  18  19
ENDBRANCH  14  15
ENDBRANCH  12  13
TORSDOF 6
ENDMDL
MODEL 4
REMARK VINA RESULT:      -7.8      8.185     15.351
REMARK  Name = C:\Users\Docking\Desktop\test protocol\1iep_ligandH.pdb
REMARK  8 active torsions:
REMARK  status: ('A' for Active; 'I' for Inactive)
REMARK    1  A    between atoms: _5  and  _11
REMARK    2  A    between atoms: _19  and  _21
REMARK    3  A    between atoms: _22  and  _66
REMARK    4  A    between atoms: _27  and  _30
REMARK    5  A    between atoms: _32  and  _33
REMARK    6  A    between atoms: _38  and  _43
REMARK    7  A    between atoms: _43  and  _46
REMARK    8  A    between atoms: _53  and  _55
REMARK                            x       y       z     vdW  Elec       q    Type
REMARK                         _______ _______ _______ _____ _____    ______ ____
ROOT
ATOM     10  C   UNL     1      17.670  -2.156  12.463  0.00  0.00    +0.038 A 
ATOM     11  C   UNL     1      18.802  -2.231  11.612  0.00  0.00    +0.047 A 
ATOM     12  C   UNL     1      19.087  -3.432  10.843  0.00  0.00    +0.035 A 
ATOM     32  C   UNL     1      18.196  -4.538  10.962  0.00  0.00    +0.024 A 
ATOM     33  C   UNL     1      17.042  -4.480  11.824  0.00  0.00    +0.007 A 
ATOM     34  C   UNL     1      16.756  -3.299  12.587  0.00  0.00    -0.029 A 
ATOM     35  C   UNL     1      15.508  -3.295  13.499  0.00  0.00    +0.045 C 
ENDROOT
BRANCH  10   9
ATOM      4  C   UNL     1      18.010   0.514  16.437  0.00  0.00    +0.077 A 
ATOM      5  C   UNL     1      18.670  -0.537  17.158  0.00  0.00    +0.048 A 
ATOM      6  C   UNL     1      18.896  -1.751  16.471  0.00  0.00    +0.116 A 
ATOM      7  N   UNL     1      18.490  -1.893  15.162  0.00  0.00    -0.223 NA
ATOM      8  C   UNL     1      17.854  -0.860  14.497  0.00  0.00    +0.220 A 
ATOM      9  N   UNL     1      17.444  -0.978  13.179  0.00  0.00    -0.283 N 
ATOM     36  H   UNL     1      16.971  -0.196  12.726  0.00  0.00    +0.155 HD
ATOM     37  N   UNL     1      17.624   0.309  15.131  0.00  0.00    -0.214 NA
BRANCH   4   3
ATOM      1  C   UNL     1      16.844   3.346  18.871  0.00  0.00    +0.020 A 
ATOM      2  C   UNL     1      17.121   2.027  18.350  0.00  0.00    +0.013 A 
ATOM      3  C   UNL     1      17.702   1.856  17.024  0.00  0.00    +0.019 A 
ATOM     38  C   UNL     1      17.993   3.050  16.245  0.00  0.00    +0.120 A 
ATOM     39  N   UNL     1      17.714   4.307  16.772  0.00  0.00    -0.263 NA
ATOM     40  C   UNL     1      17.154   4.484  18.045  0.00  0.00    +0.111 A 
ENDBRANCH   4   3
ENDBRANCH  10   9
BRANCH  12  13
ATOM     13  N   UNL     1      20.226  -3.569   9.968  0.00  0.00    -0.281 N 
ATOM     14  C   UNL     1      20.356  -3.120   8.664  0.00  0.00    +0.248 C 
ATOM     30  O   UNL     1      19.430  -2.719   7.975  0.00  0.00    -0.270 OA
ATOM     31  H   UNL     1      21.033  -4.055  10.358  0.00  0.00    +0.155 HD
BRANCH  14  15
ATOM     15  C   UNL     1      21.709  -3.134   8.028  0.00  0.00    +0.037 A 
ATOM     16  C   UNL     1      22.839  -2.421   8.630  0.00  0.00    +0.013 A 
ATOM     17  C   UNL     1      24.129  -2.436   7.987  0.00  0.00    +0.005 A 
ATOM     18  C   UNL     1      24.296  -3.168   6.734  0.00  0.00    -0.033 A 
ATOM     28  C   UNL     1      23.160  -3.871   6.162  0.00  0.00    +0.005 A 
ATOM     29  C   UNL     1      21.893  -3.858   6.789  0.00  0.00    +0.013 A 
BRANCH  18  19
ATOM     19  C   UNL     1      25.631  -3.221   5.968  0.00  0.00    +0.119 C 
BRANCH  19  20
ATOM     20  N   UNL     1      25.592  -3.718   4.560  0.00  0.00    -0.302 NA
ATOM     21  C   UNL     1      26.623  -4.823   4.313  0.00  0.00    +0.066 C 
ATOM     22  C   UNL     1      26.553  -5.346   2.841  0.00  0.00    -0.064 C 
ATOM     23  N   UNL     1      26.768  -4.179   1.876  0.00  0.00    +0.379 N 
ATOM     24  C   UNL     1      26.761  -4.678   0.494  0.00  0.00    -0.096 C 
ATOM     25  H   UNL     1      27.780  -3.756   2.078  0.00  0.00    -0.082 HD
ATOM     26  C   UNL     1      25.749  -3.075   2.118  0.00  0.00    -0.064 C 
ATOM     27  C   UNL     1      25.806  -2.582   3.591  0.00  0.00    +0.066 C 
ENDBRANCH  19  20
ENDBRANCH  18  19
ENDBRANCH  14  15
ENDBRANCH  12  13
TORSDOF 6
ENDMDL
MODEL 5
REMARK VINA RESULT:      -7.8      1.877      2.665
REMARK  Name = C:\Users\Docking\Desktop\test protocol\1iep_ligandH.pdb
REMARK  8 active torsions:
REMARK  status: ('A' for Active; 'I' for Inactive)
REMARK    1  A    between atoms: _5  and  _11
REMARK    2  A    between atoms: _19  and  _21
REMARK    3  A    between atoms: _22  and  _66
REMARK    4  A    between atoms: _27  and  _30
REMARK    5  A    between atoms: _32  and  _33
REMARK    6  A    between atoms: _38  and  _43
REMARK    7  A    between atoms: _43  and  _46
REMARK    8  A    between atoms: _53  and  _55
REMARK                            x       y       z     vdW  Elec       q    Type
REMARK                         _______ _______ _______ _____ _____    ______ ____
ROOT
ATOM     10  C   UNL     1      16.926  -0.499  15.591  0.00  0.00    +0.038 A 
ATOM     11  C   UNL     1      16.630   0.570  16.474  0.00  0.00    +0.047 A 
ATOM     12  C   UNL     1      17.442   0.817  17.655  0.00  0.00    +0.035 A 
ATOM     32  C   UNL     1      18.551  -0.043  17.905  0.00  0.00    +0.024 A 
ATOM     33  C   UNL     1      18.865  -1.136  17.019  0.00  0.00    +0.007 A 
ATOM     34  C   UNL     1      18.066  -1.386  15.853  0.00  0.00    -0.029 A 
ATOM     35  C   UNL     1      18.446  -2.576  14.941  0.00  0.00    +0.045 C 
ENDROOT
BRANCH  10   9
ATOM      4  C   UNL     1      13.397  -2.769  13.261  0.00  0.00    +0.077 A 
ATOM      5  C   UNL     1      13.171  -3.667  14.357  0.00  0.00    +0.048 A 
ATOM      6  C   UNL     1      13.989  -3.516  15.499  0.00  0.00    +0.116 A 
ATOM      7  N   UNL     1      14.958  -2.536  15.532  0.00  0.00    -0.223 NA
ATOM      8  C   UNL     1      15.151  -1.688  14.457  0.00  0.00    +0.220 A 
ATOM      9  N   UNL     1      16.114  -0.690  14.471  0.00  0.00    -0.283 N 
ATOM     36  H   UNL     1      16.229  -0.090  13.655  0.00  0.00    +0.155 HD
ATOM     37  N   UNL     1      14.383  -1.812  13.354  0.00  0.00    -0.214 NA
BRANCH   4   3
ATOM      1  C   UNL     1      12.382  -3.227   9.511  0.00  0.00    +0.020 A 
ATOM      2  C   UNL     1      13.184  -3.214  10.713  0.00  0.00    +0.013 A 
ATOM      3  C   UNL     1      12.611  -2.800  11.987  0.00  0.00    +0.019 A 
ATOM     38  C   UNL     1      11.211  -2.403  12.012  0.00  0.00    +0.120 A 
ATOM     39  N   UNL     1      10.464  -2.424  10.839  0.00  0.00    -0.263 NA
ATOM     40  C   UNL     1      11.005  -2.819   9.606  0.00  0.00    +0.111 A 
ENDBRANCH   4   3
ENDBRANCH  10   9
BRANCH  12  13
ATOM     13  N   UNL     1      17.185   1.883  18.592  0.00  0.00    -0.281 N 
ATOM     14  C   UNL     1      17.376   3.243  18.409  0.00  0.00    +0.248 C 
ATOM     30  O   UNL     1      18.001   3.734  17.481  0.00  0.00    -0.270 OA
ATOM     31  H   UNL     1      16.818   1.600  19.501  0.00  0.00    +0.155 HD
BRANCH  14  15
ATOM     15  C   UNL     1      16.801   4.194  19.409  0.00  0.00    +0.037 A 
ATOM     16  C   UNL     1      15.427   4.046  19.895  0.00  0.00    +0.013 A 
ATOM     17  C   UNL     1      14.892   4.988  20.846  0.00  0.00    +0.005 A 
ATOM     18  C   UNL     1      15.733   6.084  21.320  0.00  0.00    -0.033 A 
ATOM     28  C   UNL     1      17.094   6.204  20.825  0.00  0.00    +0.005 A 
ATOM     29  C   UNL     1      17.622   5.284  19.891  0.00  0.00    +0.013 A 
BRANCH  18  19
ATOM     19  C   UNL     1      15.238   7.147  22.318  0.00  0.00    +0.119 C 
BRANCH  19  20
ATOM     20  N   UNL     1      15.420   6.857  23.772  0.00  0.00    -0.302 NA
ATOM     21  C   UNL     1      16.457   5.756  24.013  0.00  0.00    +0.066 C 
ATOM     22  C   UNL     1      16.651   5.481  25.539  0.00  0.00    -0.064 C 
ATOM     23  N   UNL     1      15.306   5.102  26.161  0.00  0.00    +0.379 N 
ATOM     24  C   UNL     1      15.495   4.787  27.585  0.00  0.00    -0.096 C 
ATOM     25  H   UNL     1      14.947   4.177  25.654  0.00  0.00    -0.082 HD
ATOM     26  C   UNL     1      14.268   6.190  25.925  0.00  0.00    -0.064 C 
ATOM     27  C   UNL     1      14.104   6.476  24.406  0.00  0.00    +0.066 C 
ENDBRANCH  19  20
ENDBRANCH  18  19
ENDBRANCH  14  15
ENDBRANCH  12  13
TORSDOF 6
ENDMDL
