MODEL 1
REMARK VINA RESULT:      -8.1      0.000      0.000
REMARK  Name = C:\Users\Docking\Desktop\test protocol\1iep_ligandH.pdb
REMARK  8 active torsions:
REMARK  status: ('A' for Active; 'I' for Inactive)
REMARK    1  A    between atoms: _5  and  _11
REMARK    2  A    between atoms: _19  and  _21
REMARK    3  A    between atoms: _22  and  _66
REMARK    4  A    between atoms: _27  and  _30
REMARK    5  A    between atoms: _32  and  _33
REMARK    6  A    between atoms: _38  and  _43
REMARK    7  A    between atoms: _43  and  _46
REMARK    8  A    between atoms: _53  and  _55
REMARK                            x       y       z     vdW  Elec       q    Type
REMARK                         _______ _______ _______ _____ _____    ______ ____
ROOT
ATOM     10  C   UNL     1      25.466  -2.828   8.149  0.00  0.00    +0.038 A 
ATOM     11  C   UNL     1      24.378  -2.570   9.022  0.00  0.00    +0.047 A 
ATOM     12  C   UNL     1      23.057  -2.252   8.504  0.00  0.00    +0.035 A 
ATOM     32  C   UNL     1      22.878  -2.207   7.091  0.00  0.00    +0.024 A 
ATOM     33  C   UNL     1      23.972  -2.465   6.189  0.00  0.00    +0.007 A 
ATOM     34  C   UNL     1      25.279  -2.778   6.694  0.00  0.00    -0.029 A 
ATOM     35  C   UNL     1      26.417  -3.040   5.680  0.00  0.00    +0.045 C 
ENDROOT
BRANCH  10   9
ATOM      4  C   UNL     1      29.971  -1.656   9.318  0.00  0.00    +0.077 A 
ATOM      5  C   UNL     1      29.837  -0.342   8.759  0.00  0.00    +0.048 A 
ATOM      6  C   UNL     1      28.595  -0.009   8.173  0.00  0.00    +0.116 A 
ATOM      7  N   UNL     1      27.570  -0.930   8.154  0.00  0.00    -0.223 NA
ATOM      8  C   UNL     1      27.733  -2.190   8.701  0.00  0.00    +0.220 A 
ATOM      9  N   UNL     1      26.713  -3.129   8.700  0.00  0.00    -0.283 N 
ATOM     36  H   UNL     1      26.876  -4.050   9.107  0.00  0.00    +0.155 HD
ATOM     37  N   UNL     1      28.910  -2.532   9.265  0.00  0.00    -0.214 NA
BRANCH   4   3
ATOM      1  C   UNL     1      33.700  -2.622  10.000  0.00  0.00    +0.020 A 
ATOM      2  C   UNL     1      32.524  -2.128   9.322  0.00  0.00    +0.013 A 
ATOM      3  C   UNL     1      31.221  -2.155   9.974  0.00  0.00    +0.019 A 
ATOM     38  C   UNL     1      31.142  -2.691  11.325  0.00  0.00    +0.120 A 
ATOM     39  N   UNL     1      32.291  -3.160  11.953  0.00  0.00    -0.263 NA
ATOM     40  C   UNL     1      33.550  -3.141  11.334  0.00  0.00    +0.111 A 
ENDBRANCH   4   3
ENDBRANCH  10   9
BRANCH  12  13
ATOM     13  N   UNL     1      21.917  -1.973   9.342  0.00  0.00    -0.281 N 
ATOM     14  C   UNL     1      20.939  -2.855   9.772  0.00  0.00    +0.248 C 
ATOM     30  O   UNL     1      20.779  -3.980   9.323  0.00  0.00    -0.270 OA
ATOM     31  H   UNL     1      21.819  -1.007   9.657  0.00  0.00    +0.155 HD
BRANCH  14  15
ATOM     15  C   UNL     1      19.995  -2.420  10.845  0.00  0.00    +0.037 A 
ATOM     16  C   UNL     1      19.181  -3.391  11.581  0.00  0.00    +0.013 A 
ATOM     17  C   UNL     1      18.265  -2.942  12.600  0.00  0.00    +0.005 A 
ATOM     18  C   UNL     1      18.159  -1.514  12.889  0.00  0.00    -0.033 A 
ATOM     28  C   UNL     1      18.982  -0.573  12.147  0.00  0.00    +0.005 A 
ATOM     29  C   UNL     1      19.880  -1.009  11.147  0.00  0.00    +0.013 A 
BRANCH  18  19
ATOM     19  C   UNL     1      17.193  -0.944  13.945  0.00  0.00    +0.119 C 
BRANCH  19  20
ATOM     20  N   UNL     1      15.751  -1.311  13.821  0.00  0.00    -0.302 NA
ATOM     21  C   UNL     1      15.183  -0.950  12.445  0.00  0.00    +0.066 C 
ATOM     22  C   UNL     1      13.679  -1.361  12.325  0.00  0.00    -0.064 C 
ATOM     23  N   UNL     1      12.877  -0.683  13.437  0.00  0.00    +0.379 N 
ATOM     24  C   UNL     1      11.454  -1.022  13.292  0.00  0.00    -0.096 C 
ATOM     25  H   UNL     1      12.978   0.419  13.303  0.00  0.00    -0.082 HD
ATOM     26  C   UNL     1      13.437  -1.035  14.808  0.00  0.00    -0.064 C 
ATOM     27  C   UNL     1      14.940  -0.649  14.907  0.00  0.00    +0.066 C 
ENDBRANCH  19  20
ENDBRANCH  18  19
ENDBRANCH  14  15
ENDBRANCH  12  13
TORSDOF 6
ENDMDL
MODEL 2
REMARK VINA RESULT:      -8.0      2.659     14.555
REMARK  Name = C:\Users\Docking\Desktop\test protocol\1iep_ligandH.pdb
REMARK  8 active torsions:
REMARK  status: ('A' for Active; 'I' for Inactive)
REMARK    1  A    between atoms: _5  and  _11
REMARK    2  A    between atoms: _19  and  _21
REMARK    3  A    between atoms: _22  and  _66
REMARK    4  A    between atoms: _27  and  _30
REMARK    5  A    between atoms: _32  and  _33
REMARK    6  A    between atoms: _38  and  _43
REMARK    7  A    between atoms: _43  and  _46
REMARK    8  A    between atoms: _53  and  _55
REMARK                            x       y       z     vdW  Elec       q    Type
REMARK                         _______ _______ _______ _____ _____    ______ ____
ROOT
ATOM     10  C   UNL     1      16.135  -3.575  13.427  0.00  0.00    +0.038 A 
ATOM     11  C   UNL     1      17.028  -3.414  12.337  0.00  0.00    +0.047 A 
ATOM     12  C   UNL     1      18.375  -2.903  12.538  0.00  0.00    +0.035 A 
ATOM     32  C   UNL     1      18.781  -2.570  13.863  0.00  0.00    +0.024 A 
ATOM     33  C   UNL     1      17.885  -2.727  14.982  0.00  0.00    +0.007 A 
ATOM     34  C   UNL     1      16.554  -3.227  14.790  0.00  0.00    -0.029 A 
ATOM     35  C   UNL     1      15.635  -3.369  16.025  0.00  0.00    +0.045 C 
ENDROOT
BRANCH  10   9
ATOM      4  C   UNL     1      11.439  -2.961  12.647  0.00  0.00    +0.077 A 
ATOM      5  C   UNL     1      11.544  -1.536  12.776  0.00  0.00    +0.048 A 
ATOM      6  C   UNL     1      12.823  -1.001  13.050  0.00  0.00    +0.116 A 
ATOM      7  N   UNL     1      13.909  -1.839  13.183  0.00  0.00    -0.223 NA
ATOM      8  C   UNL     1      13.773  -3.209  13.054  0.00  0.00    +0.220 A 
ATOM      9  N   UNL     1      14.853  -4.070  13.176  0.00  0.00    -0.283 N 
ATOM     36  H   UNL     1      14.710  -5.075  13.082  0.00  0.00    +0.155 HD
ATOM     37  N   UNL     1      12.562  -3.744  12.794  0.00  0.00    -0.214 NA
BRANCH   4   3
ATOM      1  C   UNL     1       7.671  -3.722  11.925  0.00  0.00    +0.020 A 
ATOM      2  C   UNL     1       8.881  -2.985  12.208  0.00  0.00    +0.013 A 
ATOM      3  C   UNL     1      10.156  -3.675  12.355  0.00  0.00    +0.019 A 
ATOM     38  C   UNL     1      10.173  -5.123  12.209  0.00  0.00    +0.120 A 
ATOM     39  N   UNL     1       8.991  -5.806  11.938  0.00  0.00    -0.263 NA
ATOM     40  C   UNL     1       7.758  -5.153  11.796  0.00  0.00    +0.111 A 
ENDBRANCH   4   3
ENDBRANCH  10   9
BRANCH  12  13
ATOM     13  N   UNL     1      19.324  -2.710  11.469  0.00  0.00    -0.281 N 
ATOM     14  C   UNL     1      19.747  -1.515  10.912  0.00  0.00    +0.248 C 
ATOM     30  O   UNL     1      19.211  -0.434  11.105  0.00  0.00    -0.270 OA
ATOM     31  H   UNL     1      19.733  -3.558  11.076  0.00  0.00    +0.155 HD
BRANCH  14  15
ATOM     15  C   UNL     1      20.928  -1.524   9.996  0.00  0.00    +0.037 A 
ATOM     16  C   UNL     1      21.351  -0.311   9.290  0.00  0.00    +0.013 A 
ATOM     17  C   UNL     1      22.484  -0.351   8.399  0.00  0.00    +0.005 A 
ATOM     18  C   UNL     1      23.202  -1.609   8.210  0.00  0.00    -0.033 A 
ATOM     28  C   UNL     1      22.764  -2.795   8.926  0.00  0.00    +0.005 A 
ATOM     29  C   UNL     1      21.654  -2.760   9.800  0.00  0.00    +0.013 A 
BRANCH  18  19
ATOM     19  C   UNL     1      24.408  -1.749   7.262  0.00  0.00    +0.119 C 
BRANCH  19  20
ATOM     20  N   UNL     1      25.735  -2.041   7.882  0.00  0.00    -0.302 NA
ATOM     21  C   UNL     1      26.107  -1.013   8.954  0.00  0.00    +0.066 C 
ATOM     22  C   UNL     1      27.487  -1.347   9.609  0.00  0.00    -0.064 C 
ATOM     23  N   UNL     1      28.561  -1.409   8.522  0.00  0.00    +0.379 N 
ATOM     24  C   UNL     1      29.870  -1.665   9.140  0.00  0.00    -0.096 C 
ATOM     25  H   UNL     1      28.608  -0.407   8.034  0.00  0.00    -0.082 HD
ATOM     26  C   UNL     1      28.198  -2.427   7.450  0.00  0.00    -0.064 C 
ATOM     27  C   UNL     1      26.812  -2.103   6.827  0.00  0.00    +0.066 C 
ENDBRANCH  19  20
ENDBRANCH  18  19
ENDBRANCH  14  15
ENDBRANCH  12  13
TORSDOF 6
ENDMDL
MODEL 3
REMARK VINA RESULT:      -8.0      3.220     14.122
REMARK  Name = C:\Users\Docking\Desktop\test protocol\1iep_ligandH.pdb
REMARK  8 active torsions:
REMARK  status: ('A' for Active; 'I' for Inactive)
REMARK    1  A    between atoms: _5  and  _11
REMARK    2  A    between atoms: _19  and  _21
REMARK    3  A    between atoms: _22  and  _66
REMARK    4  A    between atoms: _27  and  _30
REMARK    5  A    between atoms: _32  and  _33
REMARK    6  A    between atoms: _38  and  _43
REMARK    7  A    between atoms: _43  and  _46
REMARK    8  A    between atoms: _53  and  _55
REMARK                            x       y       z     vdW  Elec       q    Type
REMARK                         _______ _______ _______ _____ _____    ______ ____
ROOT
ATOM     10  C   UNL     1      25.474  -1.455   8.326  0.00  0.00    +0.038 A 
ATOM     11  C   UNL     1      26.692  -1.887   8.912  0.00  0.00    +0.047 A 
ATOM     12  C   UNL     1      27.956  -1.751   8.205  0.00  0.00    +0.035 A 
ATOM     32  C   UNL     1      27.944  -1.169   6.904  0.00  0.00    +0.024 A 
ATOM     33  C   UNL     1      26.715  -0.726   6.294  0.00  0.00    +0.007 A 
ATOM     34  C   UNL     1      25.465  -0.860   6.985  0.00  0.00    -0.029 A 
ATOM     35  C   UNL     1      24.177  -0.374   6.279  0.00  0.00    +0.045 C 
ENDROOT
BRANCH  10   9
ATOM      4  C   UNL     1      21.182  -3.482   9.037  0.00  0.00    +0.077 A 
ATOM      5  C   UNL     1      21.297  -4.282   7.852  0.00  0.00    +0.048 A 
ATOM      6  C   UNL     1      22.474  -4.137   7.083  0.00  0.00    +0.116 A 
ATOM      7  N   UNL     1      23.456  -3.255   7.480  0.00  0.00    -0.223 NA
ATOM      8  C   UNL     1      23.312  -2.497   8.628  0.00  0.00    +0.220 A 
ATOM      9  N   UNL     1      24.289  -1.610   9.050  0.00  0.00    -0.283 N 
ATOM     36  H   UNL     1      24.142  -1.063   9.898  0.00  0.00    +0.155 HD
ATOM     37  N   UNL     1      22.197  -2.616   9.378  0.00  0.00    -0.214 NA
BRANCH   4   3
ATOM      1  C   UNL     1      17.943  -4.638  10.901  0.00  0.00    +0.020 A 
ATOM      2  C   UNL     1      19.069  -4.646   9.995  0.00  0.00    +0.013 A 
ATOM      3  C   UNL     1      20.000  -3.525   9.955  0.00  0.00    +0.019 A 
ATOM     38  C   UNL     1      19.762  -2.404  10.851  0.00  0.00    +0.120 A 
ATOM     39  N   UNL     1      18.668  -2.423  11.711  0.00  0.00    -0.263 NA
ATOM     40  C   UNL     1      17.765  -3.495  11.758  0.00  0.00    +0.111 A 
ENDBRANCH   4   3
ENDBRANCH  10   9
BRANCH  12  13
ATOM     13  N   UNL     1      29.223  -2.179   8.746  0.00  0.00    -0.281 N 
ATOM     14  C   UNL     1      30.224  -1.393   9.293  0.00  0.00    +0.248 C 
ATOM     30  O   UNL     1      30.272  -0.175   9.205  0.00  0.00    -0.270 OA
ATOM     31  H   UNL     1      29.403  -3.182   8.723  0.00  0.00    +0.155 HD
BRANCH  14  15
ATOM     15  C   UNL     1      31.341  -2.057  10.032  0.00  0.00    +0.037 A 
ATOM     16  C   UNL     1      31.149  -2.583  11.385  0.00  0.00    +0.013 A 
ATOM     17  C   UNL     1      32.247  -3.204  12.082  0.00  0.00    +0.005 A 
ATOM     18  C   UNL     1      33.548  -3.303  11.425  0.00  0.00    -0.033 A 
ATOM     28  C   UNL     1      33.709  -2.777  10.080  0.00  0.00    +0.005 A 
ATOM     29  C   UNL     1      32.635  -2.167   9.394  0.00  0.00    +0.013 A 
BRANCH  18  19
ATOM     19  C   UNL     1      34.782  -3.930  12.102  0.00  0.00    +0.119 C 
BRANCH  19  20
ATOM     20  N   UNL     1      36.093  -3.245  11.902  0.00  0.00    -0.302 NA
ATOM     21  C   UNL     1      36.801  -3.719  10.630  0.00  0.00    +0.066 C 
ATOM     22  C   UNL     1      38.161  -2.975  10.425  0.00  0.00    -0.064 C 
ATOM     23  N   UNL     1      39.049  -3.194  11.652  0.00  0.00    +0.379 N 
ATOM     24  C   UNL     1      40.350  -2.544  11.438  0.00  0.00    -0.096 C 
ATOM     25  H   UNL     1      39.229  -4.290  11.748  0.00  0.00    -0.082 HD
ATOM     26  C   UNL     1      38.351  -2.728  12.922  0.00  0.00    -0.064 C 
ATOM     27  C   UNL     1      36.987  -3.451  13.100  0.00  0.00    +0.066 C 
ENDBRANCH  19  20
ENDBRANCH  18  19
ENDBRANCH  14  15
ENDBRANCH  12  13
TORSDOF 6
ENDMDL
MODEL 4
REMARK VINA RESULT:      -7.9      2.879     15.025
REMARK  Name = C:\Users\Docking\Desktop\test protocol\1iep_ligandH.pdb
REMARK  8 active torsions:
REMARK  status: ('A' for Active; 'I' for Inactive)
REMARK    1  A    between atoms: _5  and  _11
REMARK    2  A    between atoms: _19  and  _21
REMARK    3  A    between atoms: _22  and  _66
REMARK    4  A    between atoms: _27  and  _30
REMARK    5  A    between atoms: _32  and  _33
REMARK    6  A    between atoms: _38  and  _43
REMARK    7  A    between atoms: _43  and  _46
REMARK    8  A    between atoms: _53  and  _55
REMARK                            x       y       z     vdW  Elec       q    Type
REMARK                         _______ _______ _______ _____ _____    ______ ____
ROOT
ATOM     10  C   UNL     1      14.889  -3.758  13.824  0.00  0.00    +0.038 A 
ATOM     11  C   UNL     1      15.826  -3.580  12.775  0.00  0.00    +0.047 A 
ATOM     12  C   UNL     1      17.214  -3.245  13.054  0.00  0.00    +0.035 A 
ATOM     32  C   UNL     1      17.614  -3.102  14.415  0.00  0.00    +0.024 A 
ATOM     33  C   UNL     1      16.674  -3.278  15.494  0.00  0.00    +0.007 A 
ATOM     34  C   UNL     1      15.303  -3.606  15.224  0.00  0.00    -0.029 A 
ATOM     35  C   UNL     1      14.338  -3.777  16.421  0.00  0.00    +0.045 C 
ENDROOT
BRANCH  10   9
ATOM      4  C   UNL     1      10.384  -2.528  12.715  0.00  0.00    +0.077 A 
ATOM      5  C   UNL     1      10.678  -1.128  12.818  0.00  0.00    +0.048 A 
ATOM      6  C   UNL     1      11.999  -0.766  13.166  0.00  0.00    +0.116 A 
ATOM      7  N   UNL     1      12.947  -1.741  13.391  0.00  0.00    -0.223 NA
ATOM      8  C   UNL     1      12.630  -3.082  13.285  0.00  0.00    +0.220 A 
ATOM      9  N   UNL     1      13.569  -4.079  13.499  0.00  0.00    -0.283 N 
ATOM     36  H   UNL     1      13.294  -5.058  13.418  0.00  0.00    +0.155 HD
ATOM     37  N   UNL     1      11.375  -3.454  12.955  0.00  0.00    -0.214 NA
BRANCH   4   3
ATOM      1  C   UNL     1       6.518  -2.929  12.276  0.00  0.00    +0.020 A 
ATOM      2  C   UNL     1       7.794  -2.363  12.648  0.00  0.00    +0.013 A 
ATOM      3  C   UNL     1       9.035  -3.068  12.353  0.00  0.00    +0.019 A 
ATOM     38  C   UNL     1       8.949  -4.353  11.674  0.00  0.00    +0.120 A 
ATOM     39  N   UNL     1       7.706  -4.873  11.330  0.00  0.00    -0.263 NA
ATOM     40  C   UNL     1       6.505  -4.205  11.611  0.00  0.00    +0.111 A 
ENDBRANCH   4   3
ENDBRANCH  10   9
BRANCH  12  13
ATOM     13  N   UNL     1      18.209  -3.045  12.030  0.00  0.00    -0.281 N 
ATOM     14  C   UNL     1      18.954  -1.904  11.778  0.00  0.00    +0.248 C 
ATOM     30  O   UNL     1      18.724  -0.807  12.264  0.00  0.00    -0.270 OA
ATOM     31  H   UNL     1      18.384  -3.840  11.415  0.00  0.00    +0.155 HD
BRANCH  14  15
ATOM     15  C   UNL     1      20.114  -1.993  10.839  0.00  0.00    +0.037 A 
ATOM     16  C   UNL     1      20.601  -0.813  10.120  0.00  0.00    +0.013 A 
ATOM     17  C   UNL     1      21.710  -0.929   9.207  0.00  0.00    +0.005 A 
ATOM     18  C   UNL     1      22.342  -2.231   9.010  0.00  0.00    -0.033 A 
ATOM     28  C   UNL     1      21.842  -3.384   9.741  0.00  0.00    +0.005 A 
ATOM     29  C   UNL     1      20.754  -3.274  10.635  0.00  0.00    +0.013 A 
BRANCH  18  19
ATOM     19  C   UNL     1      23.518  -2.452   8.040  0.00  0.00    +0.119 C 
BRANCH  19  20
ATOM     20  N   UNL     1      24.761  -1.661   8.282  0.00  0.00    -0.302 NA
ATOM     21  C   UNL     1      25.537  -1.401   6.987  0.00  0.00    +0.066 C 
ATOM     22  C   UNL     1      26.823  -0.553   7.255  0.00  0.00    -0.064 C 
ATOM     23  N   UNL     1      27.702  -1.274   8.278  0.00  0.00    +0.379 N 
ATOM     24  C   UNL     1      28.939  -0.508   8.488  0.00  0.00    -0.096 C 
ATOM     25  H   UNL     1      27.985  -2.261   7.843  0.00  0.00    -0.082 HD
ATOM     26  C   UNL     1      26.938  -1.540   9.567  0.00  0.00    -0.064 C 
ATOM     27  C   UNL     1      25.647  -2.358   9.285  0.00  0.00    +0.066 C 
ENDBRANCH  19  20
ENDBRANCH  18  19
ENDBRANCH  14  15
ENDBRANCH  12  13
TORSDOF 6
ENDMDL
MODEL 5
REMARK VINA RESULT:      -7.8      8.943     13.913
REMARK  Name = C:\Users\Docking\Desktop\test protocol\1iep_ligandH.pdb
REMARK  8 active torsions:
REMARK  status: ('A' for Active; 'I' for Inactive)
REMARK    1  A    between atoms: _5  and  _11
REMARK    2  A    between atoms: _19  and  _21
REMARK    3  A    between atoms: _22  and  _66
REMARK    4  A    between atoms: _27  and  _30
REMARK    5  A    between atoms: _32  and  _33
REMARK    6  A    between atoms: _38  and  _43
REMARK    7  A    between atoms: _43  and  _46
REMARK    8  A    between atoms: _53  and  _55
REMARK                            x       y       z     vdW  Elec       q    Type
REMARK                         _______ _______ _______ _____ _____    ______ ____
ROOT
ATOM     10  C   UNL     1      16.319  -3.233  14.168  0.00  0.00    +0.038 A 
ATOM     11  C   UNL     1      16.473  -2.127  15.042  0.00  0.00    +0.047 A 
ATOM     12  C   UNL     1      17.724  -1.388  15.109  0.00  0.00    +0.035 A 
ATOM     32  C   UNL     1      18.798  -1.801  14.268  0.00  0.00    +0.024 A 
ATOM     33  C   UNL     1      18.660  -2.924  13.374  0.00  0.00    +0.007 A 
ATOM     34  C   UNL     1      17.429  -3.658  13.305  0.00  0.00    -0.029 A 
ATOM     35  C   UNL     1      17.339  -4.857  12.333  0.00  0.00    +0.045 C 
ENDROOT
BRANCH  10   9
ATOM      4  C   UNL     1      11.725  -3.619  12.834  0.00  0.00    +0.077 A 
ATOM      5  C   UNL     1      11.757  -2.359  12.148  0.00  0.00    +0.048 A 
ATOM      6  C   UNL     1      12.973  -1.640  12.168  0.00  0.00    +0.116 A 
ATOM      7  N   UNL     1      14.069  -2.152  12.828  0.00  0.00    -0.223 NA
ATOM      8  C   UNL     1      14.004  -3.369  13.481  0.00  0.00    +0.220 A 
ATOM      9  N   UNL     1      15.096  -3.906  14.144  0.00  0.00    -0.283 N 
ATOM     36  H   UNL     1      15.005  -4.803  14.620  0.00  0.00    +0.155 HD
ATOM     37  N   UNL     1      12.853  -4.074  13.478  0.00  0.00    -0.214 NA
BRANCH   4   3
ATOM      1  C   UNL     1       9.361  -6.680  13.421  0.00  0.00    +0.020 A 
ATOM      2  C   UNL     1      10.559  -5.874  13.377  0.00  0.00    +0.013 A 
ATOM      3  C   UNL     1      10.514  -4.497  12.900  0.00  0.00    +0.019 A 
ATOM     38  C   UNL     1       9.231  -3.962  12.471  0.00  0.00    +0.120 A 
ATOM     39  N   UNL     1       8.094  -4.763  12.523  0.00  0.00    -0.263 NA
ATOM     40  C   UNL     1       8.125  -6.089  12.979  0.00  0.00    +0.111 A 
ENDBRANCH   4   3
ENDBRANCH  10   9
BRANCH  12  13
ATOM     13  N   UNL     1      17.941  -0.262  15.983  0.00  0.00    -0.281 N 
ATOM     14  C   UNL     1      17.881   1.085  15.668  0.00  0.00    +0.248 C 
ATOM     30  O   UNL     1      17.841   1.527  14.529  0.00  0.00    -0.270 OA
ATOM     31  H   UNL     1      18.166  -0.486  16.953  0.00  0.00    +0.155 HD
BRANCH  14  15
ATOM     15  C   UNL     1      17.880   2.087  16.777  0.00  0.00    +0.037 A 
ATOM     16  C   UNL     1      18.433   3.431  16.588  0.00  0.00    +0.013 A 
ATOM     17  C   UNL     1      18.434   4.372  17.679  0.00  0.00    +0.005 A 
ATOM     18  C   UNL     1      17.879   3.973  18.970  0.00  0.00    -0.033 A 
ATOM     28  C   UNL     1      17.332   2.636  19.129  0.00  0.00    +0.005 A 
ATOM     29  C   UNL     1      17.330   1.710  18.061  0.00  0.00    +0.013 A 
BRANCH  18  19
ATOM     19  C   UNL     1      17.858   4.905  20.196  0.00  0.00    +0.119 C 
BRANCH  19  20
ATOM     20  N   UNL     1      16.546   5.512  20.572  0.00  0.00    -0.302 NA
ATOM     21  C   UNL     1      15.890   4.778  21.745  0.00  0.00    +0.066 C 
ATOM     22  C   UNL     1      14.529   5.439  22.140  0.00  0.00    -0.064 C 
ATOM     23  N   UNL     1      13.602   5.456  20.924  0.00  0.00    +0.379 N 
ATOM     24  C   UNL     1      12.301   6.024  21.306  0.00  0.00    -0.096 C 
ATOM     25  H   UNL     1      13.431   4.398  20.614  0.00  0.00    -0.082 HD
ATOM     26  C   UNL     1      14.248   6.181  19.752  0.00  0.00    -0.064 C 
ATOM     27  C   UNL     1      15.613   5.534  19.387  0.00  0.00    +0.066 C 
ENDBRANCH  19  20
ENDBRANCH  18  19
ENDBRANCH  14  15
ENDBRANCH  12  13
TORSDOF 6
ENDMDL
