MODEL 1
REMARK VINA RESULT:      -8.3      0.000      0.000
REMARK  Name = C:\Users\Docking\Desktop\test protocol\1iep_ligandH.pdb
REMARK  8 active torsions:
REMARK  status: ('A' for Active; 'I' for Inactive)
REMARK    1  A    between atoms: _5  and  _11
REMARK    2  A    between atoms: _19  and  _21
REMARK    3  A    between atoms: _22  and  _66
REMARK    4  A    between atoms: _27  and  _30
REMARK    5  A    between atoms: _32  and  _33
REMARK    6  A    between atoms: _38  and  _43
REMARK    7  A    between atoms: _43  and  _46
REMARK    8  A    between atoms: _53  and  _55
REMARK                            x       y       z     vdW  Elec       q    Type
REMARK                         _______ _______ _______ _____ _____    ______ ____
ROOT
ATOM     10  C   UNL     1       5.377  19.869  40.846  0.00  0.00    +0.038 A 
ATOM     11  C   UNL     1       5.066  18.491  40.972  0.00  0.00    +0.047 A 
ATOM     12  C   UNL     1       4.802  17.669  39.802  0.00  0.00    +0.035 A 
ATOM     32  C   UNL     1       4.865  18.282  38.517  0.00  0.00    +0.024 A 
ATOM     33  C   UNL     1       5.179  19.682  38.370  0.00  0.00    +0.007 A 
ATOM     34  C   UNL     1       5.438  20.498  39.521  0.00  0.00    -0.029 A 
ATOM     35  C   UNL     1       5.763  21.995  39.305  0.00  0.00    +0.045 C 
ENDROOT
BRANCH  10   9
ATOM      4  C   UNL     1       3.980  22.852  44.336  0.00  0.00    +0.077 A 
ATOM      5  C   UNL     1       2.656  22.963  43.793  0.00  0.00    +0.048 A 
ATOM      6  C   UNL     1       2.378  22.242  42.610  0.00  0.00    +0.116 A 
ATOM      7  N   UNL     1       3.358  21.470  42.023  0.00  0.00    -0.223 NA
ATOM      8  C   UNL     1       4.624  21.387  42.572  0.00  0.00    +0.220 A 
ATOM      9  N   UNL     1       5.622  20.611  42.003  0.00  0.00    -0.283 N 
ATOM     36  H   UNL     1       6.546  20.582  42.435  0.00  0.00    +0.155 HD
ATOM     37  N   UNL     1       4.915  22.067  43.701  0.00  0.00    -0.214 NA
BRANCH   4   3
ATOM      1  C   UNL     1       4.737  25.615  47.000  0.00  0.00    +0.020 A 
ATOM      2  C   UNL     1       4.290  24.989  45.776  0.00  0.00    +0.013 A 
ATOM      3  C   UNL     1       4.426  23.551  45.583  0.00  0.00    +0.019 A 
ATOM     38  C   UNL     1       5.021  22.768  46.655  0.00  0.00    +0.120 A 
ATOM     39  N   UNL     1       5.443  23.399  47.822  0.00  0.00    -0.263 NA
ATOM     40  C   UNL     1       5.320  24.782  48.018  0.00  0.00    +0.111 A 
ENDBRANCH   4   3
ENDBRANCH  10   9
BRANCH  12  13
ATOM     13  N   UNL     1       4.473  16.266  39.869  0.00  0.00    -0.281 N 
ATOM     14  C   UNL     1       5.231  15.192  39.434  0.00  0.00    +0.248 C 
ATOM     30  O   UNL     1       6.221  15.287  38.723  0.00  0.00    -0.270 OA
ATOM     31  H   UNL     1       3.571  16.038  40.288  0.00  0.00    +0.155 HD
BRANCH  14  15
ATOM     15  C   UNL     1       4.824  13.811  39.834  0.00  0.00    +0.037 A 
ATOM     16  C   UNL     1       5.790  12.710  39.856  0.00  0.00    +0.013 A 
ATOM     17  C   UNL     1       5.367  11.383  40.230  0.00  0.00    +0.005 A 
ATOM     18  C   UNL     1       3.969  11.152  40.587  0.00  0.00    -0.033 A 
ATOM     28  C   UNL     1       3.033  12.263  40.562  0.00  0.00    +0.005 A 
ATOM     29  C   UNL     1       3.444  13.564  40.195  0.00  0.00    +0.013 A 
BRANCH  18  19
ATOM     19  C   UNL     1       3.425   9.765  40.978  0.00  0.00    +0.119 C 
BRANCH  19  20
ATOM     20  N   UNL     1       4.213   8.574  40.544  0.00  0.00    -0.302 NA
ATOM     21  C   UNL     1       3.817   8.103  39.141  0.00  0.00    +0.066 C 
ATOM     22  C   UNL     1       4.668   6.870  38.694  0.00  0.00    -0.064 C 
ATOM     23  N   UNL     1       4.498   5.741  39.711  0.00  0.00    +0.379 N 
ATOM     24  C   UNL     1       5.250   4.559  39.264  0.00  0.00    -0.096 C 
ATOM     25  H   UNL     1       3.418   5.466  39.734  0.00  0.00    -0.082 HD
ATOM     26  C   UNL     1       4.887   6.201  41.109  0.00  0.00    -0.064 C 
ATOM     27  C   UNL     1       4.057   7.445  41.533  0.00  0.00    +0.066 C 
ENDBRANCH  19  20
ENDBRANCH  18  19
ENDBRANCH  14  15
ENDBRANCH  12  13
TORSDOF 6
ENDMDL
MODEL 2
REMARK VINA RESULT:      -7.9      2.466     14.594
REMARK  Name = C:\Users\Docking\Desktop\test protocol\1iep_ligandH.pdb
REMARK  8 active torsions:
REMARK  status: ('A' for Active; 'I' for Inactive)
REMARK    1  A    between atoms: _5  and  _11
REMARK    2  A    between atoms: _19  and  _21
REMARK    3  A    between atoms: _22  and  _66
REMARK    4  A    between atoms: _27  and  _30
REMARK    5  A    between atoms: _32  and  _33
REMARK    6  A    between atoms: _38  and  _43
REMARK    7  A    between atoms: _43  and  _46
REMARK    8  A    between atoms: _53  and  _55
REMARK                            x       y       z     vdW  Elec       q    Type
REMARK                         _______ _______ _______ _____ _____    ______ ____
ROOT
ATOM     10  C   UNL     1       4.533   8.700  40.560  0.00  0.00    +0.038 A 
ATOM     11  C   UNL     1       4.611  10.030  40.074  0.00  0.00    +0.047 A 
ATOM     12  C   UNL     1       4.563  11.167  40.980  0.00  0.00    +0.035 A 
ATOM     32  C   UNL     1       4.437  10.912  42.377  0.00  0.00    +0.024 A 
ATOM     33  C   UNL     1       4.354   9.566  42.888  0.00  0.00    +0.007 A 
ATOM     34  C   UNL     1       4.399   8.441  41.999  0.00  0.00    -0.029 A 
ATOM     35  C   UNL     1       4.300   7.021  42.602  0.00  0.00    +0.045 C 
ENDROOT
BRANCH  10   9
ATOM      4  C   UNL     1       6.897   5.248  38.209  0.00  0.00    +0.077 A 
ATOM      5  C   UNL     1       8.141   5.590  38.837  0.00  0.00    +0.048 A 
ATOM      6  C   UNL     1       8.130   6.665  39.753  0.00  0.00    +0.116 A 
ATOM      7  N   UNL     1       6.958   7.340  40.015  0.00  0.00    -0.223 NA
ATOM      8  C   UNL     1       5.776   6.986  39.391  0.00  0.00    +0.220 A 
ATOM      9  N   UNL     1       4.584   7.646  39.645  0.00  0.00    -0.283 N 
ATOM     36  H   UNL     1       3.735   7.359  39.158  0.00  0.00    +0.155 HD
ATOM     37  N   UNL     1       5.760   5.964  38.510  0.00  0.00    -0.214 NA
BRANCH   4   3
ATOM      1  C   UNL     1       5.433   2.279  36.125  0.00  0.00    +0.020 A 
ATOM      2  C   UNL     1       5.527   3.344  37.097  0.00  0.00    +0.013 A 
ATOM      3  C   UNL     1       6.746   4.134  37.220  0.00  0.00    +0.019 A 
ATOM     38  C   UNL     1       7.859   3.819  36.337  0.00  0.00    +0.120 A 
ATOM     39  N   UNL     1       7.739   2.787  35.411  0.00  0.00    -0.263 NA
ATOM     40  C   UNL     1       6.572   2.019  35.285  0.00  0.00    +0.111 A 
ENDBRANCH   4   3
ENDBRANCH  10   9
BRANCH  12  13
ATOM     13  N   UNL     1       4.630  12.539  40.544  0.00  0.00    -0.281 N 
ATOM     14  C   UNL     1       3.656  13.273  39.888  0.00  0.00    +0.248 C 
ATOM     30  O   UNL     1       2.651  12.793  39.384  0.00  0.00    -0.270 OA
ATOM     31  H   UNL     1       5.502  13.030  40.744  0.00  0.00    +0.155 HD
BRANCH  14  15
ATOM     15  C   UNL     1       3.829  14.752  39.761  0.00  0.00    +0.037 A 
ATOM     16  C   UNL     1       2.672  15.649  39.685  0.00  0.00    +0.013 A 
ATOM     17  C   UNL     1       2.867  17.070  39.546  0.00  0.00    +0.005 A 
ATOM     18  C   UNL     1       4.226  17.604  39.482  0.00  0.00    -0.033 A 
ATOM     28  C   UNL     1       5.355  16.692  39.564  0.00  0.00    +0.005 A 
ATOM     29  C   UNL     1       5.168  15.299  39.700  0.00  0.00    +0.013 A 
BRANCH  18  19
ATOM     19  C   UNL     1       4.527  19.105  39.312  0.00  0.00    +0.119 C 
BRANCH  19  20
ATOM     20  N   UNL     1       4.163  20.008  40.445  0.00  0.00    -0.302 NA
ATOM     21  C   UNL     1       4.977  21.305  40.430  0.00  0.00    +0.066 C 
ATOM     22  C   UNL     1       4.568  22.247  41.608  0.00  0.00    -0.064 C 
ATOM     23  N   UNL     1       4.750  21.509  42.935  0.00  0.00    +0.379 N 
ATOM     24  C   UNL     1       4.421  22.412  44.048  0.00  0.00    -0.096 C 
ATOM     25  H   UNL     1       5.827  21.238  43.026  0.00  0.00    -0.082 HD
ATOM     26  C   UNL     1       3.946  20.217  42.957  0.00  0.00    -0.064 C 
ATOM     27  C   UNL     1       4.340  19.300  41.766  0.00  0.00    +0.066 C 
ENDBRANCH  19  20
ENDBRANCH  18  19
ENDBRANCH  14  15
ENDBRANCH  12  13
TORSDOF 6
ENDMDL
MODEL 3
REMARK VINA RESULT:      -7.8     10.263     16.183
REMARK  Name = C:\Users\Docking\Desktop\test protocol\1iep_ligandH.pdb
REMARK  8 active torsions:
REMARK  status: ('A' for Active; 'I' for Inactive)
REMARK    1  A    between atoms: _5  and  _11
REMARK    2  A    between atoms: _19  and  _21
REMARK    3  A    between atoms: _22  and  _66
REMARK    4  A    between atoms: _27  and  _30
REMARK    5  A    between atoms: _32  and  _33
REMARK    6  A    between atoms: _38  and  _43
REMARK    7  A    between atoms: _43  and  _46
REMARK    8  A    between atoms: _53  and  _55
REMARK                            x       y       z     vdW  Elec       q    Type
REMARK                         _______ _______ _______ _____ _____    ______ ____
ROOT
ATOM     10  C   UNL     1      -0.862   4.572  46.813  0.00  0.00    +0.038 A 
ATOM     11  C   UNL     1       0.215   5.086  46.046  0.00  0.00    +0.047 A 
ATOM     12  C   UNL     1       0.138   6.400  45.427  0.00  0.00    +0.035 A 
ATOM     32  C   UNL     1      -1.051   7.165  45.611  0.00  0.00    +0.024 A 
ATOM     33  C   UNL     1      -2.155   6.658  46.386  0.00  0.00    +0.007 A 
ATOM     34  C   UNL     1      -2.086   5.361  46.997  0.00  0.00    -0.029 A 
ATOM     35  C   UNL     1      -3.303   4.865  47.812  0.00  0.00    +0.045 C 
ENDROOT
BRANCH  10   9
ATOM      4  C   UNL     1       0.656   1.631  50.289  0.00  0.00    +0.077 A 
ATOM      5  C   UNL     1       1.269   2.706  51.013  0.00  0.00    +0.048 A 
ATOM      6  C   UNL     1       1.177   4.001  50.453  0.00  0.00    +0.116 A 
ATOM      7  N   UNL     1       0.519   4.193  49.258  0.00  0.00    -0.223 NA
ATOM      8  C   UNL     1      -0.060   3.133  48.584  0.00  0.00    +0.220 A 
ATOM      9  N   UNL     1      -0.734   3.304  47.385  0.00  0.00    -0.283 N 
ATOM     36  H   UNL     1      -1.141   2.496  46.915  0.00  0.00    +0.155 HD
ATOM     37  N   UNL     1       0.015   1.887  49.097  0.00  0.00    -0.214 NA
BRANCH   4   3
ATOM      1  C   UNL     1       1.360  -2.209  50.543  0.00  0.00    +0.020 A 
ATOM      2  C   UNL     1       1.384  -0.850  50.053  0.00  0.00    +0.013 A 
ATOM      3  C   UNL     1       0.664   0.207  50.752  0.00  0.00    +0.019 A 
ATOM     38  C   UNL     1      -0.074  -0.147  51.955  0.00  0.00    +0.120 A 
ATOM     39  N   UNL     1      -0.080  -1.464  52.403  0.00  0.00    -0.263 NA
ATOM     40  C   UNL     1       0.607  -2.490  51.737  0.00  0.00    +0.111 A 
ENDBRANCH   4   3
ENDBRANCH  10   9
BRANCH  12  13
ATOM     13  N   UNL     1       1.196   6.971  44.631  0.00  0.00    -0.281 N 
ATOM     14  C   UNL     1       2.212   7.818  45.046  0.00  0.00    +0.248 C 
ATOM     30  O   UNL     1       2.239   8.386  46.128  0.00  0.00    -0.270 OA
ATOM     31  H   UNL     1       1.197   6.721  43.643  0.00  0.00    +0.155 HD
BRANCH  14  15
ATOM     15  C   UNL     1       3.354   8.082  44.120  0.00  0.00    +0.037 A 
ATOM     16  C   UNL     1       3.986   9.402  44.051  0.00  0.00    +0.013 A 
ATOM     17  C   UNL     1       5.076   9.636  43.136  0.00  0.00    +0.005 A 
ATOM     18  C   UNL     1       5.541   8.545  42.283  0.00  0.00    -0.033 A 
ATOM     28  C   UNL     1       4.899   7.244  42.376  0.00  0.00    +0.005 A 
ATOM     29  C   UNL     1       3.831   7.012  43.270  0.00  0.00    +0.013 A 
BRANCH  18  19
ATOM     19  C   UNL     1       6.683   8.709  41.263  0.00  0.00    +0.119 C 
BRANCH  19  20
ATOM     20  N   UNL     1       6.681   7.796  40.081  0.00  0.00    -0.302 NA
ATOM     21  C   UNL     1       7.804   6.757  40.156  0.00  0.00    +0.066 C 
ATOM     22  C   UNL     1       7.774   5.796  38.924  0.00  0.00    -0.064 C 
ATOM     23  N   UNL     1       7.880   6.617  37.638  0.00  0.00    +0.379 N 
ATOM     24  C   UNL     1       7.910   5.712  36.479  0.00  0.00    -0.096 C 
ATOM     25  H   UNL     1       8.851   7.164  37.665  0.00  0.00    -0.082 HD
ATOM     26  C   UNL     1       6.769   7.654  37.556  0.00  0.00    -0.064 C 
ATOM     27  C   UNL     1       6.790   8.585  38.800  0.00  0.00    +0.066 C 
ENDBRANCH  19  20
ENDBRANCH  18  19
ENDBRANCH  14  15
ENDBRANCH  12  13
TORSDOF 6
ENDMDL
MODEL 4
REMARK VINA RESULT:      -7.8      2.568     14.441
REMARK  Name = C:\Users\Docking\Desktop\test protocol\1iep_ligandH.pdb
REMARK  8 active torsions:
REMARK  status: ('A' for Active; 'I' for Inactive)
REMARK    1  A    between atoms: _5  and  _11
REMARK    2  A    between atoms: _19  and  _21
REMARK    3  A    between atoms: _22  and  _66
REMARK    4  A    between atoms: _27  and  _30
REMARK    5  A    between atoms: _32  and  _33
REMARK    6  A    between atoms: _38  and  _43
REMARK    7  A    between atoms: _43  and  _46
REMARK    8  A    between atoms: _53  and  _55
REMARK                            x       y       z     vdW  Elec       q    Type
REMARK                         _______ _______ _______ _____ _____    ______ ____
ROOT
ATOM     10  C   UNL     1       4.586   8.711  40.574  0.00  0.00    +0.038 A 
ATOM     11  C   UNL     1       4.696  10.054  40.131  0.00  0.00    +0.047 A 
ATOM     12  C   UNL     1       4.662  11.163  41.072  0.00  0.00    +0.035 A 
ATOM     32  C   UNL     1       4.517  10.867  42.459  0.00  0.00    +0.024 A 
ATOM     33  C   UNL     1       4.403   9.508  42.927  0.00  0.00    +0.007 A 
ATOM     34  C   UNL     1       4.433   8.411  42.003  0.00  0.00    -0.029 A 
ATOM     35  C   UNL     1       4.299   6.974  42.560  0.00  0.00    +0.045 C 
ENDROOT
BRANCH  10   9
ATOM      4  C   UNL     1       6.898   5.274  38.149  0.00  0.00    +0.077 A 
ATOM      5  C   UNL     1       8.140   5.564  38.806  0.00  0.00    +0.048 A 
ATOM      6  C   UNL     1       8.143   6.610  39.757  0.00  0.00    +0.116 A 
ATOM      7  N   UNL     1       6.984   7.307  40.022  0.00  0.00    -0.223 NA
ATOM      8  C   UNL     1       5.803   7.003  39.370  0.00  0.00    +0.220 A 
ATOM      9  N   UNL     1       4.625   7.686  39.627  0.00  0.00    -0.283 N 
ATOM     36  H   UNL     1       3.776   7.437  39.119  0.00  0.00    +0.155 HD
ATOM     37  N   UNL     1       5.775   6.010  38.457  0.00  0.00    -0.214 NA
BRANCH   4   3
ATOM      1  C   UNL     1       7.537   2.848  35.149  0.00  0.00    +0.020 A 
ATOM      2  C   UNL     1       7.745   3.900  36.117  0.00  0.00    +0.013 A 
ATOM      3  C   UNL     1       6.733   4.196  37.123  0.00  0.00    +0.019 A 
ATOM     38  C   UNL     1       5.514   3.403  37.124  0.00  0.00    +0.120 A 
ATOM     39  N   UNL     1       5.341   2.397  36.178  0.00  0.00    -0.263 NA
ATOM     40  C   UNL     1       6.306   2.104  35.204  0.00  0.00    +0.111 A 
ENDBRANCH   4   3
ENDBRANCH  10   9
BRANCH  12  13
ATOM     13  N   UNL     1       4.762  12.547  40.680  0.00  0.00    -0.281 N 
ATOM     14  C   UNL     1       5.690  13.127  39.831  0.00  0.00    +0.248 C 
ATOM     30  O   UNL     1       6.712  12.578  39.446  0.00  0.00    -0.270 OA
ATOM     31  H   UNL     1       4.063  13.175  41.077  0.00  0.00    +0.155 HD
BRANCH  14  15
ATOM     15  C   UNL     1       5.457  14.523  39.353  0.00  0.00    +0.037 A 
ATOM     16  C   UNL     1       6.512  15.280  38.674  0.00  0.00    +0.013 A 
ATOM     17  C   UNL     1       6.267  16.632  38.238  0.00  0.00    +0.005 A 
ATOM     18  C   UNL     1       4.959  17.235  38.479  0.00  0.00    -0.033 A 
ATOM     28  C   UNL     1       3.928  16.461  39.150  0.00  0.00    +0.005 A 
ATOM     29  C   UNL     1       4.166  15.136  39.580  0.00  0.00    +0.013 A 
BRANCH  18  19
ATOM     19  C   UNL     1       4.615  18.679  38.066  0.00  0.00    +0.119 C 
BRANCH  19  20
ATOM     20  N   UNL     1       4.687  19.728  39.127  0.00  0.00    -0.302 NA
ATOM     21  C   UNL     1       5.621  19.325  40.271  0.00  0.00    +0.066 C 
ATOM     22  C   UNL     1       5.702  20.444  41.360  0.00  0.00    -0.064 C 
ATOM     23  N   UNL     1       4.298  20.742  41.887  0.00  0.00    +0.379 N 
ATOM     24  C   UNL     1       4.377  21.752  42.952  0.00  0.00    -0.096 C 
ATOM     25  H   UNL     1       3.900  19.803  42.339  0.00  0.00    -0.082 HD
ATOM     26  C   UNL     1       3.361  21.141  40.755  0.00  0.00    -0.064 C 
ATOM     27  C   UNL     1       3.311  20.035  39.664  0.00  0.00    +0.066 C 
ENDBRANCH  19  20
ENDBRANCH  18  19
ENDBRANCH  14  15
ENDBRANCH  12  13
TORSDOF 6
ENDMDL
MODEL 5
REMARK VINA RESULT:      -7.8      7.649     13.160
REMARK  Name = C:\Users\Docking\Desktop\test protocol\1iep_ligandH.pdb
REMARK  8 active torsions:
REMARK  status: ('A' for Active; 'I' for Inactive)
REMARK    1  A    between atoms: _5  and  _11
REMARK    2  A    between atoms: _19  and  _21
REMARK    3  A    between atoms: _22  and  _66
REMARK    4  A    between atoms: _27  and  _30
REMARK    5  A    between atoms: _32  and  _33
REMARK    6  A    between atoms: _38  and  _43
REMARK    7  A    between atoms: _43  and  _46
REMARK    8  A    between atoms: _53  and  _55
REMARK                            x       y       z     vdW  Elec       q    Type
REMARK                         _______ _______ _______ _____ _____    ______ ____
ROOT
ATOM     10  C   UNL     1       4.987  29.822  49.703  0.00  0.00    +0.038 A 
ATOM     11  C   UNL     1       5.210  28.638  48.955  0.00  0.00    +0.047 A 
ATOM     12  C   UNL     1       4.414  28.332  47.777  0.00  0.00    +0.035 A 
ATOM     32  C   UNL     1       3.400  29.255  47.387  0.00  0.00    +0.024 A 
ATOM     33  C   UNL     1       3.160  30.463  48.137  0.00  0.00    +0.007 A 
ATOM     34  C   UNL     1       3.940  30.770  49.301  0.00  0.00    -0.029 A 
ATOM     35  C   UNL     1       3.634  32.076  50.070  0.00  0.00    +0.045 C 
ENDROOT
BRANCH  10   9
ATOM      4  C   UNL     1       5.995  29.307  54.368  0.00  0.00    +0.077 A 
ATOM      5  C   UNL     1       4.827  28.505  54.592  0.00  0.00    +0.048 A 
ATOM      6  C   UNL     1       3.989  28.255  53.483  0.00  0.00    +0.116 A 
ATOM      7  N   UNL     1       4.305  28.772  52.245  0.00  0.00    -0.223 NA
ATOM      8  C   UNL     1       5.439  29.543  52.063  0.00  0.00    +0.220 A 
ATOM      9  N   UNL     1       5.781  30.067  50.826  0.00  0.00    -0.283 N 
ATOM     36  H   UNL     1       6.621  30.637  50.735  0.00  0.00    +0.155 HD
ATOM     37  N   UNL     1       6.254  29.798  53.108  0.00  0.00    -0.214 NA
BRANCH   4   3
ATOM      1  C   UNL     1       9.326  29.838  56.348  0.00  0.00    +0.020 A 
ATOM      2  C   UNL     1       8.418  29.484  55.281  0.00  0.00    +0.013 A 
ATOM      3  C   UNL     1       6.980  29.657  55.440  0.00  0.00    +0.019 A 
ATOM     38  C   UNL     1       6.489  30.195  56.700  0.00  0.00    +0.120 A 
ATOM     39  N   UNL     1       7.387  30.526  57.709  0.00  0.00    -0.263 NA
ATOM     40  C   UNL     1       8.774  30.362  57.569  0.00  0.00    +0.111 A 
ENDBRANCH   4   3
ENDBRANCH  10   9
BRANCH  12  13
ATOM     13  N   UNL     1       4.589  27.141  46.983  0.00  0.00    -0.281 N 
ATOM     14  C   UNL     1       4.916  25.867  47.418  0.00  0.00    +0.248 C 
ATOM     30  O   UNL     1       5.320  25.603  48.541  0.00  0.00    -0.270 OA
ATOM     31  H   UNL     1       4.455  27.250  45.978  0.00  0.00    +0.155 HD
BRANCH  14  15
ATOM     15  C   UNL     1       4.791  24.723  46.465  0.00  0.00    +0.037 A 
ATOM     16  C   UNL     1       5.885  23.767  46.276  0.00  0.00    +0.013 A 
ATOM     17  C   UNL     1       5.744  22.683  45.337  0.00  0.00    +0.005 A 
ATOM     18  C   UNL     1       4.502  22.548  44.580  0.00  0.00    -0.033 A 
ATOM     28  C   UNL     1       3.431  23.508  44.790  0.00  0.00    +0.005 A 
ATOM     29  C   UNL     1       3.566  24.573  45.709  0.00  0.00    +0.013 A 
BRANCH  18  19
ATOM     19  C   UNL     1       4.273  21.434  43.541  0.00  0.00    +0.119 C 
BRANCH  19  20
ATOM     20  N   UNL     1       4.993  21.555  42.238  0.00  0.00    -0.302 NA
ATOM     21  C   UNL     1       4.156  22.288  41.185  0.00  0.00    +0.066 C 
ATOM     22  C   UNL     1       4.934  22.425  39.836  0.00  0.00    -0.064 C 
ATOM     23  N   UNL     1       5.335  21.036  39.338  0.00  0.00    +0.379 N 
ATOM     24  C   UNL     1       6.015  21.157  38.040  0.00  0.00    -0.096 C 
ATOM     25  H   UNL     1       4.399  20.452  39.176  0.00  0.00    -0.082 HD
ATOM     26  C   UNL     1       6.165  20.299  40.380  0.00  0.00    -0.064 C 
ATOM     27  C   UNL     1       5.395  20.194  41.726  0.00  0.00    +0.066 C 
ENDBRANCH  19  20
ENDBRANCH  18  19
ENDBRANCH  14  15
ENDBRANCH  12  13
TORSDOF 6
ENDMDL
