MODEL 1
REMARK VINA RESULT:     -10.3      0.000      0.000
REMARK  Name = C:\Users\Docking\Desktop\test protocol\1iep_ligandH.pdb
REMARK  8 active torsions:
REMARK  status: ('A' for Active; 'I' for Inactive)
REMARK    1  A    between atoms: _5  and  _11
REMARK    2  A    between atoms: _19  and  _21
REMARK    3  A    between atoms: _22  and  _66
REMARK    4  A    between atoms: _27  and  _30
REMARK    5  A    between atoms: _32  and  _33
REMARK    6  A    between atoms: _38  and  _43
REMARK    7  A    between atoms: _43  and  _46
REMARK    8  A    between atoms: _53  and  _55
REMARK                            x       y       z     vdW  Elec       q    Type
REMARK                         _______ _______ _______ _____ _____    ______ ____
ROOT
ATOM     10  C   UNL     1      12.392  82.943  85.024  0.00  0.00    +0.038 A 
ATOM     11  C   UNL     1      11.245  83.312  85.772  0.00  0.00    +0.047 A 
ATOM     12  C   UNL     1      10.004  83.688  85.112  0.00  0.00    +0.035 A 
ATOM     32  C   UNL     1       9.966  83.674  83.687  0.00  0.00    +0.024 A 
ATOM     33  C   UNL     1      11.123  83.302  82.911  0.00  0.00    +0.007 A 
ATOM     34  C   UNL     1      12.350  82.932  83.557  0.00  0.00    -0.029 A 
ATOM     35  C   UNL     1      13.561  82.549  82.674  0.00  0.00    +0.045 C 
ENDROOT
BRANCH  10   9
ATOM      4  C   UNL     1      15.109  79.786  87.409  0.00  0.00    +0.077 A 
ATOM      5  C   UNL     1      14.113  78.759  87.303  0.00  0.00    +0.048 A 
ATOM      6  C   UNL     1      12.913  79.086  86.634  0.00  0.00    +0.116 A 
ATOM      7  N   UNL     1      12.733  80.349  86.112  0.00  0.00    -0.223 NA
ATOM      8  C   UNL     1      13.713  81.317  86.233  0.00  0.00    +0.220 A 
ATOM      9  N   UNL     1      13.556  82.591  85.710  0.00  0.00    -0.283 N 
ATOM     36  H   UNL     1      14.300  83.279  85.827  0.00  0.00    +0.155 HD
ATOM     37  N   UNL     1      14.868  81.030  86.870  0.00  0.00    -0.214 NA
BRANCH   4   3
ATOM      1  C   UNL     1      18.952  79.692  88.136  0.00  0.00    +0.020 A 
ATOM      2  C   UNL     1      17.703  79.895  87.439  0.00  0.00    +0.013 A 
ATOM      3  C   UNL     1      16.431  79.593  88.085  0.00  0.00    +0.019 A 
ATOM     38  C   UNL     1      16.459  79.083  89.447  0.00  0.00    +0.120 A 
ATOM     39  N   UNL     1      17.677  78.896  90.093  0.00  0.00    -0.263 NA
ATOM     40  C   UNL     1      18.907  79.181  89.481  0.00  0.00    +0.111 A 
ENDBRANCH   4   3
ENDBRANCH  10   9
BRANCH  12  13
ATOM     13  N   UNL     1       8.811  84.080  85.819  0.00  0.00    -0.281 N 
ATOM     14  C   UNL     1       8.700  84.966  86.879  0.00  0.00    +0.248 C 
ATOM     30  O   UNL     1       9.647  85.395  87.522  0.00  0.00    -0.270 OA
ATOM     31  H   UNL     1       7.941  83.653  85.499  0.00  0.00    +0.155 HD
BRANCH  14  15
ATOM     15  C   UNL     1       7.342  85.430  87.293  0.00  0.00    +0.037 A 
ATOM     16  C   UNL     1       6.137  84.685  86.919  0.00  0.00    +0.013 A 
ATOM     17  C   UNL     1       4.837  85.164  87.318  0.00  0.00    +0.005 A 
ATOM     18  C   UNL     1       4.736  86.396  88.097  0.00  0.00    -0.033 A 
ATOM     28  C   UNL     1       5.948  87.113  88.458  0.00  0.00    +0.005 A 
ATOM     29  C   UNL     1       7.223  86.647  88.069  0.00  0.00    +0.013 A 
BRANCH  18  19
ATOM     19  C   UNL     1       3.389  86.993  88.547  0.00  0.00    +0.119 C 
BRANCH  19  20
ATOM     20  N   UNL     1       3.048  88.360  88.053  0.00  0.00    -0.302 NA
ATOM     21  C   UNL     1       3.160  89.415  89.158  0.00  0.00    +0.066 C 
ATOM     22  C   UNL     1       2.822  90.843  88.618  0.00  0.00    -0.064 C 
ATOM     23  N   UNL     1       1.416  90.837  88.016  0.00  0.00    +0.379 N 
ATOM     24  C   UNL     1       1.072  92.192  87.560  0.00  0.00    -0.096 C 
ATOM     25  H   UNL     1       0.702  90.561  88.826  0.00  0.00    -0.082 HD
ATOM     26  C   UNL     1       1.295  89.790  86.918  0.00  0.00    -0.064 C 
ATOM     27  C   UNL     1       1.662  88.379  87.457  0.00  0.00    +0.066 C 
ENDBRANCH  19  20
ENDBRANCH  18  19
ENDBRANCH  14  15
ENDBRANCH  12  13
TORSDOF 6
ENDMDL
MODEL 2
REMARK VINA RESULT:      -9.9      1.690      2.291
REMARK  Name = C:\Users\Docking\Desktop\test protocol\1iep_ligandH.pdb
REMARK  8 active torsions:
REMARK  status: ('A' for Active; 'I' for Inactive)
REMARK    1  A    between atoms: _5  and  _11
REMARK    2  A    between atoms: _19  and  _21
REMARK    3  A    between atoms: _22  and  _66
REMARK    4  A    between atoms: _27  and  _30
REMARK    5  A    between atoms: _32  and  _33
REMARK    6  A    between atoms: _38  and  _43
REMARK    7  A    between atoms: _43  and  _46
REMARK    8  A    between atoms: _53  and  _55
REMARK                            x       y       z     vdW  Elec       q    Type
REMARK                         _______ _______ _______ _____ _____    ______ ____
ROOT
ATOM     10  C   UNL     1      12.388  82.816  84.973  0.00  0.00    +0.038 A 
ATOM     11  C   UNL     1      11.211  83.127  85.700  0.00  0.00    +0.047 A 
ATOM     12  C   UNL     1       9.978  83.486  85.018  0.00  0.00    +0.035 A 
ATOM     32  C   UNL     1       9.978  83.516  83.593  0.00  0.00    +0.024 A 
ATOM     33  C   UNL     1      11.166  83.203  82.838  0.00  0.00    +0.007 A 
ATOM     34  C   UNL     1      12.386  82.851  83.506  0.00  0.00    -0.029 A 
ATOM     35  C   UNL     1      13.631  82.531  82.646  0.00  0.00    +0.045 C 
ENDROOT
BRANCH  10   9
ATOM      4  C   UNL     1      15.069  79.711  87.465  0.00  0.00    +0.077 A 
ATOM      5  C   UNL     1      14.071  78.685  87.375  0.00  0.00    +0.048 A 
ATOM      6  C   UNL     1      12.879  78.999  86.684  0.00  0.00    +0.116 A 
ATOM      7  N   UNL     1      12.709  80.249  86.130  0.00  0.00    -0.223 NA
ATOM      8  C   UNL     1      13.691  81.216  86.237  0.00  0.00    +0.220 A 
ATOM      9  N   UNL     1      13.544  82.477  85.680  0.00  0.00    -0.283 N 
ATOM     36  H   UNL     1      14.289  83.165  85.787  0.00  0.00    +0.155 HD
ATOM     37  N   UNL     1      14.838  80.941  86.892  0.00  0.00    -0.214 NA
BRANCH   4   3
ATOM      1  C   UNL     1      18.892  79.767  88.295  0.00  0.00    +0.020 A 
ATOM      2  C   UNL     1      17.650  79.964  87.583  0.00  0.00    +0.013 A 
ATOM      3  C   UNL     1      16.384  79.531  88.159  0.00  0.00    +0.019 A 
ATOM     38  C   UNL     1      16.408  78.897  89.469  0.00  0.00    +0.120 A 
ATOM     39  N   UNL     1      17.619  78.719  90.131  0.00  0.00    -0.263 NA
ATOM     40  C   UNL     1      18.844  79.130  89.585  0.00  0.00    +0.111 A 
ENDBRANCH   4   3
ENDBRANCH  10   9
BRANCH  12  13
ATOM     13  N   UNL     1       8.754  83.820  85.703  0.00  0.00    -0.281 N 
ATOM     14  C   UNL     1       8.479  84.951  86.454  0.00  0.00    +0.248 C 
ATOM     30  O   UNL     1       9.322  85.753  86.828  0.00  0.00    -0.270 OA
ATOM     31  H   UNL     1       7.998  83.139  85.626  0.00  0.00    +0.155 HD
BRANCH  14  15
ATOM     15  C   UNL     1       7.066  85.224  86.859  0.00  0.00    +0.037 A 
ATOM     16  C   UNL     1       5.996  84.265  86.573  0.00  0.00    +0.013 A 
ATOM     17  C   UNL     1       4.639  84.561  86.960  0.00  0.00    +0.005 A 
ATOM     18  C   UNL     1       4.345  85.821  87.638  0.00  0.00    -0.033 A 
ATOM     28  C   UNL     1       5.427  86.752  87.913  0.00  0.00    +0.005 A 
ATOM     29  C   UNL     1       6.759  86.466  87.535  0.00  0.00    +0.013 A 
BRANCH  18  19
ATOM     19  C   UNL     1       2.923  86.228  88.067  0.00  0.00    +0.119 C 
BRANCH  19  20
ATOM     20  N   UNL     1       1.912  86.422  86.986  0.00  0.00    -0.302 NA
ATOM     21  C   UNL     1       1.431  85.089  86.404  0.00  0.00    +0.066 C 
ATOM     22  C   UNL     1       0.356  85.309  85.290  0.00  0.00    -0.064 C 
ATOM     23  N   UNL     1       0.939  86.201  84.192  0.00  0.00    +0.379 N 
ATOM     24  C   UNL     1      -0.049  86.362  83.115  0.00  0.00    -0.096 C 
ATOM     25  H   UNL     1       1.824  85.675  83.764  0.00  0.00    -0.082 HD
ATOM     26  C   UNL     1       1.422  87.527  84.763  0.00  0.00    -0.064 C 
ATOM     27  C   UNL     1       2.467  87.296  85.889  0.00  0.00    +0.066 C 
ENDBRANCH  19  20
ENDBRANCH  18  19
ENDBRANCH  14  15
ENDBRANCH  12  13
TORSDOF 6
ENDMDL
MODEL 3
REMARK VINA RESULT:      -9.3      3.972      7.806
REMARK  Name = C:\Users\Docking\Desktop\test protocol\1iep_ligandH.pdb
REMARK  8 active torsions:
REMARK  status: ('A' for Active; 'I' for Inactive)
REMARK    1  A    between atoms: _5  and  _11
REMARK    2  A    between atoms: _19  and  _21
REMARK    3  A    between atoms: _22  and  _66
REMARK    4  A    between atoms: _27  and  _30
REMARK    5  A    between atoms: _32  and  _33
REMARK    6  A    between atoms: _38  and  _43
REMARK    7  A    between atoms: _43  and  _46
REMARK    8  A    between atoms: _53  and  _55
REMARK                            x       y       z     vdW  Elec       q    Type
REMARK                         _______ _______ _______ _____ _____    ______ ____
ROOT
ATOM     10  C   UNL     1      17.159  79.149  89.236  0.00  0.00    +0.038 A 
ATOM     11  C   UNL     1      15.880  79.597  88.819  0.00  0.00    +0.047 A 
ATOM     12  C   UNL     1      15.682  80.191  87.506  0.00  0.00    +0.035 A 
ATOM     32  C   UNL     1      16.810  80.311  86.642  0.00  0.00    +0.024 A 
ATOM     33  C   UNL     1      18.117  79.862  87.051  0.00  0.00    +0.007 A 
ATOM     34  C   UNL     1      18.319  79.277  88.346  0.00  0.00    -0.029 A 
ATOM     35  C   UNL     1      19.744  78.819  88.733  0.00  0.00    +0.045 C 
ENDROOT
BRANCH  10   9
ATOM      4  C   UNL     1      17.454  75.372  92.183  0.00  0.00    +0.077 A 
ATOM      5  C   UNL     1      17.305  74.441  91.101  0.00  0.00    +0.048 A 
ATOM      6  C   UNL     1      17.148  74.976  89.803  0.00  0.00    +0.116 A 
ATOM      7  N   UNL     1      17.142  76.340  89.612  0.00  0.00    -0.223 NA
ATOM      8  C   UNL     1      17.287  77.210  90.677  0.00  0.00    +0.220 A 
ATOM      9  N   UNL     1      17.292  78.586  90.508  0.00  0.00    -0.283 N 
ATOM     36  H   UNL     1      17.393  79.194  91.320  0.00  0.00    +0.155 HD
ATOM     37  N   UNL     1      17.437  76.725  91.927  0.00  0.00    -0.214 NA
BRANCH   4   3
ATOM      1  C   UNL     1      17.827  73.225  95.432  0.00  0.00    +0.020 A 
ATOM      2  C   UNL     1      17.650  73.568  94.040  0.00  0.00    +0.013 A 
ATOM      3  C   UNL     1      17.633  74.961  93.612  0.00  0.00    +0.019 A 
ATOM     38  C   UNL     1      17.800  75.992  94.626  0.00  0.00    +0.120 A 
ATOM     39  N   UNL     1      17.966  75.632  95.959  0.00  0.00    -0.263 NA
ATOM     40  C   UNL     1      17.983  74.294  96.383  0.00  0.00    +0.111 A 
ENDBRANCH   4   3
ENDBRANCH  10   9
BRANCH  12  13
ATOM     13  N   UNL     1      14.408  80.672  87.030  0.00  0.00    -0.281 N 
ATOM     14  C   UNL     1      14.135  81.869  86.391  0.00  0.00    +0.248 C 
ATOM     30  O   UNL     1      14.913  82.809  86.321  0.00  0.00    -0.270 OA
ATOM     31  H   UNL     1      13.612  80.053  87.184  0.00  0.00    +0.155 HD
BRANCH  14  15
ATOM     15  C   UNL     1      12.798  82.056  85.748  0.00  0.00    +0.037 A 
ATOM     16  C   UNL     1      12.336  83.381  85.329  0.00  0.00    +0.013 A 
ATOM     17  C   UNL     1      11.035  83.536  84.727  0.00  0.00    +0.005 A 
ATOM     18  C   UNL     1      10.188  82.361  84.540  0.00  0.00    -0.033 A 
ATOM     28  C   UNL     1      10.674  81.057  84.961  0.00  0.00    +0.005 A 
ATOM     29  C   UNL     1      11.948  80.902  85.552  0.00  0.00    +0.013 A 
BRANCH  18  19
ATOM     19  C   UNL     1       8.777  82.435  83.926  0.00  0.00    +0.119 C 
BRANCH  19  20
ATOM     20  N   UNL     1       7.618  82.299  84.858  0.00  0.00    -0.302 NA
ATOM     21  C   UNL     1       6.347  81.849  84.131  0.00  0.00    +0.066 C 
ATOM     22  C   UNL     1       5.150  81.690  85.124  0.00  0.00    -0.064 C 
ATOM     23  N   UNL     1       4.917  83.015  85.853  0.00  0.00    +0.379 N 
ATOM     24  C   UNL     1       3.755  82.886  86.745  0.00  0.00    -0.096 C 
ATOM     25  H   UNL     1       4.670  83.784  85.085  0.00  0.00    -0.082 HD
ATOM     26  C   UNL     1       6.176  83.471  86.576  0.00  0.00    -0.064 C 
ATOM     27  C   UNL     1       7.367  83.597  85.585  0.00  0.00    +0.066 C 
ENDBRANCH  19  20
ENDBRANCH  18  19
ENDBRANCH  14  15
ENDBRANCH  12  13
TORSDOF 6
ENDMDL
MODEL 4
REMARK VINA RESULT:      -9.3      3.897      7.991
REMARK  Name = C:\Users\Docking\Desktop\test protocol\1iep_ligandH.pdb
REMARK  8 active torsions:
REMARK  status: ('A' for Active; 'I' for Inactive)
REMARK    1  A    between atoms: _5  and  _11
REMARK    2  A    between atoms: _19  and  _21
REMARK    3  A    between atoms: _22  and  _66
REMARK    4  A    between atoms: _27  and  _30
REMARK    5  A    between atoms: _32  and  _33
REMARK    6  A    between atoms: _38  and  _43
REMARK    7  A    between atoms: _43  and  _46
REMARK    8  A    between atoms: _53  and  _55
REMARK                            x       y       z     vdW  Elec       q    Type
REMARK                         _______ _______ _______ _____ _____    ______ ____
ROOT
ATOM     10  C   UNL     1      17.493  78.898  89.500  0.00  0.00    +0.038 A 
ATOM     11  C   UNL     1      16.277  79.275  88.875  0.00  0.00    +0.047 A 
ATOM     12  C   UNL     1      16.272  79.995  87.611  0.00  0.00    +0.035 A 
ATOM     32  C   UNL     1      17.525  80.312  87.010  0.00  0.00    +0.024 A 
ATOM     33  C   UNL     1      18.771  79.937  87.632  0.00  0.00    +0.007 A 
ATOM     34  C   UNL     1      18.781  79.229  88.880  0.00  0.00    -0.029 A 
ATOM     35  C   UNL     1      20.146  78.859  89.505  0.00  0.00    +0.045 C 
ENDROOT
BRANCH  10   9
ATOM      4  C   UNL     1      17.481  74.842  92.066  0.00  0.00    +0.077 A 
ATOM      5  C   UNL     1      17.563  74.027  90.889  0.00  0.00    +0.048 A 
ATOM      6  C   UNL     1      17.598  74.690  89.642  0.00  0.00    +0.116 A 
ATOM      7  N   UNL     1      17.555  76.066  89.588  0.00  0.00    -0.223 NA
ATOM      8  C   UNL     1      17.475  76.823  90.743  0.00  0.00    +0.220 A 
ATOM      9  N   UNL     1      17.438  78.208  90.714  0.00  0.00    -0.283 N 
ATOM     36  H   UNL     1      17.371  78.730  91.587  0.00  0.00    +0.155 HD
ATOM     37  N   UNL     1      17.438  76.213  91.946  0.00  0.00    -0.214 NA
BRANCH   4   3
ATOM      1  C   UNL     1      17.205  72.390  95.102  0.00  0.00    +0.020 A 
ATOM      2  C   UNL     1      17.238  72.873  93.740  0.00  0.00    +0.013 A 
ATOM      3  C   UNL     1      17.438  74.288  93.457  0.00  0.00    +0.019 A 
ATOM     38  C   UNL     1      17.603  75.196  94.582  0.00  0.00    +0.120 A 
ATOM     39  N   UNL     1      17.565  74.702  95.883  0.00  0.00    -0.263 NA
ATOM     40  C   UNL     1      17.372  73.342  96.168  0.00  0.00    +0.111 A 
ENDBRANCH   4   3
ENDBRANCH  10   9
BRANCH  12  13
ATOM     13  N   UNL     1      15.070  80.411  86.933  0.00  0.00    -0.281 N 
ATOM     14  C   UNL     1      13.900  79.690  86.754  0.00  0.00    +0.248 C 
ATOM     30  O   UNL     1      13.787  78.492  86.966  0.00  0.00    -0.270 OA
ATOM     31  H   UNL     1      15.082  81.351  86.537  0.00  0.00    +0.155 HD
BRANCH  14  15
ATOM     15  C   UNL     1      12.684  80.400  86.254  0.00  0.00    +0.037 A 
ATOM     16  C   UNL     1      12.736  81.809  85.857  0.00  0.00    +0.013 A 
ATOM     17  C   UNL     1      11.544  82.475  85.394  0.00  0.00    +0.005 A 
ATOM     18  C   UNL     1      10.289  81.730  85.324  0.00  0.00    -0.033 A 
ATOM     28  C   UNL     1      10.267  80.332  85.719  0.00  0.00    +0.005 A 
ATOM     29  C   UNL     1      11.433  79.676  86.174  0.00  0.00    +0.013 A 
BRANCH  18  19
ATOM     19  C   UNL     1       8.964  82.365  84.862  0.00  0.00    +0.119 C 
BRANCH  19  20
ATOM     20  N   UNL     1       8.233  83.215  85.848  0.00  0.00    -0.302 NA
ATOM     21  C   UNL     1       6.729  83.262  85.562  0.00  0.00    +0.066 C 
ATOM     22  C   UNL     1       5.977  84.137  86.617  0.00  0.00    -0.064 C 
ATOM     23  N   UNL     1       6.571  85.547  86.624  0.00  0.00    +0.379 N 
ATOM     24  C   UNL     1       5.828  86.388  87.573  0.00  0.00    -0.096 C 
ATOM     25  H   UNL     1       6.429  85.978  85.606  0.00  0.00    -0.082 HD
ATOM     26  C   UNL     1       8.067  85.509  86.905  0.00  0.00    -0.064 C 
ATOM     27  C   UNL     1       8.801  84.613  85.868  0.00  0.00    +0.066 C 
ENDBRANCH  19  20
ENDBRANCH  18  19
ENDBRANCH  14  15
ENDBRANCH  12  13
TORSDOF 6
ENDMDL
MODEL 5
REMARK VINA RESULT:      -8.8     25.500     28.366
REMARK  Name = C:\Users\Docking\Desktop\test protocol\1iep_ligandH.pdb
REMARK  8 active torsions:
REMARK  status: ('A' for Active; 'I' for Inactive)
REMARK    1  A    between atoms: _5  and  _11
REMARK    2  A    between atoms: _19  and  _21
REMARK    3  A    between atoms: _22  and  _66
REMARK    4  A    between atoms: _27  and  _30
REMARK    5  A    between atoms: _32  and  _33
REMARK    6  A    between atoms: _38  and  _43
REMARK    7  A    between atoms: _43  and  _46
REMARK    8  A    between atoms: _53  and  _55
REMARK                            x       y       z     vdW  Elec       q    Type
REMARK                         _______ _______ _______ _____ _____    ______ ____
ROOT
ATOM     10  C   UNL     1      21.607 105.712  81.953  0.00  0.00    +0.038 A 
ATOM     11  C   UNL     1      22.985 105.549  82.247  0.00  0.00    +0.047 A 
ATOM     12  C   UNL     1      23.876 106.695  82.334  0.00  0.00    +0.035 A 
ATOM     32  C   UNL     1      23.330 107.994  82.119  0.00  0.00    +0.024 A 
ATOM     33  C   UNL     1      21.932 108.177  81.817  0.00  0.00    +0.007 A 
ATOM     34  C   UNL     1      21.048 107.050  81.727  0.00  0.00    -0.029 A 
ATOM     35  C   UNL     1      19.560 107.306  81.395  0.00  0.00    +0.045 C 
ENDROOT
BRANCH  10   9
ATOM      4  C   UNL     1      20.644 101.294  80.342  0.00  0.00    +0.077 A 
ATOM      5  C   UNL     1      21.843 101.255  79.555  0.00  0.00    +0.048 A 
ATOM      6  C   UNL     1      22.677 102.395  79.587  0.00  0.00    +0.116 A 
ATOM      7  N   UNL     1      22.328 103.487  80.353  0.00  0.00    -0.223 NA
ATOM      8  C   UNL     1      21.163 103.492  81.098  0.00  0.00    +0.220 A 
ATOM      9  N   UNL     1      20.797 104.576  81.881  0.00  0.00    -0.283 N 
ATOM     36  H   UNL     1      19.926 104.544  82.411  0.00  0.00    +0.155 HD
ATOM     37  N   UNL     1      20.349 102.416  81.083  0.00  0.00    -0.214 NA
BRANCH   4   3
ATOM      1  C   UNL     1      17.685  98.863  79.545  0.00  0.00    +0.020 A 
ATOM      2  C   UNL     1      18.607  99.969  79.429  0.00  0.00    +0.013 A 
ATOM      3  C   UNL     1      19.662 100.166  80.415  0.00  0.00    +0.019 A 
ATOM     38  C   UNL     1      19.759  99.217  81.514  0.00  0.00    +0.120 A 
ATOM     39  N   UNL     1      18.856  98.162  81.600  0.00  0.00    -0.263 NA
ATOM     40  C   UNL     1      17.835  97.963  80.659  0.00  0.00    +0.111 A 
ENDBRANCH   4   3
ENDBRANCH  10   9
BRANCH  12  13
ATOM     13  N   UNL     1      25.285 106.591  82.622  0.00  0.00    -0.281 N 
ATOM     14  C   UNL     1      26.349 106.823  81.766  0.00  0.00    +0.248 C 
ATOM     30  O   UNL     1      26.246 106.950  80.555  0.00  0.00    -0.270 OA
ATOM     31  H   UNL     1      25.528 106.312  83.573  0.00  0.00    +0.155 HD
BRANCH  14  15
ATOM     15  C   UNL     1      27.728 106.914  82.335  0.00  0.00    +0.037 A 
ATOM     16  C   UNL     1      28.134 108.049  83.167  0.00  0.00    +0.013 A 
ATOM     17  C   UNL     1      29.475 108.120  83.690  0.00  0.00    +0.005 A 
ATOM     18  C   UNL     1      30.421 107.050  83.382  0.00  0.00    -0.033 A 
ATOM     28  C   UNL     1      29.990 105.933  82.558  0.00  0.00    +0.005 A 
ATOM     29  C   UNL     1      28.677 105.860  82.044  0.00  0.00    +0.013 A 
BRANCH  18  19
ATOM     19  C   UNL     1      31.879 107.054  83.879  0.00  0.00    +0.119 C 
BRANCH  19  20
ATOM     20  N   UNL     1      32.327 105.883  84.691  0.00  0.00    -0.302 NA
ATOM     21  C   UNL     1      31.505 105.725  85.974  0.00  0.00    +0.066 C 
ATOM     22  C   UNL     1      31.973 104.482  86.800  0.00  0.00    -0.064 C 
ATOM     23  N   UNL     1      33.461 104.620  87.124  0.00  0.00    +0.379 N 
ATOM     24  C   UNL     1      33.891 103.482  87.950  0.00  0.00    -0.096 C 
ATOM     25  H   UNL     1      33.591 105.546  87.730  0.00  0.00    -0.082 HD
ATOM     26  C   UNL     1      34.286 104.781  85.854  0.00  0.00    -0.064 C 
ATOM     27  C   UNL     1      33.794 106.001  85.027  0.00  0.00    +0.066 C 
ENDBRANCH  19  20
ENDBRANCH  18  19
ENDBRANCH  14  15
ENDBRANCH  12  13
TORSDOF 6
ENDMDL
