MODEL 1
REMARK VINA RESULT:      -8.2      0.000      0.000
REMARK  Name = C:\Users\Docking\Desktop\test protocol\1iep_ligandH.pdb
REMARK  8 active torsions:
REMARK  status: ('A' for Active; 'I' for Inactive)
REMARK    1  A    between atoms: _5  and  _11
REMARK    2  A    between atoms: _19  and  _21
REMARK    3  A    between atoms: _22  and  _66
REMARK    4  A    between atoms: _27  and  _30
REMARK    5  A    between atoms: _32  and  _33
REMARK    6  A    between atoms: _38  and  _43
REMARK    7  A    between atoms: _43  and  _46
REMARK    8  A    between atoms: _53  and  _55
REMARK                            x       y       z     vdW  Elec       q    Type
REMARK                         _______ _______ _______ _____ _____    ______ ____
ROOT
ATOM     10  C   UNL     1      11.754  18.562   3.767  0.00  0.00    +0.038 A 
ATOM     11  C   UNL     1      12.901  17.729   3.804  0.00  0.00    +0.047 A 
ATOM     12  C   UNL     1      14.203  18.258   4.178  0.00  0.00    +0.035 A 
ATOM     32  C   UNL     1      14.300  19.640   4.512  0.00  0.00    +0.024 A 
ATOM     33  C   UNL     1      13.145  20.501   4.480  0.00  0.00    +0.007 A 
ATOM     34  C   UNL     1      11.858  19.986   4.109  0.00  0.00    -0.029 A 
ATOM     35  C   UNL     1      10.655  20.957   4.084  0.00  0.00    +0.045 C 
ENDROOT
BRANCH  10   9
ATOM      4  C   UNL     1       7.786  16.046   4.752  0.00  0.00    +0.077 A 
ATOM      5  C   UNL     1       8.203  15.805   6.103  0.00  0.00    +0.048 A 
ATOM      6  C   UNL     1       9.449  16.340   6.503  0.00  0.00    +0.116 A 
ATOM      7  N   UNL     1      10.211  17.060   5.610  0.00  0.00    -0.223 NA
ATOM      8  C   UNL     1       9.781  17.273   4.313  0.00  0.00    +0.220 A 
ATOM      9  N   UNL     1      10.528  18.002   3.401  0.00  0.00    -0.283 N 
ATOM     36  H   UNL     1      10.179  18.130   2.451  0.00  0.00    +0.155 HD
ATOM     37  N   UNL     1       8.596  16.772   3.907  0.00  0.00    -0.214 NA
BRANCH   4   3
ATOM      1  C   UNL     1       4.837  13.720   3.659  0.00  0.00    +0.020 A 
ATOM      2  C   UNL     1       6.096  14.148   4.224  0.00  0.00    +0.013 A 
ATOM      3  C   UNL     1       6.495  15.549   4.181  0.00  0.00    +0.019 A 
ATOM     38  C   UNL     1       5.589  16.500   3.554  0.00  0.00    +0.120 A 
ATOM     39  N   UNL     1       4.384  16.059   3.016  0.00  0.00    -0.263 NA
ATOM     40  C   UNL     1       3.991  14.713   3.051  0.00  0.00    +0.111 A 
ENDBRANCH   4   3
ENDBRANCH  10   9
BRANCH  12  13
ATOM     13  N   UNL     1      15.405  17.462   4.225  0.00  0.00    -0.281 N 
ATOM     14  C   UNL     1      16.526  17.564   3.418  0.00  0.00    +0.248 C 
ATOM     30  O   UNL     1      16.579  18.220   2.389  0.00  0.00    -0.270 OA
ATOM     31  H   UNL     1      15.432  16.735   4.940  0.00  0.00    +0.155 HD
BRANCH  14  15
ATOM     15  C   UNL     1      17.763  16.819   3.803  0.00  0.00    +0.037 A 
ATOM     16  C   UNL     1      18.771  16.452   2.805  0.00  0.00    +0.013 A 
ATOM     17  C   UNL     1      19.947  15.718   3.200  0.00  0.00    +0.005 A 
ATOM     18  C   UNL     1      20.121  15.347   4.602  0.00  0.00    -0.033 A 
ATOM     28  C   UNL     1      19.108  15.727   5.573  0.00  0.00    +0.005 A 
ATOM     29  C   UNL     1      17.954  16.446   5.189  0.00  0.00    +0.013 A 
BRANCH  18  19
ATOM     19  C   UNL     1      21.334  14.545   5.110  0.00  0.00    +0.119 C 
BRANCH  19  20
ATOM     20  N   UNL     1      21.059  13.241   5.784  0.00  0.00    -0.302 NA
ATOM     21  C   UNL     1      21.476  13.255   7.257  0.00  0.00    +0.066 C 
ATOM     22  C   UNL     1      21.160  11.890   7.951  0.00  0.00    -0.064 C 
ATOM     23  N   UNL     1      21.868  10.762   7.199  0.00  0.00    +0.379 N 
ATOM     24  C   UNL     1      21.620   9.485   7.883  0.00  0.00    -0.096 C 
ATOM     25  H   UNL     1      22.964  10.963   7.242  0.00  0.00    -0.082 HD
ATOM     26  C   UNL     1      21.461  10.743   5.732  0.00  0.00    -0.064 C 
ATOM     27  C   UNL     1      21.752  12.113   5.059  0.00  0.00    +0.066 C 
ENDBRANCH  19  20
ENDBRANCH  18  19
ENDBRANCH  14  15
ENDBRANCH  12  13
TORSDOF 6
ENDMDL
MODEL 2
REMARK VINA RESULT:      -8.1      6.045     13.443
REMARK  Name = C:\Users\Docking\Desktop\test protocol\1iep_ligandH.pdb
REMARK  8 active torsions:
REMARK  status: ('A' for Active; 'I' for Inactive)
REMARK    1  A    between atoms: _5  and  _11
REMARK    2  A    between atoms: _19  and  _21
REMARK    3  A    between atoms: _22  and  _66
REMARK    4  A    between atoms: _27  and  _30
REMARK    5  A    between atoms: _32  and  _33
REMARK    6  A    between atoms: _38  and  _43
REMARK    7  A    between atoms: _43  and  _46
REMARK    8  A    between atoms: _53  and  _55
REMARK                            x       y       z     vdW  Elec       q    Type
REMARK                         _______ _______ _______ _____ _____    ______ ____
ROOT
ATOM     10  C   UNL     1      12.931  18.700   4.351  0.00  0.00    +0.038 A 
ATOM     11  C   UNL     1      13.054  20.109   4.246  0.00  0.00    +0.047 A 
ATOM     12  C   UNL     1      11.911  20.941   3.905  0.00  0.00    +0.035 A 
ATOM     32  C   UNL     1      10.655  20.304   3.679  0.00  0.00    +0.024 A 
ATOM     33  C   UNL     1      10.513  18.873   3.780  0.00  0.00    +0.007 A 
ATOM     34  C   UNL     1      11.637  18.047   4.114  0.00  0.00    -0.029 A 
ATOM     35  C   UNL     1      11.428  16.517   4.203  0.00  0.00    +0.045 C 
ENDROOT
BRANCH  10   9
ATOM      4  C   UNL     1      17.404  17.184   3.497  0.00  0.00    +0.077 A 
ATOM      5  C   UNL     1      17.486  17.930   2.274  0.00  0.00    +0.048 A 
ATOM      6  C   UNL     1      16.353  18.684   1.896  0.00  0.00    +0.116 A 
ATOM      7  N   UNL     1      15.227  18.686   2.691  0.00  0.00    -0.223 NA
ATOM      8  C   UNL     1      15.180  17.955   3.864  0.00  0.00    +0.220 A 
ATOM      9  N   UNL     1      14.061  17.949   4.682  0.00  0.00    -0.283 N 
ATOM     36  H   UNL     1      14.064  17.391   5.535  0.00  0.00    +0.155 HD
ATOM     37  N   UNL     1      16.249  17.225   4.245  0.00  0.00    -0.214 NA
BRANCH   4   3
ATOM      1  C   UNL     1      20.637  14.997   3.755  0.00  0.00    +0.020 A 
ATOM      2  C   UNL     1      19.581  15.805   3.189  0.00  0.00    +0.013 A 
ATOM      3  C   UNL     1      18.520  16.341   4.031  0.00  0.00    +0.019 A 
ATOM     38  C   UNL     1      18.557  16.040   5.454  0.00  0.00    +0.120 A 
ATOM     39  N   UNL     1      19.584  15.257   5.971  0.00  0.00    -0.263 NA
ATOM     40  C   UNL     1      20.610  14.734   5.170  0.00  0.00    +0.111 A 
ENDBRANCH   4   3
ENDBRANCH  10   9
BRANCH  12  13
ATOM     13  N   UNL     1      11.977  22.375   3.776  0.00  0.00    -0.281 N 
ATOM     14  C   UNL     1      11.887  23.325   4.780  0.00  0.00    +0.248 C 
ATOM     30  O   UNL     1      11.520  23.091   5.922  0.00  0.00    -0.270 OA
ATOM     31  H   UNL     1      12.106  22.734   2.830  0.00  0.00    +0.155 HD
BRANCH  14  15
ATOM     15  C   UNL     1      12.243  24.743   4.467  0.00  0.00    +0.037 A 
ATOM     16  C   UNL     1      11.512  25.502   3.448  0.00  0.00    +0.013 A 
ATOM     17  C   UNL     1      11.887  26.863   3.154  0.00  0.00    +0.005 A 
ATOM     18  C   UNL     1      12.997  27.473   3.881  0.00  0.00    -0.033 A 
ATOM     28  C   UNL     1      13.701  26.699   4.889  0.00  0.00    +0.005 A 
ATOM     29  C   UNL     1      13.338  25.365   5.180  0.00  0.00    +0.013 A 
BRANCH  18  19
ATOM     19  C   UNL     1      13.479  28.912   3.617  0.00  0.00    +0.119 C 
BRANCH  19  20
ATOM     20  N   UNL     1      12.433  29.952   3.388  0.00  0.00    -0.302 NA
ATOM     21  C   UNL     1      12.190  30.205   1.897  0.00  0.00    +0.066 C 
ATOM     22  C   UNL     1      11.076  31.279   1.675  0.00  0.00    -0.064 C 
ATOM     23  N   UNL     1      11.473  32.574   2.386  0.00  0.00    +0.379 N 
ATOM     24  C   UNL     1      10.455  33.605   2.132  0.00  0.00    -0.096 C 
ATOM     25  H   UNL     1      12.431  32.926   1.938  0.00  0.00    -0.082 HD
ATOM     26  C   UNL     1      11.719  32.332   3.869  0.00  0.00    -0.064 C 
ATOM     27  C   UNL     1      12.806  31.241   4.077  0.00  0.00    +0.066 C 
ENDBRANCH  19  20
ENDBRANCH  18  19
ENDBRANCH  14  15
ENDBRANCH  12  13
TORSDOF 6
ENDMDL
MODEL 3
REMARK VINA RESULT:      -8.0      9.653     14.370
REMARK  Name = C:\Users\Docking\Desktop\test protocol\1iep_ligandH.pdb
REMARK  8 active torsions:
REMARK  status: ('A' for Active; 'I' for Inactive)
REMARK    1  A    between atoms: _5  and  _11
REMARK    2  A    between atoms: _19  and  _21
REMARK    3  A    between atoms: _22  and  _66
REMARK    4  A    between atoms: _27  and  _30
REMARK    5  A    between atoms: _32  and  _33
REMARK    6  A    between atoms: _38  and  _43
REMARK    7  A    between atoms: _43  and  _46
REMARK    8  A    between atoms: _53  and  _55
REMARK                            x       y       z     vdW  Elec       q    Type
REMARK                         _______ _______ _______ _____ _____    ______ ____
ROOT
ATOM     10  C   UNL     1      13.472  29.853   2.177  0.00  0.00    +0.038 A 
ATOM     11  C   UNL     1      13.540  28.474   2.502  0.00  0.00    +0.047 A 
ATOM     12  C   UNL     1      12.664  27.894   3.508  0.00  0.00    +0.035 A 
ATOM     32  C   UNL     1      11.727  28.747   4.161  0.00  0.00    +0.024 A 
ATOM     33  C   UNL     1      11.645  30.151   3.843  0.00  0.00    +0.007 A 
ATOM     34  C   UNL     1      12.508  30.729   2.854  0.00  0.00    -0.029 A 
ATOM     35  C   UNL     1      12.381  32.242   2.558  0.00  0.00    +0.045 C 
ENDROOT
BRANCH  10   9
ATOM      4  C   UNL     1      17.469  32.156   0.851  0.00  0.00    +0.077 A 
ATOM      5  C   UNL     1      17.852  32.398   2.212  0.00  0.00    +0.048 A 
ATOM      6  C   UNL     1      16.989  31.921   3.224  0.00  0.00    +0.116 A 
ATOM      7  N   UNL     1      15.832  31.251   2.887  0.00  0.00    -0.223 NA
ATOM      8  C   UNL     1      15.492  31.035   1.565  0.00  0.00    +0.220 A 
ATOM      9  N   UNL     1      14.338  30.357   1.204  0.00  0.00    -0.283 N 
ATOM     36  H   UNL     1      14.118  30.225   0.217  0.00  0.00    +0.155 HD
ATOM     37  N   UNL     1      16.298  31.483   0.580  0.00  0.00    -0.214 NA
BRANCH   4   3
ATOM      1  C   UNL     1      19.610  34.311  -1.613  0.00  0.00    +0.020 A 
ATOM      2  C   UNL     1      18.835  33.937  -0.452  0.00  0.00    +0.013 A 
ATOM      3  C   UNL     1      18.278  32.596  -0.330  0.00  0.00    +0.019 A 
ATOM     38  C   UNL     1      18.525  31.650  -1.407  0.00  0.00    +0.120 A 
ATOM     39  N   UNL     1      19.274  32.039  -2.514  0.00  0.00    -0.263 NA
ATOM     40  C   UNL     1      19.814  33.328  -2.643  0.00  0.00    +0.111 A 
ENDBRANCH   4   3
ENDBRANCH  10   9
BRANCH  12  13
ATOM     13  N   UNL     1      12.693  26.503   3.886  0.00  0.00    -0.281 N 
ATOM     14  C   UNL     1      11.671  25.573   3.790  0.00  0.00    +0.248 C 
ATOM     30  O   UNL     1      10.503  25.850   3.562  0.00  0.00    -0.270 OA
ATOM     31  H   UNL     1      13.574  26.162   4.270  0.00  0.00    +0.155 HD
BRANCH  14  15
ATOM     15  C   UNL     1      11.990  24.126   3.992  0.00  0.00    +0.037 A 
ATOM     16  C   UNL     1      13.180  23.707   4.735  0.00  0.00    +0.013 A 
ATOM     17  C   UNL     1      13.473  22.305   4.900  0.00  0.00    +0.005 A 
ATOM     18  C   UNL     1      12.572  21.312   4.321  0.00  0.00    -0.033 A 
ATOM     28  C   UNL     1      11.395  21.756   3.592  0.00  0.00    +0.005 A 
ATOM     29  C   UNL     1      11.105  23.129   3.428  0.00  0.00    +0.013 A 
BRANCH  18  19
ATOM     19  C   UNL     1      12.818  19.795   4.429  0.00  0.00    +0.119 C 
BRANCH  19  20
ATOM     20  N   UNL     1      14.167  19.292   4.036  0.00  0.00    -0.302 NA
ATOM     21  C   UNL     1      14.462  19.536   2.553  0.00  0.00    +0.066 C 
ATOM     22  C   UNL     1      15.887  19.024   2.164  0.00  0.00    -0.064 C 
ATOM     23  N   UNL     1      15.999  17.535   2.500  0.00  0.00    +0.379 N 
ATOM     24  C   UNL     1      17.318  17.037   2.081  0.00  0.00    -0.096 C 
ATOM     25  H   UNL     1      15.228  16.995   1.903  0.00  0.00    -0.082 HD
ATOM     26  C   UNL     1      15.705  17.283   3.971  0.00  0.00    -0.064 C 
ATOM     27  C   UNL     1      14.299  17.823   4.355  0.00  0.00    +0.066 C 
ENDBRANCH  19  20
ENDBRANCH  18  19
ENDBRANCH  14  15
ENDBRANCH  12  13
TORSDOF 6
ENDMDL
MODEL 4
REMARK VINA RESULT:      -8.0      5.999     12.773
REMARK  Name = C:\Users\Docking\Desktop\test protocol\1iep_ligandH.pdb
REMARK  8 active torsions:
REMARK  status: ('A' for Active; 'I' for Inactive)
REMARK    1  A    between atoms: _5  and  _11
REMARK    2  A    between atoms: _19  and  _21
REMARK    3  A    between atoms: _22  and  _66
REMARK    4  A    between atoms: _27  and  _30
REMARK    5  A    between atoms: _32  and  _33
REMARK    6  A    between atoms: _38  and  _43
REMARK    7  A    between atoms: _43  and  _46
REMARK    8  A    between atoms: _53  and  _55
REMARK                            x       y       z     vdW  Elec       q    Type
REMARK                         _______ _______ _______ _____ _____    ______ ____
ROOT
ATOM     10  C   UNL     1      12.827  18.676   4.333  0.00  0.00    +0.038 A 
ATOM     11  C   UNL     1      12.924  20.087   4.224  0.00  0.00    +0.047 A 
ATOM     12  C   UNL     1      11.764  20.897   3.884  0.00  0.00    +0.035 A 
ATOM     32  C   UNL     1      10.520  20.236   3.663  0.00  0.00    +0.024 A 
ATOM     33  C   UNL     1      10.404  18.803   3.768  0.00  0.00    +0.007 A 
ATOM     34  C   UNL     1      11.545  17.999   4.101  0.00  0.00    -0.029 A 
ATOM     35  C   UNL     1      11.364  16.466   4.194  0.00  0.00    +0.045 C 
ENDROOT
BRANCH  10   9
ATOM      4  C   UNL     1      17.329  17.251   3.474  0.00  0.00    +0.077 A 
ATOM      5  C   UNL     1      17.396  17.999   2.252  0.00  0.00    +0.048 A 
ATOM      6  C   UNL     1      16.248  18.732   1.876  0.00  0.00    +0.116 A 
ATOM      7  N   UNL     1      15.122  18.711   2.671  0.00  0.00    -0.223 NA
ATOM      8  C   UNL     1      15.091  17.977   3.843  0.00  0.00    +0.220 A 
ATOM      9  N   UNL     1      13.972  17.948   4.662  0.00  0.00    -0.283 N 
ATOM     36  H   UNL     1      13.986  17.389   5.515  0.00  0.00    +0.155 HD
ATOM     37  N   UNL     1      16.174  17.268   4.223  0.00  0.00    -0.214 NA
BRANCH   4   3
ATOM      1  C   UNL     1      19.653  15.198   5.858  0.00  0.00    +0.020 A 
ATOM      2  C   UNL     1      18.538  15.990   5.395  0.00  0.00    +0.013 A 
ATOM      3  C   UNL     1      18.462  16.429   4.007  0.00  0.00    +0.019 A 
ATOM     38  C   UNL     1      19.539  16.046   3.107  0.00  0.00    +0.120 A 
ATOM     39  N   UNL     1      20.602  15.284   3.582  0.00  0.00    -0.263 NA
ATOM     40  C   UNL     1      20.686  14.857   4.916  0.00  0.00    +0.111 A 
ENDBRANCH   4   3
ENDBRANCH  10   9
BRANCH  12  13
ATOM     13  N   UNL     1      11.803  22.332   3.751  0.00  0.00    -0.281 N 
ATOM     14  C   UNL     1      12.043  23.272   4.740  0.00  0.00    +0.248 C 
ATOM     30  O   UNL     1      12.048  23.029   5.938  0.00  0.00    -0.270 OA
ATOM     31  H   UNL     1      11.634  22.699   2.815  0.00  0.00    +0.155 HD
BRANCH  14  15
ATOM     15  C   UNL     1      12.298  24.690   4.342  0.00  0.00    +0.037 A 
ATOM     16  C   UNL     1      13.373  25.471   4.959  0.00  0.00    +0.013 A 
ATOM     17  C   UNL     1      13.588  26.842   4.569  0.00  0.00    +0.005 A 
ATOM     18  C   UNL     1      12.725  27.440   3.553  0.00  0.00    -0.033 A 
ATOM     28  C   UNL     1      11.670  26.641   2.953  0.00  0.00    +0.005 A 
ATOM     29  C   UNL     1      11.456  25.297   3.334  0.00  0.00    +0.013 A 
BRANCH  18  19
ATOM     19  C   UNL     1      12.868  28.902   3.091  0.00  0.00    +0.119 C 
BRANCH  19  20
ATOM     20  N   UNL     1      14.234  29.503   3.134  0.00  0.00    -0.302 NA
ATOM     21  C   UNL     1      14.365  30.555   4.239  0.00  0.00    +0.066 C 
ATOM     22  C   UNL     1      15.807  31.156   4.284  0.00  0.00    -0.064 C 
ATOM     23  N   UNL     1      16.149  31.758   2.920  0.00  0.00    +0.379 N 
ATOM     24  C   UNL     1      17.482  32.376   2.977  0.00  0.00    -0.096 C 
ATOM     25  H   UNL     1      15.410  32.566   2.713  0.00  0.00    -0.082 HD
ATOM     26  C   UNL     1      16.019  30.719   1.815  0.00  0.00    -0.064 C 
ATOM     27  C   UNL     1      14.591  30.107   1.798  0.00  0.00    +0.066 C 
ENDBRANCH  19  20
ENDBRANCH  18  19
ENDBRANCH  14  15
ENDBRANCH  12  13
TORSDOF 6
ENDMDL
MODEL 5
REMARK VINA RESULT:      -7.9      8.197     15.044
REMARK  Name = C:\Users\Docking\Desktop\test protocol\1iep_ligandH.pdb
REMARK  8 active torsions:
REMARK  status: ('A' for Active; 'I' for Inactive)
REMARK    1  A    between atoms: _5  and  _11
REMARK    2  A    between atoms: _19  and  _21
REMARK    3  A    between atoms: _22  and  _66
REMARK    4  A    between atoms: _27  and  _30
REMARK    5  A    between atoms: _32  and  _33
REMARK    6  A    between atoms: _38  and  _43
REMARK    7  A    between atoms: _43  and  _46
REMARK    8  A    between atoms: _53  and  _55
REMARK                            x       y       z     vdW  Elec       q    Type
REMARK                         _______ _______ _______ _____ _____    ______ ____
ROOT
ATOM     10  C   UNL     1      14.621  23.102   6.098  0.00  0.00    +0.038 A 
ATOM     11  C   UNL     1      14.426  24.220   5.247  0.00  0.00    +0.047 A 
ATOM     12  C   UNL     1      13.486  25.275   5.594  0.00  0.00    +0.035 A 
ATOM     32  C   UNL     1      12.762  25.160   6.816  0.00  0.00    +0.024 A 
ATOM     33  C   UNL     1      12.947  24.030   7.692  0.00  0.00    +0.007 A 
ATOM     34  C   UNL     1      13.871  22.985   7.355  0.00  0.00    -0.029 A 
ATOM     35  C   UNL     1      14.023  21.794   8.329  0.00  0.00    +0.045 C 
ENDROOT
BRANCH  10   9
ATOM      4  C   UNL     1      15.782  19.088   3.738  0.00  0.00    +0.077 A 
ATOM      5  C   UNL     1      14.445  18.920   3.245  0.00  0.00    +0.048 A 
ATOM      6  C   UNL     1      13.487  19.885   3.628  0.00  0.00    +0.116 A 
ATOM      7  N   UNL     1      13.849  20.936   4.443  0.00  0.00    -0.223 NA
ATOM      8  C   UNL     1      15.147  21.067   4.902  0.00  0.00    +0.220 A 
ATOM      9  N   UNL     1      15.536  22.119   5.717  0.00  0.00    -0.283 N 
ATOM     36  H   UNL     1      16.501  22.176   6.040  0.00  0.00    +0.155 HD
ATOM     37  N   UNL     1      16.081  20.157   4.552  0.00  0.00    -0.214 NA
BRANCH   4   3
ATOM      1  C   UNL     1      18.104  16.530   1.903  0.00  0.00    +0.020 A 
ATOM      2  C   UNL     1      16.996  17.420   2.162  0.00  0.00    +0.013 A 
ATOM      3  C   UNL     1      16.907  18.153   3.418  0.00  0.00    +0.019 A 
ATOM     38  C   UNL     1      17.965  17.962   4.399  0.00  0.00    +0.120 A 
ATOM     39  N   UNL     1      19.019  17.097   4.123  0.00  0.00    -0.263 NA
ATOM     40  C   UNL     1      19.114  16.385   2.918  0.00  0.00    +0.111 A 
ENDBRANCH   4   3
ENDBRANCH  10   9
BRANCH  12  13
ATOM     13  N   UNL     1      13.240  26.429   4.765  0.00  0.00    -0.281 N 
ATOM     14  C   UNL     1      12.319  26.561   3.740  0.00  0.00    +0.248 C 
ATOM     30  O   UNL     1      11.708  25.631   3.235  0.00  0.00    -0.270 OA
ATOM     31  H   UNL     1      13.816  27.249   4.959  0.00  0.00    +0.155 HD
BRANCH  14  15
ATOM     15  C   UNL     1      12.046  27.922   3.185  0.00  0.00    +0.037 A 
ATOM     16  C   UNL     1      12.986  28.571   2.268  0.00  0.00    +0.013 A 
ATOM     17  C   UNL     1      12.707  29.892   1.761  0.00  0.00    +0.005 A 
ATOM     18  C   UNL     1      11.479  30.571   2.169  0.00  0.00    -0.033 A 
ATOM     28  C   UNL     1      10.561  29.901   3.076  0.00  0.00    +0.005 A 
ATOM     29  C   UNL     1      10.832  28.608   3.576  0.00  0.00    +0.013 A 
BRANCH  18  19
ATOM     19  C   UNL     1      11.110  31.989   1.694  0.00  0.00    +0.119 C 
BRANCH  19  20
ATOM     20  N   UNL     1      10.718  32.980   2.740  0.00  0.00    -0.302 NA
ATOM     21  C   UNL     1       9.859  34.110   2.167  0.00  0.00    +0.066 C 
ATOM     22  C   UNL     1       9.439  35.126   3.279  0.00  0.00    -0.064 C 
ATOM     23  N   UNL     1      10.692  35.686   3.954  0.00  0.00    +0.379 N 
ATOM     24  C   UNL     1      10.302  36.684   4.961  0.00  0.00    -0.096 C 
ATOM     25  H   UNL     1      11.291  36.209   3.173  0.00  0.00    -0.082 HD
ATOM     26  C   UNL     1      11.553  34.568   4.525  0.00  0.00    -0.064 C 
ATOM     27  C   UNL     1      11.940  33.549   3.417  0.00  0.00    +0.066 C 
ENDBRANCH  19  20
ENDBRANCH  18  19
ENDBRANCH  14  15
ENDBRANCH  12  13
TORSDOF 6
ENDMDL
