MODEL 1
REMARK VINA RESULT:     -10.1      0.000      0.000
REMARK  Name = C:\Users\Docking\Desktop\test protocol\1iep_ligandH.pdb
REMARK  8 active torsions:
REMARK  status: ('A' for Active; 'I' for Inactive)
REMARK    1  A    between atoms: _5  and  _11
REMARK    2  A    between atoms: _19  and  _21
REMARK    3  A    between atoms: _22  and  _66
REMARK    4  A    between atoms: _27  and  _30
REMARK    5  A    between atoms: _32  and  _33
REMARK    6  A    between atoms: _38  and  _43
REMARK    7  A    between atoms: _43  and  _46
REMARK    8  A    between atoms: _53  and  _55
REMARK                            x       y       z     vdW  Elec       q    Type
REMARK                         _______ _______ _______ _____ _____    ______ ____
ROOT
ATOM     10  C   UNL     1      74.339 140.284 127.406  0.00  0.00    +0.038 A 
ATOM     11  C   UNL     1      73.253 139.732 126.680  0.00  0.00    +0.047 A 
ATOM     12  C   UNL     1      71.918 139.671 127.254  0.00  0.00    +0.035 A 
ATOM     32  C   UNL     1      71.724 140.182 128.570  0.00  0.00    +0.024 A 
ATOM     33  C   UNL     1      72.817 140.745 129.323  0.00  0.00    +0.007 A 
ATOM     34  C   UNL     1      74.137 140.807 128.763  0.00  0.00    -0.029 A 
ATOM     35  C   UNL     1      75.272 141.415 129.618  0.00  0.00    +0.045 C 
ENDROOT
BRANCH  10   9
ATOM      4  C   UNL     1      78.536 138.259 126.258  0.00  0.00    +0.077 A 
ATOM      5  C   UNL     1      78.199 137.038 126.933  0.00  0.00    +0.048 A 
ATOM      6  C   UNL     1      76.940 136.975 127.569  0.00  0.00    +0.116 A 
ATOM      7  N   UNL     1      76.088 138.058 127.527  0.00  0.00    -0.223 NA
ATOM      8  C   UNL     1      76.444 139.220 126.868  0.00  0.00    +0.220 A 
ATOM      9  N   UNL     1      75.600 140.318 126.806  0.00  0.00    -0.283 N 
ATOM     36  H   UNL     1      75.903 141.160 126.317  0.00  0.00    +0.155 HD
ATOM     37  N   UNL     1      77.642 139.306 126.254  0.00  0.00    -0.214 NA
BRANCH   4   3
ATOM      1  C   UNL     1      81.435 139.898 124.207  0.00  0.00    +0.020 A 
ATOM      2  C   UNL     1      80.172 139.739 124.890  0.00  0.00    +0.013 A 
ATOM      3  C   UNL     1      79.829 138.478 125.536  0.00  0.00    +0.019 A 
ATOM     38  C   UNL     1      80.794 137.390 125.472  0.00  0.00    +0.120 A 
ATOM     39  N   UNL     1      82.001 137.573 124.805  0.00  0.00    -0.263 NA
ATOM     40  C   UNL     1      82.342 138.781 124.178  0.00  0.00    +0.111 A 
ENDBRANCH   4   3
ENDBRANCH  10   9
BRANCH  12  13
ATOM     13  N   UNL     1      70.778 139.115 126.567  0.00  0.00    -0.281 N 
ATOM     14  C   UNL     1      70.263 139.484 125.335  0.00  0.00    +0.248 C 
ATOM     30  O   UNL     1      70.577 140.498 124.730  0.00  0.00    -0.270 OA
ATOM     31  H   UNL     1      70.292 138.357 127.047  0.00  0.00    +0.155 HD
BRANCH  14  15
ATOM     15  C   UNL     1      69.239 138.607 124.689  0.00  0.00    +0.037 A 
ATOM     16  C   UNL     1      69.194 137.167 124.955  0.00  0.00    +0.013 A 
ATOM     17  C   UNL     1      68.208 136.342 124.305  0.00  0.00    +0.005 A 
ATOM     18  C   UNL     1      67.256 136.956 123.382  0.00  0.00    -0.033 A 
ATOM     28  C   UNL     1      67.319 138.388 123.140  0.00  0.00    +0.005 A 
ATOM     29  C   UNL     1      68.286 139.200 123.775  0.00  0.00    +0.013 A 
BRANCH  18  19
ATOM     19  C   UNL     1      66.182 136.148 122.628  0.00  0.00    +0.119 C 
BRANCH  19  20
ATOM     20  N   UNL     1      66.304 134.660 122.652  0.00  0.00    -0.302 NA
ATOM     21  C   UNL     1      65.793 134.022 121.357  0.00  0.00    +0.066 C 
ATOM     22  C   UNL     1      65.949 132.466 121.389  0.00  0.00    -0.064 C 
ATOM     23  N   UNL     1      65.201 131.907 122.601  0.00  0.00    +0.379 N 
ATOM     24  C   UNL     1      65.297 130.440 122.602  0.00  0.00    -0.096 C 
ATOM     25  H   UNL     1      64.125 132.176 122.487  0.00  0.00    -0.082 HD
ATOM     26  C   UNL     1      65.701 132.539 123.892  0.00  0.00    -0.064 C 
ATOM     27  C   UNL     1      65.569 134.086 123.838  0.00  0.00    +0.066 C 
ENDBRANCH  19  20
ENDBRANCH  18  19
ENDBRANCH  14  15
ENDBRANCH  12  13
TORSDOF 6
ENDMDL
MODEL 2
REMARK VINA RESULT:     -10.0      1.708      2.359
REMARK  Name = C:\Users\Docking\Desktop\test protocol\1iep_ligandH.pdb
REMARK  8 active torsions:
REMARK  status: ('A' for Active; 'I' for Inactive)
REMARK    1  A    between atoms: _5  and  _11
REMARK    2  A    between atoms: _19  and  _21
REMARK    3  A    between atoms: _22  and  _66
REMARK    4  A    between atoms: _27  and  _30
REMARK    5  A    between atoms: _32  and  _33
REMARK    6  A    between atoms: _38  and  _43
REMARK    7  A    between atoms: _43  and  _46
REMARK    8  A    between atoms: _53  and  _55
REMARK                            x       y       z     vdW  Elec       q    Type
REMARK                         _______ _______ _______ _____ _____    ______ ____
ROOT
ATOM     10  C   UNL     1      72.738 139.938 127.019  0.00  0.00    +0.038 A 
ATOM     11  C   UNL     1      71.869 139.134 126.239  0.00  0.00    +0.047 A 
ATOM     12  C   UNL     1      70.464 138.988 126.587  0.00  0.00    +0.035 A 
ATOM     32  C   UNL     1      69.977 139.678 127.736  0.00  0.00    +0.024 A 
ATOM     33  C   UNL     1      70.848 140.499 128.541  0.00  0.00    +0.007 A 
ATOM     34  C   UNL     1      72.235 140.644 128.204  0.00  0.00    -0.029 A 
ATOM     35  C   UNL     1      73.123 141.532 129.106  0.00  0.00    +0.045 C 
ENDROOT
BRANCH  10   9
ATOM      4  C   UNL     1      77.226 138.247 126.820  0.00  0.00    +0.077 A 
ATOM      5  C   UNL     1      76.877 137.068 127.560  0.00  0.00    +0.048 A 
ATOM      6  C   UNL     1      75.534 136.938 127.979  0.00  0.00    +0.116 A 
ATOM      7  N   UNL     1      74.617 137.920 127.676  0.00  0.00    -0.223 NA
ATOM      8  C   UNL     1      74.986 139.046 126.962  0.00  0.00    +0.220 A 
ATOM      9  N   UNL     1      74.078 140.042 126.639  0.00  0.00    -0.283 N 
ATOM     36  H   UNL     1      74.392 140.861 126.118  0.00  0.00    +0.155 HD
ATOM     37  N   UNL     1      76.263 139.194 126.552  0.00  0.00    -0.214 NA
BRANCH   4   3
ATOM      1  C   UNL     1      80.225 139.739 124.801  0.00  0.00    +0.020 A 
ATOM      2  C   UNL     1      78.876 139.506 125.262  0.00  0.00    +0.013 A 
ATOM      3  C   UNL     1      78.604 138.526 126.306  0.00  0.00    +0.019 A 
ATOM     38  C   UNL     1      79.728 137.792 126.867  0.00  0.00    +0.120 A 
ATOM     39  N   UNL     1      81.017 138.036 126.402  0.00  0.00    -0.263 NA
ATOM     40  C   UNL     1      81.290 138.976 125.397  0.00  0.00    +0.111 A 
ENDBRANCH   4   3
ENDBRANCH  10   9
BRANCH  12  13
ATOM     13  N   UNL     1      69.535 138.179 125.838  0.00  0.00    -0.281 N 
ATOM     14  C   UNL     1      69.096 138.370 124.538  0.00  0.00    +0.248 C 
ATOM     30  O   UNL     1      69.273 139.392 123.891  0.00  0.00    -0.270 OA
ATOM     31  H   UNL     1      69.155 137.367 126.325  0.00  0.00    +0.155 HD
BRANCH  14  15
ATOM     15  C   UNL     1      68.338 137.272 123.863  0.00  0.00    +0.037 A 
ATOM     16  C   UNL     1      67.595 137.513 122.624  0.00  0.00    +0.013 A 
ATOM     17  C   UNL     1      66.858 136.440 122.003  0.00  0.00    +0.005 A 
ATOM     18  C   UNL     1      66.862 135.117 122.621  0.00  0.00    -0.033 A 
ATOM     28  C   UNL     1      67.612 134.905 123.848  0.00  0.00    +0.005 A 
ATOM     29  C   UNL     1      68.335 135.954 124.460  0.00  0.00    +0.013 A 
BRANCH  18  19
ATOM     19  C   UNL     1      66.087 133.920 122.040  0.00  0.00    +0.119 C 
BRANCH  19  20
ATOM     20  N   UNL     1      66.880 132.869 121.335  0.00  0.00    -0.302 NA
ATOM     21  C   UNL     1      67.075 133.194 119.852  0.00  0.00    +0.066 C 
ATOM     22  C   UNL     1      67.926 132.096 119.135  0.00  0.00    -0.064 C 
ATOM     23  N   UNL     1      67.246 130.736 119.306  0.00  0.00    +0.379 N 
ATOM     24  C   UNL     1      68.013 129.710 118.584  0.00  0.00    -0.096 C 
ATOM     25  H   UNL     1      66.239 130.801 118.833  0.00  0.00    -0.082 HD
ATOM     26  C   UNL     1      67.045 130.406 120.778  0.00  0.00    -0.064 C 
ATOM     27  C   UNL     1      66.224 131.518 121.487  0.00  0.00    +0.066 C 
ENDBRANCH  19  20
ENDBRANCH  18  19
ENDBRANCH  14  15
ENDBRANCH  12  13
TORSDOF 6
ENDMDL
MODEL 3
REMARK VINA RESULT:      -9.9      1.792      2.369
REMARK  Name = C:\Users\Docking\Desktop\test protocol\1iep_ligandH.pdb
REMARK  8 active torsions:
REMARK  status: ('A' for Active; 'I' for Inactive)
REMARK    1  A    between atoms: _5  and  _11
REMARK    2  A    between atoms: _19  and  _21
REMARK    3  A    between atoms: _22  and  _66
REMARK    4  A    between atoms: _27  and  _30
REMARK    5  A    between atoms: _32  and  _33
REMARK    6  A    between atoms: _38  and  _43
REMARK    7  A    between atoms: _43  and  _46
REMARK    8  A    between atoms: _53  and  _55
REMARK                            x       y       z     vdW  Elec       q    Type
REMARK                         _______ _______ _______ _____ _____    ______ ____
ROOT
ATOM     10  C   UNL     1      73.881 140.088 128.525  0.00  0.00    +0.038 A 
ATOM     11  C   UNL     1      72.848 139.452 127.791  0.00  0.00    +0.047 A 
ATOM     12  C   UNL     1      71.701 140.202 127.302  0.00  0.00    +0.035 A 
ATOM     32  C   UNL     1      71.640 141.599 127.577  0.00  0.00    +0.024 A 
ATOM     33  C   UNL     1      72.681 142.261 128.323  0.00  0.00    +0.007 A 
ATOM     34  C   UNL     1      73.814 141.526 128.810  0.00  0.00    -0.029 A 
ATOM     35  C   UNL     1      74.897 142.287 129.609  0.00  0.00    +0.045 C 
ENDROOT
BRANCH  10   9
ATOM      4  C   UNL     1      78.095 137.900 127.824  0.00  0.00    +0.077 A 
ATOM      5  C   UNL     1      78.141 138.299 126.447  0.00  0.00    +0.048 A 
ATOM      6  C   UNL     1      77.056 139.060 125.956  0.00  0.00    +0.116 A 
ATOM      7  N   UNL     1      76.010 139.392 126.789  0.00  0.00    -0.223 NA
ATOM      8  C   UNL     1      75.997 138.990 128.112  0.00  0.00    +0.220 A 
ATOM      9  N   UNL     1      74.959 139.319 128.970  0.00  0.00    -0.283 N 
ATOM     36  H   UNL     1      74.983 138.997 129.938  0.00  0.00    +0.155 HD
ATOM     37  N   UNL     1      77.020 138.261 128.605  0.00  0.00    -0.214 NA
BRANCH   4   3
ATOM      1  C   UNL     1      81.577 136.429 128.832  0.00  0.00    +0.020 A 
ATOM      2  C   UNL     1      80.581 137.229 128.158  0.00  0.00    +0.013 A 
ATOM      3  C   UNL     1      79.168 137.096 128.491  0.00  0.00    +0.019 A 
ATOM     38  C   UNL     1      78.794 136.136 129.519  0.00  0.00    +0.120 A 
ATOM     39  N   UNL     1      79.775 135.378 130.150  0.00  0.00    -0.263 NA
ATOM     40  C   UNL     1      81.137 135.496 129.837  0.00  0.00    +0.111 A 
ENDBRANCH   4   3
ENDBRANCH  10   9
BRANCH  12  13
ATOM     13  N   UNL     1      70.617 139.609 126.558  0.00  0.00    -0.281 N 
ATOM     14  C   UNL     1      70.485 139.505 125.183  0.00  0.00    +0.248 C 
ATOM     30  O   UNL     1      71.181 140.101 124.374  0.00  0.00    -0.270 OA
ATOM     31  H   UNL     1      69.856 139.217 127.112  0.00  0.00    +0.155 HD
BRANCH  14  15
ATOM     15  C   UNL     1      69.414 138.624 124.625  0.00  0.00    +0.037 A 
ATOM     16  C   UNL     1      69.307 137.217 125.018  0.00  0.00    +0.013 A 
ATOM     17  C   UNL     1      68.276 136.384 124.451  0.00  0.00    +0.005 A 
ATOM     18  C   UNL     1      67.341 136.958 123.486  0.00  0.00    -0.033 A 
ATOM     28  C   UNL     1      67.467 138.359 123.118  0.00  0.00    +0.005 A 
ATOM     29  C   UNL     1      68.478 139.178 123.670  0.00  0.00    +0.013 A 
BRANCH  18  19
ATOM     19  C   UNL     1      66.223 136.139 122.815  0.00  0.00    +0.119 C 
BRANCH  19  20
ATOM     20  N   UNL     1      66.396 134.656 122.768  0.00  0.00    -0.302 NA
ATOM     21  C   UNL     1      65.954 134.069 121.425  0.00  0.00    +0.066 C 
ATOM     22  C   UNL     1      66.163 132.520 121.384  0.00  0.00    -0.064 C 
ATOM     23  N   UNL     1      65.393 131.874 122.538  0.00  0.00    +0.379 N 
ATOM     24  C   UNL     1      65.540 130.413 122.468  0.00  0.00    -0.096 C 
ATOM     25  H   UNL     1      64.313 132.113 122.399  0.00  0.00    -0.082 HD
ATOM     26  C   UNL     1      65.825 132.455 123.877  0.00  0.00    -0.064 C 
ATOM     27  C   UNL     1      65.641 133.998 123.896  0.00  0.00    +0.066 C 
ENDBRANCH  19  20
ENDBRANCH  18  19
ENDBRANCH  14  15
ENDBRANCH  12  13
TORSDOF 6
ENDMDL
MODEL 4
REMARK VINA RESULT:      -9.7      4.828     13.016
REMARK  Name = C:\Users\Docking\Desktop\test protocol\1iep_ligandH.pdb
REMARK  8 active torsions:
REMARK  status: ('A' for Active; 'I' for Inactive)
REMARK    1  A    between atoms: _5  and  _11
REMARK    2  A    between atoms: _19  and  _21
REMARK    3  A    between atoms: _22  and  _66
REMARK    4  A    between atoms: _27  and  _30
REMARK    5  A    between atoms: _32  and  _33
REMARK    6  A    between atoms: _38  and  _43
REMARK    7  A    between atoms: _43  and  _46
REMARK    8  A    between atoms: _53  and  _55
REMARK                            x       y       z     vdW  Elec       q    Type
REMARK                         _______ _______ _______ _____ _____    ______ ____
ROOT
ATOM     10  C   UNL     1      78.710 138.929 126.542  0.00  0.00    +0.038 A 
ATOM     11  C   UNL     1      79.489 138.284 125.548  0.00  0.00    +0.047 A 
ATOM     12  C   UNL     1      80.887 137.957 125.784  0.00  0.00    +0.035 A 
ATOM     32  C   UNL     1      81.458 138.299 127.044  0.00  0.00    +0.024 A 
ATOM     33  C   UNL     1      80.680 138.956 128.065  0.00  0.00    +0.007 A 
ATOM     34  C   UNL     1      79.302 139.283 127.838  0.00  0.00    -0.029 A 
ATOM     35  C   UNL     1      78.518 139.994 128.966  0.00  0.00    +0.045 C 
ENDROOT
BRANCH  10   9
ATOM      4  C   UNL     1      74.062 137.740 126.390  0.00  0.00    +0.077 A 
ATOM      5  C   UNL     1      74.323 136.419 126.883  0.00  0.00    +0.048 A 
ATOM      6  C   UNL     1      75.668 136.082 127.157  0.00  0.00    +0.116 A 
ATOM      7  N   UNL     1      76.669 137.007 126.950  0.00  0.00    -0.223 NA
ATOM      8  C   UNL     1      76.383 138.272 126.471  0.00  0.00    +0.220 A 
ATOM      9  N   UNL     1      77.373 139.220 126.263  0.00  0.00    -0.283 N 
ATOM     36  H   UNL     1      77.121 140.140 125.901  0.00  0.00    +0.155 HD
ATOM     37  N   UNL     1      75.107 138.617 126.201  0.00  0.00    -0.214 NA
BRANCH   4   3
ATOM      1  C   UNL     1      70.222 137.919 125.665  0.00  0.00    +0.020 A 
ATOM      2  C   UNL     1      71.523 137.380 125.990  0.00  0.00    +0.013 A 
ATOM      3  C   UNL     1      72.693 138.246 126.057  0.00  0.00    +0.019 A 
ATOM     38  C   UNL     1      72.511 139.665 125.789  0.00  0.00    +0.120 A 
ATOM     39  N   UNL     1      71.247 140.155 125.476  0.00  0.00    -0.263 NA
ATOM     40  C   UNL     1      70.114 139.331 125.407  0.00  0.00    +0.111 A 
ENDBRANCH   4   3
ENDBRANCH  10   9
BRANCH  12  13
ATOM     13  N   UNL     1      81.730 137.309 124.809  0.00  0.00    -0.281 N 
ATOM     14  C   UNL     1      82.726 137.878 124.033  0.00  0.00    +0.248 C 
ATOM     30  O   UNL     1      82.900 139.081 123.904  0.00  0.00    -0.270 OA
ATOM     31  H   UNL     1      81.574 136.310 124.676  0.00  0.00    +0.155 HD
BRANCH  14  15
ATOM     15  C   UNL     1      83.655 136.982 123.279  0.00  0.00    +0.037 A 
ATOM     16  C   UNL     1      83.512 135.525 123.329  0.00  0.00    +0.013 A 
ATOM     17  C   UNL     1      84.432 134.683 122.606  0.00  0.00    +0.005 A 
ATOM     18  C   UNL     1      85.504 135.297 121.826  0.00  0.00    -0.033 A 
ATOM     28  C   UNL     1      85.620 136.746 121.790  0.00  0.00    +0.005 A 
ATOM     29  C   UNL     1      84.720 137.574 122.498  0.00  0.00    +0.013 A 
BRANCH  18  19
ATOM     19  C   UNL     1      86.544 134.476 121.041  0.00  0.00    +0.119 C 
BRANCH  19  20
ATOM     20  N   UNL     1      86.119 133.915 119.724  0.00  0.00    -0.302 NA
ATOM     21  C   UNL     1      85.534 134.991 118.804  0.00  0.00    +0.066 C 
ATOM     22  C   UNL     1      85.116 134.391 117.422  0.00  0.00    -0.064 C 
ATOM     23  N   UNL     1      84.109 133.261 117.642  0.00  0.00    +0.379 N 
ATOM     24  C   UNL     1      83.670 132.734 116.342  0.00  0.00    -0.096 C 
ATOM     25  H   UNL     1      83.217 133.698 118.149  0.00  0.00    -0.082 HD
ATOM     26  C   UNL     1      84.682 132.189 118.558  0.00  0.00    -0.064 C 
ATOM     27  C   UNL     1      85.121 132.800 119.918  0.00  0.00    +0.066 C 
ENDBRANCH  19  20
ENDBRANCH  18  19
ENDBRANCH  14  15
ENDBRANCH  12  13
TORSDOF 6
ENDMDL
MODEL 5
REMARK VINA RESULT:      -9.7      6.170     13.355
REMARK  Name = C:\Users\Docking\Desktop\test protocol\1iep_ligandH.pdb
REMARK  8 active torsions:
REMARK  status: ('A' for Active; 'I' for Inactive)
REMARK    1  A    between atoms: _5  and  _11
REMARK    2  A    between atoms: _19  and  _21
REMARK    3  A    between atoms: _22  and  _66
REMARK    4  A    between atoms: _27  and  _30
REMARK    5  A    between atoms: _32  and  _33
REMARK    6  A    between atoms: _38  and  _43
REMARK    7  A    between atoms: _43  and  _46
REMARK    8  A    between atoms: _53  and  _55
REMARK                            x       y       z     vdW  Elec       q    Type
REMARK                         _______ _______ _______ _____ _____    ______ ____
ROOT
ATOM     10  C   UNL     1      79.857 138.856 126.651  0.00  0.00    +0.038 A 
ATOM     11  C   UNL     1      80.133 138.033 125.529  0.00  0.00    +0.047 A 
ATOM     12  C   UNL     1      81.423 137.380 125.374  0.00  0.00    +0.035 A 
ATOM     32  C   UNL     1      82.409 137.586 126.383  0.00  0.00    +0.024 A 
ATOM     33  C   UNL     1      82.146 138.420 127.529  0.00  0.00    +0.007 A 
ATOM     34  C   UNL     1      80.876 139.068 127.686  0.00  0.00    -0.029 A 
ATOM     35  C   UNL     1      80.651 139.957 128.932  0.00  0.00    +0.045 C 
ENDROOT
BRANCH  10   9
ATOM      4  C   UNL     1      75.205 138.777 127.833  0.00  0.00    +0.077 A 
ATOM      5  C   UNL     1      75.278 137.411 128.267  0.00  0.00    +0.048 A 
ATOM      6  C   UNL     1      76.529 136.763 128.163  0.00  0.00    +0.116 A 
ATOM      7  N   UNL     1      77.620 137.440 127.661  0.00  0.00    -0.223 NA
ATOM      8  C   UNL     1      77.515 138.756 127.250  0.00  0.00    +0.220 A 
ATOM      9  N   UNL     1      78.600 139.458 126.749  0.00  0.00    -0.283 N 
ATOM     36  H   UNL     1      78.480 140.426 126.450  0.00  0.00    +0.155 HD
ATOM     37  N   UNL     1      76.331 139.397 127.338  0.00  0.00    -0.214 NA
BRANCH   4   3
ATOM      1  C   UNL     1      71.886 140.587 126.833  0.00  0.00    +0.020 A 
ATOM      2  C   UNL     1      73.083 139.785 126.731  0.00  0.00    +0.013 A 
ATOM      3  C   UNL     1      73.954 139.598 127.884  0.00  0.00    +0.019 A 
ATOM     38  C   UNL     1      73.583 140.240 129.136  0.00  0.00    +0.120 A 
ATOM     39  N   UNL     1      72.425 141.009 129.204  0.00  0.00    -0.263 NA
ATOM     40  C   UNL     1      71.579 141.197 128.100  0.00  0.00    +0.111 A 
ENDBRANCH   4   3
ENDBRANCH  10   9
BRANCH  12  13
ATOM     13  N   UNL     1      81.764 136.540 124.253  0.00  0.00    -0.281 N 
ATOM     14  C   UNL     1      82.961 136.491 123.559  0.00  0.00    +0.248 C 
ATOM     30  O   UNL     1      83.855 137.318 123.662  0.00  0.00    -0.270 OA
ATOM     31  H   UNL     1      81.033 135.904 123.933  0.00  0.00    +0.155 HD
BRANCH  14  15
ATOM     15  C   UNL     1      83.194 135.368 122.600  0.00  0.00    +0.037 A 
ATOM     16  C   UNL     1      84.435 134.589 122.629  0.00  0.00    +0.013 A 
ATOM     17  C   UNL     1      84.642 133.522 121.682  0.00  0.00    +0.005 A 
ATOM     18  C   UNL     1      83.603 133.227 120.698  0.00  0.00    -0.033 A 
ATOM     28  C   UNL     1      82.379 134.011 120.696  0.00  0.00    +0.005 A 
ATOM     29  C   UNL     1      82.174 135.059 121.622  0.00  0.00    +0.013 A 
BRANCH  18  19
ATOM     19  C   UNL     1      83.747 132.120 119.637  0.00  0.00    +0.119 C 
BRANCH  19  20
ATOM     20  N   UNL     1      85.112 131.877 119.084  0.00  0.00    -0.302 NA
ATOM     21  C   UNL     1      85.585 133.028 118.192  0.00  0.00    +0.066 C 
ATOM     22  C   UNL     1      87.024 132.767 117.640  0.00  0.00    -0.064 C 
ATOM     23  N   UNL     1      87.041 131.444 116.872  0.00  0.00    +0.379 N 
ATOM     24  C   UNL     1      88.378 131.224 116.302  0.00  0.00    -0.096 C 
ATOM     25  H   UNL     1      86.323 131.537 116.023  0.00  0.00    -0.082 HD
ATOM     26  C   UNL     1      86.570 130.294 117.751  0.00  0.00    -0.064 C 
ATOM     27  C   UNL     1      85.150 130.577 118.317  0.00  0.00    +0.066 C 
ENDBRANCH  19  20
ENDBRANCH  18  19
ENDBRANCH  14  15
ENDBRANCH  12  13
TORSDOF 6
ENDMDL
