MODEL 1
REMARK VINA RESULT:      -9.1      0.000      0.000
REMARK  Name = C:\Users\Docking\Desktop\test protocol\1iep_ligandH.pdb
REMARK  8 active torsions:
REMARK  status: ('A' for Active; 'I' for Inactive)
REMARK    1  A    between atoms: _5  and  _11
REMARK    2  A    between atoms: _19  and  _21
REMARK    3  A    between atoms: _22  and  _66
REMARK    4  A    between atoms: _27  and  _30
REMARK    5  A    between atoms: _32  and  _33
REMARK    6  A    between atoms: _38  and  _43
REMARK    7  A    between atoms: _43  and  _46
REMARK    8  A    between atoms: _53  and  _55
REMARK                            x       y       z     vdW  Elec       q    Type
REMARK                         _______ _______ _______ _____ _____    ______ ____
ROOT
ATOM     10  C   UNL     1      20.164  30.091  22.059  0.00  0.00    +0.038 A 
ATOM     11  C   UNL     1      20.644  30.138  20.725  0.00  0.00    +0.047 A 
ATOM     12  C   UNL     1      20.052  31.032  19.743  0.00  0.00    +0.035 A 
ATOM     32  C   UNL     1      18.973  31.868  20.154  0.00  0.00    +0.024 A 
ATOM     33  C   UNL     1      18.471  31.832  21.506  0.00  0.00    +0.007 A 
ATOM     34  C   UNL     1      19.050  30.950  22.478  0.00  0.00    -0.029 A 
ATOM     35  C   UNL     1      18.468  30.949  23.911  0.00  0.00    +0.045 C 
ENDROOT
BRANCH  10   9
ATOM      4  C   UNL     1      20.191  26.074  24.686  0.00  0.00    +0.077 A 
ATOM      5  C   UNL     1      18.876  25.707  24.246  0.00  0.00    +0.048 A 
ATOM      6  C   UNL     1      18.224  26.582  23.349  0.00  0.00    +0.116 A 
ATOM      7  N   UNL     1      18.850  27.736  22.930  0.00  0.00    -0.223 NA
ATOM      8  C   UNL     1      20.118  28.062  23.375  0.00  0.00    +0.220 A 
ATOM      9  N   UNL     1      20.770  29.213  22.961  0.00  0.00    -0.283 N 
ATOM     36  H   UNL     1      21.702  29.421  23.318  0.00  0.00    +0.155 HD
ATOM     37  N   UNL     1      20.761  27.243  24.233  0.00  0.00    -0.214 NA
BRANCH   4   3
ATOM      1  C   UNL     1      23.209  24.384  26.513  0.00  0.00    +0.020 A 
ATOM      2  C   UNL     1      22.465  25.194  25.577  0.00  0.00    +0.013 A 
ATOM      3  C   UNL     1      21.010  25.251  25.631  0.00  0.00    +0.019 A 
ATOM     38  C   UNL     1      20.332  24.469  26.655  0.00  0.00    +0.120 A 
ATOM     39  N   UNL     1      21.074  23.696  27.542  0.00  0.00    -0.263 NA
ATOM     40  C   UNL     1      22.475  23.633  27.498  0.00  0.00    +0.111 A 
ENDBRANCH   4   3
ENDBRANCH  10   9
BRANCH  12  13
ATOM     13  N   UNL     1      20.493  31.117  18.373  0.00  0.00    -0.281 N 
ATOM     14  C   UNL     1      21.107  32.186  17.741  0.00  0.00    +0.248 C 
ATOM     30  O   UNL     1      21.180  33.314  18.204  0.00  0.00    -0.270 OA
ATOM     31  H   UNL     1      20.331  30.290  17.799  0.00  0.00    +0.155 HD
BRANCH  14  15
ATOM     15  C   UNL     1      21.718  31.974  16.393  0.00  0.00    +0.037 A 
ATOM     16  C   UNL     1      22.868  32.764  15.947  0.00  0.00    +0.013 A 
ATOM     17  C   UNL     1      23.427  32.550  14.635  0.00  0.00    +0.005 A 
ATOM     18  C   UNL     1      22.836  31.541  13.761  0.00  0.00    -0.033 A 
ATOM     28  C   UNL     1      21.698  30.767  14.230  0.00  0.00    +0.005 A 
ATOM     29  C   UNL     1      21.147  30.974  15.515  0.00  0.00    +0.013 A 
BRANCH  18  19
ATOM     19  C   UNL     1      23.354  31.260  12.337  0.00  0.00    +0.119 C 
BRANCH  19  20
ATOM     20  N   UNL     1      23.226  32.360  11.335  0.00  0.00    -0.302 NA
ATOM     21  C   UNL     1      21.771  32.799  11.146  0.00  0.00    +0.066 C 
ATOM     22  C   UNL     1      21.659  33.965  10.111  0.00  0.00    -0.064 C 
ATOM     23  N   UNL     1      22.267  33.521   8.779  0.00  0.00    +0.379 N 
ATOM     24  C   UNL     1      22.110  34.595   7.787  0.00  0.00    -0.096 C 
ATOM     25  H   UNL     1      21.686  32.640   8.420  0.00  0.00    -0.082 HD
ATOM     26  C   UNL     1      23.712  33.080   8.958  0.00  0.00    -0.064 C 
ATOM     27  C   UNL     1      23.817  31.941  10.010  0.00  0.00    +0.066 C 
ENDBRANCH  19  20
ENDBRANCH  18  19
ENDBRANCH  14  15
ENDBRANCH  12  13
TORSDOF 6
ENDMDL
MODEL 2
REMARK VINA RESULT:      -8.9      4.099     12.479
REMARK  Name = C:\Users\Docking\Desktop\test protocol\1iep_ligandH.pdb
REMARK  8 active torsions:
REMARK  status: ('A' for Active; 'I' for Inactive)
REMARK    1  A    between atoms: _5  and  _11
REMARK    2  A    between atoms: _19  and  _21
REMARK    3  A    between atoms: _22  and  _66
REMARK    4  A    between atoms: _27  and  _30
REMARK    5  A    between atoms: _32  and  _33
REMARK    6  A    between atoms: _38  and  _43
REMARK    7  A    between atoms: _43  and  _46
REMARK    8  A    between atoms: _53  and  _55
REMARK                            x       y       z     vdW  Elec       q    Type
REMARK                         _______ _______ _______ _____ _____    ______ ____
ROOT
ATOM     10  C   UNL     1      22.456  30.283  12.574  0.00  0.00    +0.038 A 
ATOM     11  C   UNL     1      21.948  30.297  13.898  0.00  0.00    +0.047 A 
ATOM     12  C   UNL     1      22.334  31.335  14.841  0.00  0.00    +0.035 A 
ATOM     32  C   UNL     1      23.237  32.346  14.401  0.00  0.00    +0.024 A 
ATOM     33  C   UNL     1      23.763  32.347  13.058  0.00  0.00    +0.007 A 
ATOM     34  C   UNL     1      23.388  31.324  12.124  0.00  0.00    -0.029 A 
ATOM     35  C   UNL     1      23.988  31.371  10.700  0.00  0.00    +0.045 C 
ENDROOT
BRANCH  10   9
ATOM      4  C   UNL     1      23.040  25.968  10.555  0.00  0.00    +0.077 A 
ATOM      5  C   UNL     1      24.268  25.739  11.261  0.00  0.00    +0.048 A 
ATOM      6  C   UNL     1      24.719  26.759  12.128  0.00  0.00    +0.116 A 
ATOM      7  N   UNL     1      23.987  27.918  12.271  0.00  0.00    -0.223 NA
ATOM      8  C   UNL     1      22.808  28.108  11.575  0.00  0.00    +0.220 A 
ATOM      9  N   UNL     1      22.052  29.262  11.710  0.00  0.00    -0.283 N 
ATOM     36  H   UNL     1      21.191  29.367  11.174  0.00  0.00    +0.155 HD
ATOM     37  N   UNL     1      22.357  27.149  10.740  0.00  0.00    -0.214 NA
BRANCH   4   3
ATOM      1  C   UNL     1      22.575  23.324   7.710  0.00  0.00    +0.020 A 
ATOM      2  C   UNL     1      23.210  24.266   8.603  0.00  0.00    +0.013 A 
ATOM      3  C   UNL     1      22.432  24.983   9.606  0.00  0.00    +0.019 A 
ATOM     38  C   UNL     1      21.003  24.721   9.680  0.00  0.00    +0.120 A 
ATOM     39  N   UNL     1      20.418  23.810   8.806  0.00  0.00    -0.263 NA
ATOM     40  C   UNL     1      21.156  23.116   7.836  0.00  0.00    +0.111 A 
ENDBRANCH   4   3
ENDBRANCH  10   9
BRANCH  12  13
ATOM     13  N   UNL     1      21.858  31.396  16.201  0.00  0.00    -0.281 N 
ATOM     14  C   UNL     1      20.771  32.100  16.692  0.00  0.00    +0.248 C 
ATOM     30  O   UNL     1      20.166  32.960  16.068  0.00  0.00    -0.270 OA
ATOM     31  H   UNL     1      22.386  30.854  16.884  0.00  0.00    +0.155 HD
BRANCH  14  15
ATOM     15  C   UNL     1      20.295  31.819  18.080  0.00  0.00    +0.037 A 
ATOM     16  C   UNL     1      20.233  32.878  19.091  0.00  0.00    +0.013 A 
ATOM     17  C   UNL     1      19.787  32.576  20.428  0.00  0.00    +0.005 A 
ATOM     18  C   UNL     1      19.397  31.208  20.761  0.00  0.00    -0.033 A 
ATOM     28  C   UNL     1      19.464  30.178  19.738  0.00  0.00    +0.005 A 
ATOM     29  C   UNL     1      19.902  30.470  18.427  0.00  0.00    +0.013 A 
BRANCH  18  19
ATOM     19  C   UNL     1      18.929  30.790  22.168  0.00  0.00    +0.119 C 
BRANCH  19  20
ATOM     20  N   UNL     1      18.919  29.330  22.480  0.00  0.00    -0.302 NA
ATOM     21  C   UNL     1      17.707  28.932  23.328  0.00  0.00    +0.066 C 
ATOM     22  C   UNL     1      17.701  27.398  23.626  0.00  0.00    -0.064 C 
ATOM     23  N   UNL     1      19.003  27.012  24.329  0.00  0.00    +0.379 N 
ATOM     24  C   UNL     1      18.975  25.580  24.662  0.00  0.00    -0.096 C 
ATOM     25  H   UNL     1      19.053  27.581  25.286  0.00  0.00    -0.082 HD
ATOM     26  C   UNL     1      20.213  27.406  23.494  0.00  0.00    -0.064 C 
ATOM     27  C   UNL     1      20.195  28.928  23.178  0.00  0.00    +0.066 C 
ENDBRANCH  19  20
ENDBRANCH  18  19
ENDBRANCH  14  15
ENDBRANCH  12  13
TORSDOF 6
ENDMDL
MODEL 3
REMARK VINA RESULT:      -8.8      2.212      2.995
REMARK  Name = C:\Users\Docking\Desktop\test protocol\1iep_ligandH.pdb
REMARK  8 active torsions:
REMARK  status: ('A' for Active; 'I' for Inactive)
REMARK    1  A    between atoms: _5  and  _11
REMARK    2  A    between atoms: _19  and  _21
REMARK    3  A    between atoms: _22  and  _66
REMARK    4  A    between atoms: _27  and  _30
REMARK    5  A    between atoms: _32  and  _33
REMARK    6  A    between atoms: _38  and  _43
REMARK    7  A    between atoms: _43  and  _46
REMARK    8  A    between atoms: _53  and  _55
REMARK                            x       y       z     vdW  Elec       q    Type
REMARK                         _______ _______ _______ _____ _____    ______ ____
ROOT
ATOM     10  C   UNL     1      19.943  29.928  22.328  0.00  0.00    +0.038 A 
ATOM     11  C   UNL     1      20.237  29.871  20.942  0.00  0.00    +0.047 A 
ATOM     12  C   UNL     1      19.569  30.750  19.994  0.00  0.00    +0.035 A 
ATOM     32  C   UNL     1      18.609  31.678  20.494  0.00  0.00    +0.024 A 
ATOM     33  C   UNL     1      18.298  31.748  21.900  0.00  0.00    +0.007 A 
ATOM     34  C   UNL     1      18.952  30.882  22.839  0.00  0.00    -0.029 A 
ATOM     35  C   UNL     1      18.574  30.997  24.334  0.00  0.00    +0.045 C 
ENDROOT
BRANCH  10   9
ATOM      4  C   UNL     1      20.204  25.894  24.915  0.00  0.00    +0.077 A 
ATOM      5  C   UNL     1      18.881  25.493  24.533  0.00  0.00    +0.048 A 
ATOM      6  C   UNL     1      18.164  26.357  23.675  0.00  0.00    +0.116 A 
ATOM      7  N   UNL     1      18.737  27.531  23.238  0.00  0.00    -0.223 NA
ATOM      8  C   UNL     1      20.015  27.889  23.627  0.00  0.00    +0.220 A 
ATOM      9  N   UNL     1      20.615  29.061  23.193  0.00  0.00    -0.283 N 
ATOM     36  H   UNL     1      21.556  29.293  23.509  0.00  0.00    +0.155 HD
ATOM     37  N   UNL     1      20.720  27.082  24.447  0.00  0.00    -0.214 NA
BRANCH   4   3
ATOM      1  C   UNL     1      23.332  24.155  26.494  0.00  0.00    +0.020 A 
ATOM      2  C   UNL     1      22.523  24.946  25.596  0.00  0.00    +0.013 A 
ATOM      3  C   UNL     1      21.088  25.087  25.814  0.00  0.00    +0.019 A 
ATOM     38  C   UNL     1      20.499  24.409  26.959  0.00  0.00    +0.120 A 
ATOM     39  N   UNL     1      21.303  23.653  27.806  0.00  0.00    -0.263 NA
ATOM     40  C   UNL     1      22.684  23.509  27.606  0.00  0.00    +0.111 A 
ENDBRANCH   4   3
ENDBRANCH  10   9
BRANCH  12  13
ATOM     13  N   UNL     1      19.820  30.733  18.575  0.00  0.00    -0.281 N 
ATOM     14  C   UNL     1      20.560  31.636  17.829  0.00  0.00    +0.248 C 
ATOM     30  O   UNL     1      20.944  32.721  18.240  0.00  0.00    -0.270 OA
ATOM     31  H   UNL     1      19.402  29.960  18.056  0.00  0.00    +0.155 HD
BRANCH  14  15
ATOM     15  C   UNL     1      20.913  31.290  16.419  0.00  0.00    +0.037 A 
ATOM     16  C   UNL     1      22.013  31.963  15.724  0.00  0.00    +0.013 A 
ATOM     17  C   UNL     1      22.322  31.623  14.357  0.00  0.00    +0.005 A 
ATOM     18  C   UNL     1      21.529  30.602  13.677  0.00  0.00    -0.033 A 
ATOM     28  C   UNL     1      20.446  29.946  14.392  0.00  0.00    +0.005 A 
ATOM     29  C   UNL     1      20.140  30.278  15.731  0.00  0.00    +0.013 A 
BRANCH  18  19
ATOM     19  C   UNL     1      21.773  30.190  12.213  0.00  0.00    +0.119 C 
BRANCH  19  20
ATOM     20  N   UNL     1      22.206  28.783  11.962  0.00  0.00    -0.302 NA
ATOM     21  C   UNL     1      23.395  28.711  11.000  0.00  0.00    +0.066 C 
ATOM     22  C   UNL     1      23.848  27.233  10.766  0.00  0.00    -0.064 C 
ATOM     23  N   UNL     1      22.669  26.419  10.231  0.00  0.00    +0.379 N 
ATOM     24  C   UNL     1      23.107  25.043   9.955  0.00  0.00    -0.096 C 
ATOM     25  H   UNL     1      22.355  26.875   9.263  0.00  0.00    -0.082 HD
ATOM     26  C   UNL     1      21.481  26.488  11.180  0.00  0.00    -0.064 C 
ATOM     27  C   UNL     1      21.057  27.962  11.429  0.00  0.00    +0.066 C 
ENDBRANCH  19  20
ENDBRANCH  18  19
ENDBRANCH  14  15
ENDBRANCH  12  13
TORSDOF 6
ENDMDL
MODEL 4
REMARK VINA RESULT:      -8.7      4.415     12.488
REMARK  Name = C:\Users\Docking\Desktop\test protocol\1iep_ligandH.pdb
REMARK  8 active torsions:
REMARK  status: ('A' for Active; 'I' for Inactive)
REMARK    1  A    between atoms: _5  and  _11
REMARK    2  A    between atoms: _19  and  _21
REMARK    3  A    between atoms: _22  and  _66
REMARK    4  A    between atoms: _27  and  _30
REMARK    5  A    between atoms: _32  and  _33
REMARK    6  A    between atoms: _38  and  _43
REMARK    7  A    between atoms: _43  and  _46
REMARK    8  A    between atoms: _53  and  _55
REMARK                            x       y       z     vdW  Elec       q    Type
REMARK                         _______ _______ _______ _____ _____    ______ ____
ROOT
ATOM     10  C   UNL     1      22.423  30.379  12.757  0.00  0.00    +0.038 A 
ATOM     11  C   UNL     1      21.964  30.423  14.099  0.00  0.00    +0.047 A 
ATOM     12  C   UNL     1      22.404  31.466  15.011  0.00  0.00    +0.035 A 
ATOM     32  C   UNL     1      23.311  32.451  14.524  0.00  0.00    +0.024 A 
ATOM     33  C   UNL     1      23.789  32.422  13.164  0.00  0.00    +0.007 A 
ATOM     34  C   UNL     1      23.360  31.394  12.259  0.00  0.00    -0.029 A 
ATOM     35  C   UNL     1      23.909  31.408  10.814  0.00  0.00    +0.045 C 
ENDROOT
BRANCH  10   9
ATOM      4  C   UNL     1      22.893  26.064  10.709  0.00  0.00    +0.077 A 
ATOM      5  C   UNL     1      24.167  25.843  11.330  0.00  0.00    +0.048 A 
ATOM      6  C   UNL     1      24.669  26.867  12.164  0.00  0.00    +0.116 A 
ATOM      7  N   UNL     1      23.943  28.022  12.355  0.00  0.00    -0.223 NA
ATOM      8  C   UNL     1      22.718  28.205  11.740  0.00  0.00    +0.220 A 
ATOM      9  N   UNL     1      21.967  29.355  11.924  0.00  0.00    -0.283 N 
ATOM     36  H   UNL     1      21.072  29.455  11.446  0.00  0.00    +0.155 HD
ATOM     37  N   UNL     1      22.217  27.242  10.938  0.00  0.00    -0.214 NA
BRANCH   4   3
ATOM      1  C   UNL     1      22.203  23.541   7.800  0.00  0.00    +0.020 A 
ATOM      2  C   UNL     1      22.890  24.493   8.642  0.00  0.00    +0.013 A 
ATOM      3  C   UNL     1      22.228  25.075   9.803  0.00  0.00    +0.019 A 
ATOM     38  C   UNL     1      20.860  24.667  10.087  0.00  0.00    +0.120 A 
ATOM     39  N   UNL     1      20.224  23.749   9.258  0.00  0.00    -0.263 NA
ATOM     40  C   UNL     1      20.850  23.185   8.137  0.00  0.00    +0.111 A 
ENDBRANCH   4   3
ENDBRANCH  10   9
BRANCH  12  13
ATOM     13  N   UNL     1      21.978  31.556  16.386  0.00  0.00    -0.281 N 
ATOM     14  C   UNL     1      21.009  32.386  16.925  0.00  0.00    +0.248 C 
ATOM     30  O   UNL     1      20.507  33.334  16.338  0.00  0.00    -0.270 OA
ATOM     31  H   UNL     1      22.449  30.933  17.042  0.00  0.00    +0.155 HD
BRANCH  14  15
ATOM     15  C   UNL     1      20.539  32.137  18.321  0.00  0.00    +0.037 A 
ATOM     16  C   UNL     1      20.282  33.244  19.246  0.00  0.00    +0.013 A 
ATOM     17  C   UNL     1      19.846  32.975  20.593  0.00  0.00    +0.005 A 
ATOM     18  C   UNL     1      19.663  31.591  21.024  0.00  0.00    -0.033 A 
ATOM     28  C   UNL     1      19.920  30.512  20.084  0.00  0.00    +0.005 A 
ATOM     29  C   UNL     1      20.348  30.772  18.763  0.00  0.00    +0.013 A 
BRANCH  18  19
ATOM     19  C   UNL     1      19.221  31.209  22.449  0.00  0.00    +0.119 C 
BRANCH  19  20
ATOM     20  N   UNL     1      18.483  32.243  23.235  0.00  0.00    -0.302 NA
ATOM     21  C   UNL     1      18.949  32.296  24.693  0.00  0.00    +0.066 C 
ATOM     22  C   UNL     1      18.183  33.398  25.495  0.00  0.00    -0.064 C 
ATOM     23  N   UNL     1      16.680  33.129  25.417  0.00  0.00    +0.379 N 
ATOM     24  C   UNL     1      15.960  34.130  26.219  0.00  0.00    -0.096 C 
ATOM     25  H   UNL     1      16.490  32.130  25.874  0.00  0.00    -0.082 HD
ATOM     26  C   UNL     1      16.208  33.072  23.971  0.00  0.00    -0.064 C 
ATOM     27  C   UNL     1      16.996  31.994  23.175  0.00  0.00    +0.066 C 
ENDBRANCH  19  20
ENDBRANCH  18  19
ENDBRANCH  14  15
ENDBRANCH  12  13
TORSDOF 6
ENDMDL
MODEL 5
REMARK VINA RESULT:      -8.5      9.562     12.452
REMARK  Name = C:\Users\Docking\Desktop\test protocol\1iep_ligandH.pdb
REMARK  8 active torsions:
REMARK  status: ('A' for Active; 'I' for Inactive)
REMARK    1  A    between atoms: _5  and  _11
REMARK    2  A    between atoms: _19  and  _21
REMARK    3  A    between atoms: _22  and  _66
REMARK    4  A    between atoms: _27  and  _30
REMARK    5  A    between atoms: _32  and  _33
REMARK    6  A    between atoms: _38  and  _43
REMARK    7  A    between atoms: _43  and  _46
REMARK    8  A    between atoms: _53  and  _55
REMARK                            x       y       z     vdW  Elec       q    Type
REMARK                         _______ _______ _______ _____ _____    ______ ____
ROOT
ATOM     10  C   UNL     1      21.455  34.104  11.017  0.00  0.00    +0.038 A 
ATOM     11  C   UNL     1      21.991  34.755   9.878  0.00  0.00    +0.047 A 
ATOM     12  C   UNL     1      21.964  36.205   9.757  0.00  0.00    +0.035 A 
ATOM     32  C   UNL     1      21.385  36.960  10.818  0.00  0.00    +0.024 A 
ATOM     33  C   UNL     1      20.833  36.314  11.983  0.00  0.00    +0.007 A 
ATOM     34  C   UNL     1      20.855  34.885  12.106  0.00  0.00    -0.029 A 
ATOM     35  C   UNL     1      20.244  34.246  13.375  0.00  0.00    +0.045 C 
ENDROOT
BRANCH  10   9
ATOM      4  C   UNL     1      23.874  29.968  11.301  0.00  0.00    +0.077 A 
ATOM      5  C   UNL     1      25.141  30.641  11.295  0.00  0.00    +0.048 A 
ATOM      6  C   UNL     1      25.127  32.051  11.211  0.00  0.00    +0.116 A 
ATOM      7  N   UNL     1      23.929  32.728  11.138  0.00  0.00    -0.223 NA
ATOM      8  C   UNL     1      22.724  32.049  11.145  0.00  0.00    +0.220 A 
ATOM      9  N   UNL     1      21.507  32.710  11.081  0.00  0.00    -0.283 N 
ATOM     36  H   UNL     1      20.641  32.172  11.081  0.00  0.00    +0.155 HD
ATOM     37  N   UNL     1      22.711  30.702  11.223  0.00  0.00    -0.214 NA
BRANCH   4   3
ATOM      1  C   UNL     1      24.641  26.159  11.753  0.00  0.00    +0.020 A 
ATOM      2  C   UNL     1      24.840  27.589  11.678  0.00  0.00    +0.013 A 
ATOM      3  C   UNL     1      23.724  28.481  11.389  0.00  0.00    +0.019 A 
ATOM     38  C   UNL     1      22.411  27.891  11.180  0.00  0.00    +0.120 A 
ATOM     39  N   UNL     1      22.250  26.511  11.257  0.00  0.00    -0.263 NA
ATOM     40  C   UNL     1      23.317  25.642  11.532  0.00  0.00    +0.111 A 
ENDBRANCH   4   3
ENDBRANCH  10   9
BRANCH  12  13
ATOM     13  N   UNL     1      22.487  36.921   8.620  0.00  0.00    -0.281 N 
ATOM     14  C   UNL     1      23.738  37.500   8.479  0.00  0.00    +0.248 C 
ATOM     30  O   UNL     1      24.526  37.674   9.397  0.00  0.00    -0.270 OA
ATOM     31  H   UNL     1      21.858  37.013   7.822  0.00  0.00    +0.155 HD
BRANCH  14  15
ATOM     15  C   UNL     1      24.170  37.965   7.126  0.00  0.00    +0.037 A 
ATOM     16  C   UNL     1      23.292  37.832   5.960  0.00  0.00    +0.013 A 
ATOM     17  C   UNL     1      23.740  38.273   4.663  0.00  0.00    +0.005 A 
ATOM     18  C   UNL     1      25.074  38.853   4.526  0.00  0.00    -0.033 A 
ATOM     28  C   UNL     1      25.922  38.978   5.700  0.00  0.00    +0.005 A 
ATOM     29  C   UNL     1      25.486  38.546   6.972  0.00  0.00    +0.013 A 
BRANCH  18  19
ATOM     19  C   UNL     1      25.643  39.332   3.177  0.00  0.00    +0.119 C 
BRANCH  19  20
ATOM     20  N   UNL     1      26.091  38.282   2.213  0.00  0.00    -0.302 NA
ATOM     21  C   UNL     1      24.927  37.725   1.388  0.00  0.00    +0.066 C 
ATOM     22  C   UNL     1      25.417  36.645   0.370  0.00  0.00    -0.064 C 
ATOM     23  N   UNL     1      26.131  35.523   1.125  0.00  0.00    +0.379 N 
ATOM     24  C   UNL     1      26.543  34.478   0.176  0.00  0.00    -0.096 C 
ATOM     25  H   UNL     1      25.397  35.070   1.831  0.00  0.00    -0.082 HD
ATOM     26  C   UNL     1      27.288  36.068   1.950  0.00  0.00    -0.064 C 
ATOM     27  C   UNL     1      26.795  37.162   2.938  0.00  0.00    +0.066 C 
ENDBRANCH  19  20
ENDBRANCH  18  19
ENDBRANCH  14  15
ENDBRANCH  12  13
TORSDOF 6
ENDMDL
