MODEL 1
REMARK VINA RESULT:     -11.5      0.000      0.000
REMARK  Name = C:\Users\Docking\Desktop\test protocol\1iep_ligandH.pdb
REMARK  8 active torsions:
REMARK  status: ('A' for Active; 'I' for Inactive)
REMARK    1  A    between atoms: _5  and  _11
REMARK    2  A    between atoms: _19  and  _21
REMARK    3  A    between atoms: _22  and  _66
REMARK    4  A    between atoms: _27  and  _30
REMARK    5  A    between atoms: _32  and  _33
REMARK    6  A    between atoms: _38  and  _43
REMARK    7  A    between atoms: _43  and  _46
REMARK    8  A    between atoms: _53  and  _55
REMARK                            x       y       z     vdW  Elec       q    Type
REMARK                         _______ _______ _______ _____ _____    ______ ____
ROOT
ATOM     10  C   UNL     1      23.493  26.336  36.245  0.00  0.00    +0.038 A 
ATOM     11  C   UNL     1      24.093  26.724  37.470  0.00  0.00    +0.047 A 
ATOM     12  C   UNL     1      25.074  25.876  38.129  0.00  0.00    +0.035 A 
ATOM     32  C   UNL     1      25.423  24.640  37.511  0.00  0.00    +0.024 A 
ATOM     33  C   UNL     1      24.822  24.230  36.266  0.00  0.00    +0.007 A 
ATOM     34  C   UNL     1      23.852  25.061  35.612  0.00  0.00    -0.029 A 
ATOM     35  C   UNL     1      23.236  24.568  34.282  0.00  0.00    +0.045 C 
ENDROOT
BRANCH  10   9
ATOM      4  C   UNL     1      22.195  29.544  32.919  0.00  0.00    +0.077 A 
ATOM      5  C   UNL     1      23.499  29.541  32.322  0.00  0.00    +0.048 A 
ATOM      6  C   UNL     1      24.477  28.705  32.905  0.00  0.00    +0.116 A 
ATOM      7  N   UNL     1      24.164  27.934  34.003  0.00  0.00    -0.223 NA
ATOM      8  C   UNL     1      22.897  27.962  34.556  0.00  0.00    +0.220 A 
ATOM      9  N   UNL     1      22.557  27.189  35.655  0.00  0.00    -0.283 N 
ATOM     36  H   UNL     1      21.614  27.244  36.038  0.00  0.00    +0.155 HD
ATOM     37  N   UNL     1      21.945  28.753  34.018  0.00  0.00    -0.214 NA
BRANCH   4   3
ATOM      1  C   UNL     1      19.424  31.080  30.625  0.00  0.00    +0.020 A 
ATOM      2  C   UNL     1      20.528  30.257  31.061  0.00  0.00    +0.013 A 
ATOM      3  C   UNL     1      21.053  30.372  32.416  0.00  0.00    +0.019 A 
ATOM     38  C   UNL     1      20.433  31.337  33.311  0.00  0.00    +0.120 A 
ATOM     39  N   UNL     1      19.372  32.117  32.863  0.00  0.00    -0.263 NA
ATOM     40  C   UNL     1      18.859  32.016  31.561  0.00  0.00    +0.111 A 
ENDBRANCH   4   3
ENDBRANCH  10   9
BRANCH  12  13
ATOM     13  N   UNL     1      25.710  26.213  39.379  0.00  0.00    -0.281 N 
ATOM     14  C   UNL     1      25.429  25.714  40.640  0.00  0.00    +0.248 C 
ATOM     30  O   UNL     1      24.438  25.055  40.917  0.00  0.00    -0.270 OA
ATOM     31  H   UNL     1      26.459  26.904  39.327  0.00  0.00    +0.155 HD
BRANCH  14  15
ATOM     15  C   UNL     1      26.378  26.000  41.758  0.00  0.00    +0.037 A 
ATOM     16  C   UNL     1      26.465  25.119  42.926  0.00  0.00    +0.013 A 
ATOM     17  C   UNL     1      27.377  25.428  43.998  0.00  0.00    +0.005 A 
ATOM     18  C   UNL     1      28.212  26.623  43.906  0.00  0.00    -0.033 A 
ATOM     28  C   UNL     1      28.110  27.476  42.734  0.00  0.00    +0.005 A 
ATOM     29  C   UNL     1      27.216  27.177  41.681  0.00  0.00    +0.013 A 
BRANCH  18  19
ATOM     19  C   UNL     1      29.199  27.041  45.013  0.00  0.00    +0.119 C 
BRANCH  19  20
ATOM     20  N   UNL     1      30.194  26.022  45.463  0.00  0.00    -0.302 NA
ATOM     21  C   UNL     1      29.576  24.999  46.420  0.00  0.00    +0.066 C 
ATOM     22  C   UNL     1      30.625  23.928  46.863  0.00  0.00    -0.064 C 
ATOM     23  N   UNL     1      31.820  24.627  47.514  0.00  0.00    +0.379 N 
ATOM     24  C   UNL     1      32.782  23.619  47.984  0.00  0.00    -0.096 C 
ATOM     25  H   UNL     1      31.443  25.177  48.407  0.00  0.00    -0.082 HD
ATOM     26  C   UNL     1      32.438  25.647  46.570  0.00  0.00    -0.064 C 
ATOM     27  C   UNL     1      31.380  26.690  46.113  0.00  0.00    +0.066 C 
ENDBRANCH  19  20
ENDBRANCH  18  19
ENDBRANCH  14  15
ENDBRANCH  12  13
TORSDOF 6
ENDMDL
MODEL 2
REMARK VINA RESULT:     -10.0      2.761     13.370
REMARK  Name = C:\Users\Docking\Desktop\test protocol\1iep_ligandH.pdb
REMARK  8 active torsions:
REMARK  status: ('A' for Active; 'I' for Inactive)
REMARK    1  A    between atoms: _5  and  _11
REMARK    2  A    between atoms: _19  and  _21
REMARK    3  A    between atoms: _22  and  _66
REMARK    4  A    between atoms: _27  and  _30
REMARK    5  A    between atoms: _32  and  _33
REMARK    6  A    between atoms: _38  and  _43
REMARK    7  A    between atoms: _43  and  _46
REMARK    8  A    between atoms: _53  and  _55
REMARK                            x       y       z     vdW  Elec       q    Type
REMARK                         _______ _______ _______ _____ _____    ______ ____
ROOT
ATOM     10  C   UNL     1      24.773  25.761  37.164  0.00  0.00    +0.038 A 
ATOM     11  C   UNL     1      24.011  26.912  36.839  0.00  0.00    +0.047 A 
ATOM     12  C   UNL     1      23.057  26.897  35.741  0.00  0.00    +0.035 A 
ATOM     32  C   UNL     1      22.904  25.693  34.995  0.00  0.00    +0.024 A 
ATOM     33  C   UNL     1      23.672  24.514  35.310  0.00  0.00    +0.007 A 
ATOM     34  C   UNL     1      24.616  24.523  36.391  0.00  0.00    -0.029 A 
ATOM     35  C   UNL     1      25.417  23.232  36.680  0.00  0.00    +0.045 C 
ENDROOT
BRANCH  10   9
ATOM      4  C   UNL     1      25.775  26.010  41.851  0.00  0.00    +0.077 A 
ATOM      5  C   UNL     1      24.385  26.030  42.207  0.00  0.00    +0.048 A 
ATOM      6  C   UNL     1      23.445  25.982  41.154  0.00  0.00    +0.116 A 
ATOM      7  N   UNL     1      23.873  25.918  39.846  0.00  0.00    -0.223 NA
ATOM      8  C   UNL     1      25.221  25.902  39.537  0.00  0.00    +0.220 A 
ATOM      9  N   UNL     1      25.674  25.830  38.229  0.00  0.00    -0.283 N 
ATOM     36  H   UNL     1      26.677  25.828  38.042  0.00  0.00    +0.155 HD
ATOM     37  N   UNL     1      26.139  25.949  40.525  0.00  0.00    -0.214 NA
BRANCH   4   3
ATOM      1  C   UNL     1      28.959  27.090  43.850  0.00  0.00    +0.020 A 
ATOM      2  C   UNL     1      27.905  27.096  42.862  0.00  0.00    +0.013 A 
ATOM      3  C   UNL     1      26.888  26.051  42.851  0.00  0.00    +0.019 A 
ATOM     38  C   UNL     1      26.967  25.008  43.863  0.00  0.00    +0.120 A 
ATOM     39  N   UNL     1      27.994  25.028  44.801  0.00  0.00    -0.263 NA
ATOM     40  C   UNL     1      28.979  26.027  44.820  0.00  0.00    +0.111 A 
ENDBRANCH   4   3
ENDBRANCH  10   9
BRANCH  12  13
ATOM     13  N   UNL     1      22.261  28.037  35.360  0.00  0.00    -0.281 N 
ATOM     14  C   UNL     1      22.448  28.885  34.280  0.00  0.00    +0.248 C 
ATOM     30  O   UNL     1      23.459  28.918  33.595  0.00  0.00    -0.270 OA
ATOM     31  H   UNL     1      21.462  28.245  35.959  0.00  0.00    +0.155 HD
BRANCH  14  15
ATOM     15  C   UNL     1      21.360  29.843  33.917  0.00  0.00    +0.037 A 
ATOM     16  C   UNL     1      20.045  29.779  34.560  0.00  0.00    +0.013 A 
ATOM     17  C   UNL     1      19.008  30.705  34.179  0.00  0.00    +0.005 A 
ATOM     18  C   UNL     1      19.284  31.706  33.151  0.00  0.00    -0.033 A 
ATOM     28  C   UNL     1      20.599  31.750  32.533  0.00  0.00    +0.005 A 
ATOM     29  C   UNL     1      21.617  30.844  32.903  0.00  0.00    +0.013 A 
BRANCH  18  19
ATOM     19  C   UNL     1      18.230  32.720  32.667  0.00  0.00    +0.119 C 
BRANCH  19  20
ATOM     20  N   UNL     1      17.818  33.787  33.627  0.00  0.00    -0.302 NA
ATOM     21  C   UNL     1      16.379  34.252  33.385  0.00  0.00    +0.066 C 
ATOM     22  C   UNL     1      15.956  35.353  34.412  0.00  0.00    -0.064 C 
ATOM     23  N   UNL     1      16.928  36.530  34.323  0.00  0.00    +0.379 N 
ATOM     24  C   UNL     1      16.500  37.591  35.246  0.00  0.00    -0.096 C 
ATOM     25  H   UNL     1      16.870  36.939  33.287  0.00  0.00    -0.082 HD
ATOM     26  C   UNL     1      18.362  36.076  34.560  0.00  0.00    -0.064 C 
ATOM     27  C   UNL     1      18.762  34.962  33.553  0.00  0.00    +0.066 C 
ENDBRANCH  19  20
ENDBRANCH  18  19
ENDBRANCH  14  15
ENDBRANCH  12  13
TORSDOF 6
ENDMDL
MODEL 3
REMARK VINA RESULT:      -9.7      6.999     17.260
REMARK  Name = C:\Users\Docking\Desktop\test protocol\1iep_ligandH.pdb
REMARK  8 active torsions:
REMARK  status: ('A' for Active; 'I' for Inactive)
REMARK    1  A    between atoms: _5  and  _11
REMARK    2  A    between atoms: _19  and  _21
REMARK    3  A    between atoms: _22  and  _66
REMARK    4  A    between atoms: _27  and  _30
REMARK    5  A    between atoms: _32  and  _33
REMARK    6  A    between atoms: _38  and  _43
REMARK    7  A    between atoms: _43  and  _46
REMARK    8  A    between atoms: _53  and  _55
REMARK                            x       y       z     vdW  Elec       q    Type
REMARK                         _______ _______ _______ _____ _____    ______ ____
ROOT
ATOM     10  C   UNL     1      20.978  28.706  31.373  0.00  0.00    +0.038 A 
ATOM     11  C   UNL     1      21.301  28.605  29.995  0.00  0.00    +0.047 A 
ATOM     12  C   UNL     1      20.782  29.559  29.028  0.00  0.00    +0.035 A 
ATOM     32  C   UNL     1      19.939  30.608  29.500  0.00  0.00    +0.024 A 
ATOM     33  C   UNL     1      19.600  30.725  30.896  0.00  0.00    +0.007 A 
ATOM     34  C   UNL     1      20.107  29.785  31.854  0.00  0.00    -0.029 A 
ATOM     35  C   UNL     1      19.706  29.956  33.338  0.00  0.00    +0.045 C 
ENDROOT
BRANCH  10   9
ATOM      4  C   UNL     1      24.613  26.808  33.867  0.00  0.00    +0.077 A 
ATOM      5  C   UNL     1      25.549  27.762  33.343  0.00  0.00    +0.048 A 
ATOM      6  C   UNL     1      25.055  28.719  32.429  0.00  0.00    +0.116 A 
ATOM      7  N   UNL     1      23.724  28.715  32.072  0.00  0.00    -0.223 NA
ATOM      8  C   UNL     1      22.849  27.780  32.595  0.00  0.00    +0.220 A 
ATOM      9  N   UNL     1      21.505  27.762  32.257  0.00  0.00    -0.283 N 
ATOM     36  H   UNL     1      20.893  27.052  32.659  0.00  0.00    +0.155 HD
ATOM     37  N   UNL     1      23.296  26.854  33.469  0.00  0.00    -0.214 NA
BRANCH   4   3
ATOM      1  C   UNL     1      26.196  23.623  35.493  0.00  0.00    +0.020 A 
ATOM      2  C   UNL     1      25.872  24.632  34.512  0.00  0.00    +0.013 A 
ATOM      3  C   UNL     1      24.982  25.736  34.845  0.00  0.00    +0.019 A 
ATOM     38  C   UNL     1      24.432  25.791  36.191  0.00  0.00    +0.120 A 
ATOM     39  N   UNL     1      24.761  24.804  37.115  0.00  0.00    -0.263 NA
ATOM     40  C   UNL     1      25.615  23.736  36.805  0.00  0.00    +0.111 A 
ENDBRANCH   4   3
ENDBRANCH  10   9
BRANCH  12  13
ATOM     13  N   UNL     1      21.068  29.502  27.616  0.00  0.00    -0.281 N 
ATOM     14  C   UNL     1      20.927  28.420  26.762  0.00  0.00    +0.248 C 
ATOM     30  O   UNL     1      20.734  27.271  27.129  0.00  0.00    -0.270 OA
ATOM     31  H   UNL     1      21.417  30.363  27.195  0.00  0.00    +0.155 HD
BRANCH  14  15
ATOM     15  C   UNL     1      21.030  28.646  25.288  0.00  0.00    +0.037 A 
ATOM     16  C   UNL     1      20.949  27.531  24.341  0.00  0.00    +0.013 A 
ATOM     17  C   UNL     1      21.068  27.775  22.925  0.00  0.00    +0.005 A 
ATOM     18  C   UNL     1      21.268  29.141  22.448  0.00  0.00    -0.033 A 
ATOM     28  C   UNL     1      21.339  30.229  23.409  0.00  0.00    +0.005 A 
ATOM     29  C   UNL     1      21.224  29.994  24.798  0.00  0.00    +0.013 A 
BRANCH  18  19
ATOM     19  C   UNL     1      21.426  29.491  20.957  0.00  0.00    +0.119 C 
BRANCH  19  20
ATOM     20  N   UNL     1      21.785  30.901  20.620  0.00  0.00    -0.302 NA
ATOM     21  C   UNL     1      20.604  31.665  20.015  0.00  0.00    +0.066 C 
ATOM     22  C   UNL     1      20.991  33.145  19.690  0.00  0.00    -0.064 C 
ATOM     23  N   UNL     1      22.188  33.158  18.738  0.00  0.00    +0.379 N 
ATOM     24  C   UNL     1      22.518  34.547  18.384  0.00  0.00    -0.096 C 
ATOM     25  H   UNL     1      21.883  32.634  17.803  0.00  0.00    -0.082 HD
ATOM     26  C   UNL     1      23.366  32.398  19.330  0.00  0.00    -0.064 C 
ATOM     27  C   UNL     1      22.963  30.937  19.677  0.00  0.00    +0.066 C 
ENDBRANCH  19  20
ENDBRANCH  18  19
ENDBRANCH  14  15
ENDBRANCH  12  13
TORSDOF 6
ENDMDL
