MODEL 1
REMARK VINA RESULT:      -8.4      0.000      0.000
REMARK  Name = C:\Users\Docking\Desktop\test protocol\1iep_ligandH.pdb
REMARK  8 active torsions:
REMARK  status: ('A' for Active; 'I' for Inactive)
REMARK    1  A    between atoms: _5  and  _11
REMARK    2  A    between atoms: _19  and  _21
REMARK    3  A    between atoms: _22  and  _66
REMARK    4  A    between atoms: _27  and  _30
REMARK    5  A    between atoms: _32  and  _33
REMARK    6  A    between atoms: _38  and  _43
REMARK    7  A    between atoms: _43  and  _46
REMARK    8  A    between atoms: _53  and  _55
REMARK                            x       y       z     vdW  Elec       q    Type
REMARK                         _______ _______ _______ _____ _____    ______ ____
ROOT
ATOM     10  C   UNL     1      66.883   5.217  19.715  0.00  0.00    +0.038 A 
ATOM     11  C   UNL     1      66.081   6.230  20.300  0.00  0.00    +0.047 A 
ATOM     12  C   UNL     1      64.647   6.284  20.065  0.00  0.00    +0.035 A 
ATOM     32  C   UNL     1      64.061   5.288  19.230  0.00  0.00    +0.024 A 
ATOM     33  C   UNL     1      64.862   4.252  18.626  0.00  0.00    +0.007 A 
ATOM     34  C   UNL     1      66.277   4.196  18.852  0.00  0.00    -0.029 A 
ATOM     35  C   UNL     1      67.087   3.066  18.174  0.00  0.00    +0.045 C 
ENDROOT
BRANCH  10   9
ATOM      4  C   UNL     1      71.394   6.474  18.660  0.00  0.00    +0.077 A 
ATOM      5  C   UNL     1      70.985   7.175  17.478  0.00  0.00    +0.048 A 
ATOM      6  C   UNL     1      69.605   7.182  17.172  0.00  0.00    +0.116 A 
ATOM      7  N   UNL     1      68.711   6.534  17.996  0.00  0.00    -0.223 NA
ATOM      8  C   UNL     1      69.139   5.866  19.128  0.00  0.00    +0.220 A 
ATOM      9  N   UNL     1      68.256   5.213  19.974  0.00  0.00    -0.283 N 
ATOM     36  H   UNL     1      68.612   4.726  20.796  0.00  0.00    +0.155 HD
ATOM     37  N   UNL     1      70.451   5.843  19.441  0.00  0.00    -0.214 NA
BRANCH   4   3
ATOM      1  C   UNL     1      74.619   5.495  20.646  0.00  0.00    +0.020 A 
ATOM      2  C   UNL     1      73.232   5.552  20.245  0.00  0.00    +0.013 A 
ATOM      3  C   UNL     1      72.816   6.378  19.119  0.00  0.00    +0.019 A 
ATOM     38  C   UNL     1      73.836   7.140  18.414  0.00  0.00    +0.120 A 
ATOM     39  N   UNL     1      75.164   7.066  18.824  0.00  0.00    -0.263 NA
ATOM     40  C   UNL     1      75.576   6.276  19.907  0.00  0.00    +0.111 A 
ENDBRANCH   4   3
ENDBRANCH  10   9
BRANCH  12  13
ATOM     13  N   UNL     1      63.783   7.293  20.626  0.00  0.00    -0.281 N 
ATOM     14  C   UNL     1      62.823   7.140  21.613  0.00  0.00    +0.248 C 
ATOM     30  O   UNL     1      62.411   6.062  22.015  0.00  0.00    -0.270 OA
ATOM     31  H   UNL     1      63.893   8.235  20.249  0.00  0.00    +0.155 HD
BRANCH  14  15
ATOM     15  C   UNL     1      62.223   8.361  22.232  0.00  0.00    +0.037 A 
ATOM     16  C   UNL     1      61.622   8.318  23.567  0.00  0.00    +0.013 A 
ATOM     17  C   UNL     1      61.035   9.506  24.135  0.00  0.00    +0.005 A 
ATOM     18  C   UNL     1      61.049  10.749  23.366  0.00  0.00    -0.033 A 
ATOM     28  C   UNL     1      61.657  10.764  22.046  0.00  0.00    +0.005 A 
ATOM     29  C   UNL     1      62.232   9.602  21.487  0.00  0.00    +0.013 A 
BRANCH  18  19
ATOM     19  C   UNL     1      60.427  12.059  23.884  0.00  0.00    +0.119 C 
BRANCH  19  20
ATOM     20  N   UNL     1      61.364  13.167  24.238  0.00  0.00    -0.302 NA
ATOM     21  C   UNL     1      60.929  13.904  25.508  0.00  0.00    +0.066 C 
ATOM     22  C   UNL     1      61.932  15.045  25.877  0.00  0.00    -0.064 C 
ATOM     23  N   UNL     1      62.048  16.016  24.701  0.00  0.00    +0.379 N 
ATOM     24  C   UNL     1      62.946  17.122  25.065  0.00  0.00    -0.096 C 
ATOM     25  H   UNL     1      61.037  16.448  24.517  0.00  0.00    -0.082 HD
ATOM     26  C   UNL     1      62.478  15.292  23.433  0.00  0.00    -0.064 C 
ATOM     27  C   UNL     1      61.490  14.141  23.092  0.00  0.00    +0.066 C 
ENDBRANCH  19  20
ENDBRANCH  18  19
ENDBRANCH  14  15
ENDBRANCH  12  13
TORSDOF 6
ENDMDL
MODEL 2
REMARK VINA RESULT:      -8.3      2.096      3.242
REMARK  Name = C:\Users\Docking\Desktop\test protocol\1iep_ligandH.pdb
REMARK  8 active torsions:
REMARK  status: ('A' for Active; 'I' for Inactive)
REMARK    1  A    between atoms: _5  and  _11
REMARK    2  A    between atoms: _19  and  _21
REMARK    3  A    between atoms: _22  and  _66
REMARK    4  A    between atoms: _27  and  _30
REMARK    5  A    between atoms: _32  and  _33
REMARK    6  A    between atoms: _38  and  _43
REMARK    7  A    between atoms: _43  and  _46
REMARK    8  A    between atoms: _53  and  _55
REMARK                            x       y       z     vdW  Elec       q    Type
REMARK                         _______ _______ _______ _____ _____    ______ ____
ROOT
ATOM     10  C   UNL     1      66.665   5.272  19.868  0.00  0.00    +0.038 A 
ATOM     11  C   UNL     1      65.845   6.236  20.509  0.00  0.00    +0.047 A 
ATOM     12  C   UNL     1      64.405   6.254  20.304  0.00  0.00    +0.035 A 
ATOM     32  C   UNL     1      63.832   5.274  19.441  0.00  0.00    +0.024 A 
ATOM     33  C   UNL     1      64.651   4.288  18.781  0.00  0.00    +0.007 A 
ATOM     34  C   UNL     1      66.073   4.266  18.977  0.00  0.00    -0.029 A 
ATOM     35  C   UNL     1      66.902   3.190  18.239  0.00  0.00    +0.045 C 
ENDROOT
BRANCH  10   9
ATOM      4  C   UNL     1      71.137   6.526  18.657  0.00  0.00    +0.077 A 
ATOM      5  C   UNL     1      70.696   7.154  17.445  0.00  0.00    +0.048 A 
ATOM      6  C   UNL     1      69.311   7.126  17.167  0.00  0.00    +0.116 A 
ATOM      7  N   UNL     1      68.441   6.514  18.042  0.00  0.00    -0.223 NA
ATOM      8  C   UNL     1      68.899   5.915  19.202  0.00  0.00    +0.220 A 
ATOM      9  N   UNL     1      68.042   5.300  20.100  0.00  0.00    -0.283 N 
ATOM     36  H   UNL     1      68.420   4.864  20.941  0.00  0.00    +0.155 HD
ATOM     37  N   UNL     1      70.218   5.927  19.489  0.00  0.00    -0.214 NA
BRANCH   4   3
ATOM      1  C   UNL     1      74.408   5.725  20.647  0.00  0.00    +0.020 A 
ATOM      2  C   UNL     1      73.013   5.743  20.271  0.00  0.00    +0.013 A 
ATOM      3  C   UNL     1      72.569   6.475  19.092  0.00  0.00    +0.019 A 
ATOM     38  C   UNL     1      73.569   7.183  18.307  0.00  0.00    +0.120 A 
ATOM     39  N   UNL     1      74.905   7.149  18.695  0.00  0.00    -0.263 NA
ATOM     40  C   UNL     1      75.344   6.450  19.829  0.00  0.00    +0.111 A 
ENDBRANCH   4   3
ENDBRANCH  10   9
BRANCH  12  13
ATOM     13  N   UNL     1      63.523   7.213  20.921  0.00  0.00    -0.281 N 
ATOM     14  C   UNL     1      62.508   6.973  21.833  0.00  0.00    +0.248 C 
ATOM     30  O   UNL     1      62.063   5.866  22.096  0.00  0.00    -0.270 OA
ATOM     31  H   UNL     1      63.663   8.187  20.653  0.00  0.00    +0.155 HD
BRANCH  14  15
ATOM     15  C   UNL     1      61.889   8.132  22.546  0.00  0.00    +0.037 A 
ATOM     16  C   UNL     1      61.791   9.450  21.912  0.00  0.00    +0.013 A 
ATOM     17  C   UNL     1      61.205  10.555  22.628  0.00  0.00    +0.005 A 
ATOM     18  C   UNL     1      60.709  10.346  23.986  0.00  0.00    -0.033 A 
ATOM     28  C   UNL     1      60.813   9.027  24.589  0.00  0.00    +0.005 A 
ATOM     29  C   UNL     1      61.389   7.942  23.890  0.00  0.00    +0.013 A 
BRANCH  18  19
ATOM     19  C   UNL     1      60.087  11.473  24.832  0.00  0.00    +0.119 C 
BRANCH  19  20
ATOM     20  N   UNL     1      58.622  11.391  25.109  0.00  0.00    -0.302 NA
ATOM     21  C   UNL     1      58.322  10.624  26.400  0.00  0.00    +0.066 C 
ATOM     22  C   UNL     1      56.786  10.568  26.685  0.00  0.00    -0.064 C 
ATOM     23  N   UNL     1      56.072   9.925  25.495  0.00  0.00    +0.379 N 
ATOM     24  C   UNL     1      54.635   9.819  25.784  0.00  0.00    -0.096 C 
ATOM     25  H   UNL     1      56.472   8.891  25.379  0.00  0.00    -0.082 HD
ATOM     26  C   UNL     1      56.367  10.680  24.206  0.00  0.00    -0.064 C 
ATOM     27  C   UNL     1      57.898  10.756  23.948  0.00  0.00    +0.066 C 
ENDBRANCH  19  20
ENDBRANCH  18  19
ENDBRANCH  14  15
ENDBRANCH  12  13
TORSDOF 6
ENDMDL
MODEL 3
REMARK VINA RESULT:      -8.0      2.201     12.151
REMARK  Name = C:\Users\Docking\Desktop\test protocol\1iep_ligandH.pdb
REMARK  8 active torsions:
REMARK  status: ('A' for Active; 'I' for Inactive)
REMARK    1  A    between atoms: _5  and  _11
REMARK    2  A    between atoms: _19  and  _21
REMARK    3  A    between atoms: _22  and  _66
REMARK    4  A    between atoms: _27  and  _30
REMARK    5  A    between atoms: _32  and  _33
REMARK    6  A    between atoms: _38  and  _43
REMARK    7  A    between atoms: _43  and  _46
REMARK    8  A    between atoms: _53  and  _55
REMARK                            x       y       z     vdW  Elec       q    Type
REMARK                         _______ _______ _______ _____ _____    ______ ____
ROOT
ATOM     10  C   UNL     1      60.403  12.386  24.722  0.00  0.00    +0.038 A 
ATOM     11  C   UNL     1      61.061  11.506  23.825  0.00  0.00    +0.047 A 
ATOM     12  C   UNL     1      60.967  10.063  23.980  0.00  0.00    +0.035 A 
ATOM     32  C   UNL     1      60.192   9.549  25.060  0.00  0.00    +0.024 A 
ATOM     33  C   UNL     1      59.518  10.428  25.983  0.00  0.00    +0.007 A 
ATOM     34  C   UNL     1      59.609  11.853  25.836  0.00  0.00    -0.029 A 
ATOM     35  C   UNL     1      58.871  12.748  26.859  0.00  0.00    +0.045 C 
ENDROOT
BRANCH  10   9
ATOM      4  C   UNL     1      62.723  16.549  25.287  0.00  0.00    +0.077 A 
ATOM      5  C   UNL     1      63.762  15.934  26.062  0.00  0.00    +0.048 A 
ATOM      6  C   UNL     1      63.658  14.544  26.299  0.00  0.00    +0.116 A 
ATOM      7  N   UNL     1      62.591  13.834  25.793  0.00  0.00    -0.223 NA
ATOM      8  C   UNL     1      61.605  14.459  25.051  0.00  0.00    +0.220 A 
ATOM      9  N   UNL     1      60.528  13.763  24.526  0.00  0.00    -0.283 N 
ATOM     36  H   UNL     1      59.818  14.262  23.990  0.00  0.00    +0.155 HD
ATOM     37  N   UNL     1      61.681  15.785  24.812  0.00  0.00    -0.214 NA
BRANCH   4   3
ATOM      1  C   UNL     1      62.730  20.450  25.580  0.00  0.00    +0.020 A 
ATOM      2  C   UNL     1      62.761  19.056  25.959  0.00  0.00    +0.013 A 
ATOM      3  C   UNL     1      62.694  18.008  24.949  0.00  0.00    +0.019 A 
ATOM     38  C   UNL     1      62.594  18.406  23.553  0.00  0.00    +0.120 A 
ATOM     39  N   UNL     1      62.564  19.756  23.218  0.00  0.00    -0.263 NA
ATOM     40  C   UNL     1      62.627  20.774  24.181  0.00  0.00    +0.111 A 
ENDBRANCH   4   3
ENDBRANCH  10   9
BRANCH  12  13
ATOM     13  N   UNL     1      61.619   9.121  23.104  0.00  0.00    -0.281 N 
ATOM     14  C   UNL     1      61.438   8.960  21.740  0.00  0.00    +0.248 C 
ATOM     30  O   UNL     1      60.526   9.462  21.100  0.00  0.00    -0.270 OA
ATOM     31  H   UNL     1      62.297   8.498  23.543  0.00  0.00    +0.155 HD
BRANCH  14  15
ATOM     15  C   UNL     1      62.402   8.108  20.980  0.00  0.00    +0.037 A 
ATOM     16  C   UNL     1      62.981   8.560  19.712  0.00  0.00    +0.013 A 
ATOM     17  C   UNL     1      63.895   7.710  18.991  0.00  0.00    +0.005 A 
ATOM     18  C   UNL     1      64.236   6.399  19.536  0.00  0.00    -0.033 A 
ATOM     28  C   UNL     1      63.652   5.978  20.799  0.00  0.00    +0.005 A 
ATOM     29  C   UNL     1      62.755   6.807  21.508  0.00  0.00    +0.013 A 
BRANCH  18  19
ATOM     19  C   UNL     1      65.186   5.418  18.824  0.00  0.00    +0.119 C 
BRANCH  19  20
ATOM     20  N   UNL     1      66.564   5.903  18.514  0.00  0.00    -0.302 NA
ATOM     21  C   UNL     1      67.509   4.755  18.149  0.00  0.00    +0.066 C 
ATOM     22  C   UNL     1      68.940   5.283  17.807  0.00  0.00    -0.064 C 
ATOM     23  N   UNL     1      69.486   6.076  18.995  0.00  0.00    +0.379 N 
ATOM     24  C   UNL     1      70.855   6.525  18.699  0.00  0.00    -0.096 C 
ATOM     25  H   UNL     1      69.538   5.385  19.868  0.00  0.00    -0.082 HD
ATOM     26  C   UNL     1      68.551   7.219  19.367  0.00  0.00    -0.064 C 
ATOM     27  C   UNL     1      67.124   6.686  19.677  0.00  0.00    +0.066 C 
ENDBRANCH  19  20
ENDBRANCH  18  19
ENDBRANCH  14  15
ENDBRANCH  12  13
TORSDOF 6
ENDMDL
MODEL 4
REMARK VINA RESULT:      -7.9      3.600     12.512
REMARK  Name = C:\Users\Docking\Desktop\test protocol\1iep_ligandH.pdb
REMARK  8 active torsions:
REMARK  status: ('A' for Active; 'I' for Inactive)
REMARK    1  A    between atoms: _5  and  _11
REMARK    2  A    between atoms: _19  and  _21
REMARK    3  A    between atoms: _22  and  _66
REMARK    4  A    between atoms: _27  and  _30
REMARK    5  A    between atoms: _32  and  _33
REMARK    6  A    between atoms: _38  and  _43
REMARK    7  A    between atoms: _43  and  _46
REMARK    8  A    between atoms: _53  and  _55
REMARK                            x       y       z     vdW  Elec       q    Type
REMARK                         _______ _______ _______ _____ _____    ______ ____
ROOT
ATOM     10  C   UNL     1      60.924  12.192  23.999  0.00  0.00    +0.038 A 
ATOM     11  C   UNL     1      61.723  11.352  23.181  0.00  0.00    +0.047 A 
ATOM     12  C   UNL     1      61.670   9.904  23.310  0.00  0.00    +0.035 A 
ATOM     32  C   UNL     1      60.789   9.344  24.280  0.00  0.00    +0.024 A 
ATOM     33  C   UNL     1      59.970  10.183  25.120  0.00  0.00    +0.007 A 
ATOM     34  C   UNL     1      60.020  11.612  24.999  0.00  0.00    -0.029 A 
ATOM     35  C   UNL     1      59.125  12.462  25.931  0.00  0.00    +0.045 C 
ENDROOT
BRANCH  10   9
ATOM      4  C   UNL     1      62.811  16.470  25.082  0.00  0.00    +0.077 A 
ATOM      5  C   UNL     1      63.669  15.904  26.083  0.00  0.00    +0.048 A 
ATOM      6  C   UNL     1      63.589  14.509  26.293  0.00  0.00    +0.116 A 
ATOM      7  N   UNL     1      62.713  13.746  25.552  0.00  0.00    -0.223 NA
ATOM      8  C   UNL     1      61.898  14.324  24.595  0.00  0.00    +0.220 A 
ATOM      9  N   UNL     1      61.015  13.575  23.832  0.00  0.00    -0.283 N 
ATOM     36  H   UNL     1      60.426  14.040  23.142  0.00  0.00    +0.155 HD
ATOM     37  N   UNL     1      61.955  15.654  24.377  0.00  0.00    -0.214 NA
BRANCH   4   3
ATOM      1  C   UNL     1      62.763  20.370  25.371  0.00  0.00    +0.020 A 
ATOM      2  C   UNL     1      62.791  18.977  25.753  0.00  0.00    +0.013 A 
ATOM      3  C   UNL     1      62.782  17.927  24.742  0.00  0.00    +0.019 A 
ATOM     38  C   UNL     1      62.745  18.324  23.342  0.00  0.00    +0.120 A 
ATOM     39  N   UNL     1      62.717  19.673  23.005  0.00  0.00    -0.263 NA
ATOM     40  C   UNL     1      62.723  20.692  23.969  0.00  0.00    +0.111 A 
ENDBRANCH   4   3
ENDBRANCH  10   9
BRANCH  12  13
ATOM     13  N   UNL     1      62.464   9.002  22.513  0.00  0.00    -0.281 N 
ATOM     14  C   UNL     1      62.334   8.718  21.164  0.00  0.00    +0.248 C 
ATOM     30  O   UNL     1      61.374   9.040  20.479  0.00  0.00    -0.270 OA
ATOM     31  H   UNL     1      63.212   8.513  23.004  0.00  0.00    +0.155 HD
BRANCH  14  15
ATOM     15  C   UNL     1      63.422   7.956  20.478  0.00  0.00    +0.037 A 
ATOM     16  C   UNL     1      64.178   6.915  21.179  0.00  0.00    +0.013 A 
ATOM     17  C   UNL     1      65.233   6.206  20.500  0.00  0.00    +0.005 A 
ATOM     18  C   UNL     1      65.537   6.535  19.109  0.00  0.00    -0.033 A 
ATOM     28  C   UNL     1      64.768   7.568  18.436  0.00  0.00    +0.005 A 
ATOM     29  C   UNL     1      63.733   8.266  19.099  0.00  0.00    +0.013 A 
BRANCH  18  19
ATOM     19  C   UNL     1      66.660   5.845  18.313  0.00  0.00    +0.119 C 
BRANCH  19  20
ATOM     20  N   UNL     1      66.686   4.352  18.321  0.00  0.00    -0.302 NA
ATOM     21  C   UNL     1      67.824   3.792  17.463  0.00  0.00    +0.066 C 
ATOM     22  C   UNL     1      67.850   2.229  17.501  0.00  0.00    -0.064 C 
ATOM     23  N   UNL     1      66.500   1.688  17.030  0.00  0.00    +0.379 N 
ATOM     24  C   UNL     1      66.540   0.218  17.010  0.00  0.00    -0.096 C 
ATOM     25  H   UNL     1      66.342   2.036  15.983  0.00  0.00    -0.082 HD
ATOM     26  C   UNL     1      65.362   2.241  17.876  0.00  0.00    -0.064 C 
ATOM     27  C   UNL     1      65.363   3.796  17.855  0.00  0.00    +0.066 C 
ENDBRANCH  19  20
ENDBRANCH  18  19
ENDBRANCH  14  15
ENDBRANCH  12  13
TORSDOF 6
ENDMDL
MODEL 5
REMARK VINA RESULT:      -7.9      3.485     12.207
REMARK  Name = C:\Users\Docking\Desktop\test protocol\1iep_ligandH.pdb
REMARK  8 active torsions:
REMARK  status: ('A' for Active; 'I' for Inactive)
REMARK    1  A    between atoms: _5  and  _11
REMARK    2  A    between atoms: _19  and  _21
REMARK    3  A    between atoms: _22  and  _66
REMARK    4  A    between atoms: _27  and  _30
REMARK    5  A    between atoms: _32  and  _33
REMARK    6  A    between atoms: _38  and  _43
REMARK    7  A    between atoms: _43  and  _46
REMARK    8  A    between atoms: _53  and  _55
REMARK                            x       y       z     vdW  Elec       q    Type
REMARK                         _______ _______ _______ _____ _____    ______ ____
ROOT
ATOM     10  C   UNL     1      61.074  11.357  23.522  0.00  0.00    +0.038 A 
ATOM     11  C   UNL     1      61.900  10.379  22.911  0.00  0.00    +0.047 A 
ATOM     12  C   UNL     1      61.834   8.982  23.312  0.00  0.00    +0.035 A 
ATOM     32  C   UNL     1      60.915   8.617  24.338  0.00  0.00    +0.024 A 
ATOM     33  C   UNL     1      60.069   9.598  24.970  0.00  0.00    +0.007 A 
ATOM     34  C   UNL     1      60.131  10.978  24.580  0.00  0.00    -0.029 A 
ATOM     35  C   UNL     1      59.206  11.988  25.297  0.00  0.00    +0.045 C 
ENDROOT
BRANCH  10   9
ATOM      4  C   UNL     1      62.755  15.830  23.983  0.00  0.00    +0.077 A 
ATOM      5  C   UNL     1      63.464  15.502  25.186  0.00  0.00    +0.048 A 
ATOM      6  C   UNL     1      63.365  14.174  25.657  0.00  0.00    +0.116 A 
ATOM      7  N   UNL     1      62.610  13.250  24.967  0.00  0.00    -0.223 NA
ATOM      8  C   UNL     1      61.937  13.599  23.811  0.00  0.00    +0.220 A 
ATOM      9  N   UNL     1      61.178  12.684  23.097  0.00  0.00    -0.283 N 
ATOM     36  H   UNL     1      60.691  12.983  22.253  0.00  0.00    +0.155 HD
ATOM     37  N   UNL     1      62.015  14.862  23.342  0.00  0.00    -0.214 NA
BRANCH   4   3
ATOM      1  C   UNL     1      62.443  19.691  23.441  0.00  0.00    +0.020 A 
ATOM      2  C   UNL     1      62.417  18.401  24.091  0.00  0.00    +0.013 A 
ATOM      3  C   UNL     1      62.765  17.190  23.358  0.00  0.00    +0.019 A 
ATOM     38  C   UNL     1      63.137  17.320  21.958  0.00  0.00    +0.120 A 
ATOM     39  N   UNL     1      63.152  18.575  21.357  0.00  0.00    -0.263 NA
ATOM     40  C   UNL     1      62.818  19.747  22.052  0.00  0.00    +0.111 A 
ENDBRANCH   4   3
ENDBRANCH  10   9
BRANCH  12  13
ATOM     13  N   UNL     1      62.653   7.946  22.733  0.00  0.00    -0.281 N 
ATOM     14  C   UNL     1      62.307   7.039  21.745  0.00  0.00    +0.248 C 
ATOM     30  O   UNL     1      61.165   6.843  21.357  0.00  0.00    -0.270 OA
ATOM     31  H   UNL     1      63.604   7.872  23.096  0.00  0.00    +0.155 HD
BRANCH  14  15
ATOM     15  C   UNL     1      63.383   6.222  21.105  0.00  0.00    +0.037 A 
ATOM     16  C   UNL     1      63.125   4.857  20.640  0.00  0.00    +0.013 A 
ATOM     17  C   UNL     1      64.185   4.085  20.042  0.00  0.00    +0.005 A 
ATOM     18  C   UNL     1      65.513   4.678  19.904  0.00  0.00    -0.033 A 
ATOM     28  C   UNL     1      65.740   6.036  20.370  0.00  0.00    +0.005 A 
ATOM     29  C   UNL     1      64.703   6.796  20.957  0.00  0.00    +0.013 A 
BRANCH  18  19
ATOM     19  C   UNL     1      66.709   3.920  19.297  0.00  0.00    +0.119 C 
BRANCH  19  20
ATOM     20  N   UNL     1      66.769   3.818  17.809  0.00  0.00    -0.302 NA
ATOM     21  C   UNL     1      66.320   2.442  17.308  0.00  0.00    +0.066 C 
ATOM     22  C   UNL     1      66.368   2.360  15.748  0.00  0.00    -0.064 C 
ATOM     23  N   UNL     1      67.786   2.675  15.267  0.00  0.00    +0.379 N 
ATOM     24  C   UNL     1      67.848   2.542  13.804  0.00  0.00    -0.096 C 
ATOM     25  H   UNL     1      68.469   1.911  15.706  0.00  0.00    -0.082 HD
ATOM     26  C   UNL     1      68.241   4.040  15.762  0.00  0.00    -0.064 C 
ATOM     27  C   UNL     1      68.162   4.121  17.312  0.00  0.00    +0.066 C 
ENDBRANCH  19  20
ENDBRANCH  18  19
ENDBRANCH  14  15
ENDBRANCH  12  13
TORSDOF 6
ENDMDL
