MODEL 1
REMARK VINA RESULT:      -7.5      0.000      0.000
REMARK  Name = C:\Users\Docking\Desktop\test protocol\1iep_ligandH.pdb
REMARK  8 active torsions:
REMARK  status: ('A' for Active; 'I' for Inactive)
REMARK    1  A    between atoms: _5  and  _11
REMARK    2  A    between atoms: _19  and  _21
REMARK    3  A    between atoms: _22  and  _66
REMARK    4  A    between atoms: _27  and  _30
REMARK    5  A    between atoms: _32  and  _33
REMARK    6  A    between atoms: _38  and  _43
REMARK    7  A    between atoms: _43  and  _46
REMARK    8  A    between atoms: _53  and  _55
REMARK                            x       y       z     vdW  Elec       q    Type
REMARK                         _______ _______ _______ _____ _____    ______ ____
ROOT
ATOM     10  C   UNL     1      12.913  23.322   7.893  0.00  0.00    +0.038 A 
ATOM     11  C   UNL     1      14.199  23.564   7.347  0.00  0.00    +0.047 A 
ATOM     12  C   UNL     1      15.399  23.051   7.990  0.00  0.00    +0.035 A 
ATOM     32  C   UNL     1      15.251  22.292   9.187  0.00  0.00    +0.024 A 
ATOM     33  C   UNL     1      13.951  22.037   9.757  0.00  0.00    +0.007 A 
ATOM     34  C   UNL     1      12.764  22.543   9.128  0.00  0.00    -0.029 A 
ATOM     35  C   UNL     1      11.397  22.244   9.786  0.00  0.00    +0.045 C 
ENDROOT
BRANCH  10   9
ATOM      4  C   UNL     1       9.666  26.775   7.137  0.00  0.00    +0.077 A 
ATOM      5  C   UNL     1      10.228  27.609   8.161  0.00  0.00    +0.048 A 
ATOM      6  C   UNL     1      11.347  27.109   8.863  0.00  0.00    +0.116 A 
ATOM      7  N   UNL     1      11.859  25.867   8.556  0.00  0.00    -0.223 NA
ATOM      8  C   UNL     1      11.292  25.088   7.564  0.00  0.00    +0.220 A 
ATOM      9  N   UNL     1      11.795  23.839   7.234  0.00  0.00    -0.283 N 
ATOM     36  H   UNL     1      11.345  23.292   6.501  0.00  0.00    +0.155 HD
ATOM     37  N   UNL     1      10.222  25.542   6.880  0.00  0.00    -0.214 NA
BRANCH   4   3
ATOM      1  C   UNL     1       6.395  28.515   5.881  0.00  0.00    +0.020 A 
ATOM      2  C   UNL     1       7.520  28.175   6.723  0.00  0.00    +0.013 A 
ATOM      3  C   UNL     1       8.484  27.165   6.305  0.00  0.00    +0.019 A 
ATOM     38  C   UNL     1       8.281  26.514   5.020  0.00  0.00    +0.120 A 
ATOM     39  N   UNL     1       7.188  26.861   4.232  0.00  0.00    -0.263 NA
ATOM     40  C   UNL     1       6.253  27.830   4.624  0.00  0.00    +0.111 A 
ENDBRANCH   4   3
ENDBRANCH  10   9
BRANCH  12  13
ATOM     13  N   UNL     1      16.732  23.271   7.487  0.00  0.00    -0.281 N 
ATOM     14  C   UNL     1      17.384  22.586   6.475  0.00  0.00    +0.248 C 
ATOM     30  O   UNL     1      16.996  21.533   5.991  0.00  0.00    -0.270 OA
ATOM     31  H   UNL     1      17.258  24.024   7.930  0.00  0.00    +0.155 HD
BRANCH  14  15
ATOM     15  C   UNL     1      18.661  23.143   5.932  0.00  0.00    +0.037 A 
ATOM     16  C   UNL     1      18.694  24.437   5.246  0.00  0.00    +0.013 A 
ATOM     17  C   UNL     1      19.935  24.944   4.717  0.00  0.00    +0.005 A 
ATOM     18  C   UNL     1      21.155  24.155   4.874  0.00  0.00    -0.033 A 
ATOM     28  C   UNL     1      21.095  22.877   5.563  0.00  0.00    +0.005 A 
ATOM     29  C   UNL     1      19.879  22.377   6.082  0.00  0.00    +0.013 A 
BRANCH  18  19
ATOM     19  C   UNL     1      22.520  24.608   4.322  0.00  0.00    +0.119 C 
BRANCH  19  20
ATOM     20  N   UNL     1      22.772  24.399   2.865  0.00  0.00    -0.302 NA
ATOM     21  C   UNL     1      23.866  23.356   2.615  0.00  0.00    +0.066 C 
ATOM     22  C   UNL     1      24.101  23.134   1.086  0.00  0.00    -0.064 C 
ATOM     23  N   UNL     1      24.463  24.467   0.429  0.00  0.00    +0.379 N 
ATOM     24  C   UNL     1      24.742  24.251  -0.998  0.00  0.00    -0.096 C 
ATOM     25  H   UNL     1      25.402  24.834   0.905  0.00  0.00    -0.082 HD
ATOM     26  C   UNL     1      23.383  25.510   0.675  0.00  0.00    -0.064 C 
ATOM     27  C   UNL     1      23.136  25.702   2.198  0.00  0.00    +0.066 C 
ENDBRANCH  19  20
ENDBRANCH  18  19
ENDBRANCH  14  15
ENDBRANCH  12  13
TORSDOF 6
ENDMDL
MODEL 2
REMARK VINA RESULT:      -7.5      3.889     12.368
REMARK  Name = C:\Users\Docking\Desktop\test protocol\1iep_ligandH.pdb
REMARK  8 active torsions:
REMARK  status: ('A' for Active; 'I' for Inactive)
REMARK    1  A    between atoms: _5  and  _11
REMARK    2  A    between atoms: _19  and  _21
REMARK    3  A    between atoms: _22  and  _66
REMARK    4  A    between atoms: _27  and  _30
REMARK    5  A    between atoms: _32  and  _33
REMARK    6  A    between atoms: _38  and  _43
REMARK    7  A    between atoms: _43  and  _46
REMARK    8  A    between atoms: _53  and  _55
REMARK                            x       y       z     vdW  Elec       q    Type
REMARK                         _______ _______ _______ _____ _____    ______ ____
ROOT
ATOM     10  C   UNL     1      20.672  25.697   3.474  0.00  0.00    +0.038 A 
ATOM     11  C   UNL     1      19.452  25.446   4.151  0.00  0.00    +0.047 A 
ATOM     12  C   UNL     1      18.803  24.147   4.077  0.00  0.00    +0.035 A 
ATOM     32  C   UNL     1      19.426  23.124   3.304  0.00  0.00    +0.024 A 
ATOM     33  C   UNL     1      20.666  23.362   2.608  0.00  0.00    +0.007 A 
ATOM     34  C   UNL     1      21.310  24.643   2.676  0.00  0.00    -0.029 A 
ATOM     35  C   UNL     1      22.635  24.843   1.904  0.00  0.00    +0.045 C 
ENDROOT
BRANCH  10   9
ATOM      4  C   UNL     1      21.655  30.062   1.736  0.00  0.00    +0.077 A 
ATOM      5  C   UNL     1      20.980  29.787   0.501  0.00  0.00    +0.048 A 
ATOM      6  C   UNL     1      20.399  28.508   0.349  0.00  0.00    +0.116 A 
ATOM      7  N   UNL     1      20.493  27.581   1.365  0.00  0.00    -0.223 NA
ATOM      8  C   UNL     1      21.153  27.878   2.543  0.00  0.00    +0.220 A 
ATOM      9  N   UNL     1      21.252  26.963   3.580  0.00  0.00    -0.283 N 
ATOM     36  H   UNL     1      21.754  27.218   4.431  0.00  0.00    +0.155 HD
ATOM     37  N   UNL     1      21.717  29.092   2.711  0.00  0.00    -0.214 NA
BRANCH   4   3
ATOM      1  C   UNL     1      23.945  33.227   1.540  0.00  0.00    +0.020 A 
ATOM      2  C   UNL     1      23.338  31.963   1.194  0.00  0.00    +0.013 A 
ATOM      3  C   UNL     1      22.317  31.369   2.047  0.00  0.00    +0.019 A 
ATOM     38  C   UNL     1      21.928  32.086   3.252  0.00  0.00    +0.120 A 
ATOM     39  N   UNL     1      22.531  33.302   3.560  0.00  0.00    -0.263 NA
ATOM     40  C   UNL     1      23.516  33.882   2.748  0.00  0.00    +0.111 A 
ENDBRANCH   4   3
ENDBRANCH  10   9
BRANCH  12  13
ATOM     13  N   UNL     1      17.559  23.836   4.737  0.00  0.00    -0.281 N 
ATOM     14  C   UNL     1      17.377  23.208   5.958  0.00  0.00    +0.248 C 
ATOM     30  O   UNL     1      18.257  22.622   6.572  0.00  0.00    -0.270 OA
ATOM     31  H   UNL     1      16.710  24.114   4.244  0.00  0.00    +0.155 HD
BRANCH  14  15
ATOM     15  C   UNL     1      16.018  23.218   6.579  0.00  0.00    +0.037 A 
ATOM     16  C   UNL     1      14.834  23.616   5.812  0.00  0.00    +0.013 A 
ATOM     17  C   UNL     1      13.537  23.634   6.441  0.00  0.00    +0.005 A 
ATOM     18  C   UNL     1      13.417  23.251   7.846  0.00  0.00    -0.033 A 
ATOM     28  C   UNL     1      14.607  22.856   8.582  0.00  0.00    +0.005 A 
ATOM     29  C   UNL     1      15.880  22.838   7.969  0.00  0.00    +0.013 A 
BRANCH  18  19
ATOM     19  C   UNL     1      12.077  23.261   8.604  0.00  0.00    +0.119 C 
BRANCH  19  20
ATOM     20  N   UNL     1      11.981  22.422   9.836  0.00  0.00    -0.302 NA
ATOM     21  C   UNL     1      11.371  21.047   9.549  0.00  0.00    +0.066 C 
ATOM     22  C   UNL     1      11.299  20.175  10.845  0.00  0.00    -0.064 C 
ATOM     23  N   UNL     1      10.490  20.915  11.911  0.00  0.00    +0.379 N 
ATOM     24  C   UNL     1      10.372  20.073  13.110  0.00  0.00    -0.096 C 
ATOM     25  H   UNL     1       9.463  21.074  11.506  0.00  0.00    -0.082 HD
ATOM     26  C   UNL     1      11.089  22.285  12.200  0.00  0.00    -0.064 C 
ATOM     27  C   UNL     1      11.182  23.133  10.901  0.00  0.00    +0.066 C 
ENDBRANCH  19  20
ENDBRANCH  18  19
ENDBRANCH  14  15
ENDBRANCH  12  13
TORSDOF 6
ENDMDL
MODEL 3
REMARK VINA RESULT:      -7.5      4.252      6.719
REMARK  Name = C:\Users\Docking\Desktop\test protocol\1iep_ligandH.pdb
REMARK  8 active torsions:
REMARK  status: ('A' for Active; 'I' for Inactive)
REMARK    1  A    between atoms: _5  and  _11
REMARK    2  A    between atoms: _19  and  _21
REMARK    3  A    between atoms: _22  and  _66
REMARK    4  A    between atoms: _27  and  _30
REMARK    5  A    between atoms: _32  and  _33
REMARK    6  A    between atoms: _38  and  _43
REMARK    7  A    between atoms: _43  and  _46
REMARK    8  A    between atoms: _53  and  _55
REMARK                            x       y       z     vdW  Elec       q    Type
REMARK                         _______ _______ _______ _____ _____    ______ ____
ROOT
ATOM     10  C   UNL     1      16.471  22.808   5.900  0.00  0.00    +0.038 A 
ATOM     11  C   UNL     1      17.131  24.017   5.561  0.00  0.00    +0.047 A 
ATOM     12  C   UNL     1      17.880  24.144   4.321  0.00  0.00    +0.035 A 
ATOM     32  C   UNL     1      17.933  23.019   3.446  0.00  0.00    +0.024 A 
ATOM     33  C   UNL     1      17.269  21.783   3.775  0.00  0.00    +0.007 A 
ATOM     34  C   UNL     1      16.531  21.651   4.999  0.00  0.00    -0.029 A 
ATOM     35  C   UNL     1      15.844  20.300   5.303  0.00  0.00    +0.045 C 
ENDROOT
BRANCH  10   9
ATOM      4  C   UNL     1      12.542  23.563   8.551  0.00  0.00    +0.077 A 
ATOM      5  C   UNL     1      11.843  24.163   7.452  0.00  0.00    +0.048 A 
ATOM      6  C   UNL     1      12.533  24.266   6.223  0.00  0.00    +0.116 A 
ATOM      7  N   UNL     1      13.825  23.798   6.113  0.00  0.00    -0.223 NA
ATOM      8  C   UNL     1      14.470  23.226   7.194  0.00  0.00    +0.220 A 
ATOM      9  N   UNL     1      15.766  22.742   7.104  0.00  0.00    -0.283 N 
ATOM     36  H   UNL     1      16.210  22.334   7.926  0.00  0.00    +0.155 HD
ATOM     37  N   UNL     1      13.833  23.118   8.379  0.00  0.00    -0.214 NA
BRANCH   4   3
ATOM      1  C   UNL     1      11.219  21.954  11.862  0.00  0.00    +0.020 A 
ATOM      2  C   UNL     1      11.800  22.075  10.545  0.00  0.00    +0.013 A 
ATOM      3  C   UNL     1      11.946  23.380   9.913  0.00  0.00    +0.019 A 
ATOM     38  C   UNL     1      11.490  24.552  10.645  0.00  0.00    +0.120 A 
ATOM     39  N   UNL     1      10.932  24.404  11.911  0.00  0.00    -0.263 NA
ATOM     40  C   UNL     1      10.785  23.154  12.530  0.00  0.00    +0.111 A 
ENDBRANCH   4   3
ENDBRANCH  10   9
BRANCH  12  13
ATOM     13  N   UNL     1      18.577  25.343   3.928  0.00  0.00    -0.281 N 
ATOM     14  C   UNL     1      19.944  25.533   3.807  0.00  0.00    +0.248 C 
ATOM     30  O   UNL     1      20.789  24.757   4.228  0.00  0.00    -0.270 OA
ATOM     31  H   UNL     1      17.992  26.150   3.712  0.00  0.00    +0.155 HD
BRANCH  14  15
ATOM     15  C   UNL     1      20.445  26.770   3.135  0.00  0.00    +0.037 A 
ATOM     16  C   UNL     1      21.799  26.839   2.580  0.00  0.00    +0.013 A 
ATOM     17  C   UNL     1      22.263  28.050   1.952  0.00  0.00    +0.005 A 
ATOM     18  C   UNL     1      21.370  29.204   1.874  0.00  0.00    -0.033 A 
ATOM     28  C   UNL     1      20.030  29.107   2.429  0.00  0.00    +0.005 A 
ATOM     29  C   UNL     1      19.572  27.922   3.046  0.00  0.00    +0.013 A 
BRANCH  18  19
ATOM     19  C   UNL     1      21.788  30.544   1.241  0.00  0.00    +0.119 C 
BRANCH  19  20
ATOM     20  N   UNL     1      22.674  31.435   2.047  0.00  0.00    -0.302 NA
ATOM     21  C   UNL     1      21.872  32.399   2.926  0.00  0.00    +0.066 C 
ATOM     22  C   UNL     1      22.815  33.308   3.780  0.00  0.00    -0.064 C 
ATOM     23  N   UNL     1      23.756  34.077   2.852  0.00  0.00    +0.379 N 
ATOM     24  C   UNL     1      24.604  34.976   3.648  0.00  0.00    -0.096 C 
ATOM     25  H   UNL     1      23.128  34.709   2.182  0.00  0.00    -0.082 HD
ATOM     26  C   UNL     1      24.555  33.126   1.972  0.00  0.00    -0.064 C 
ATOM     27  C   UNL     1      23.609  32.207   1.150  0.00  0.00    +0.066 C 
ENDBRANCH  19  20
ENDBRANCH  18  19
ENDBRANCH  14  15
ENDBRANCH  12  13
TORSDOF 6
ENDMDL
MODEL 4
REMARK VINA RESULT:      -7.4      2.222      3.160
REMARK  Name = C:\Users\Docking\Desktop\test protocol\1iep_ligandH.pdb
REMARK  8 active torsions:
REMARK  status: ('A' for Active; 'I' for Inactive)
REMARK    1  A    between atoms: _5  and  _11
REMARK    2  A    between atoms: _19  and  _21
REMARK    3  A    between atoms: _22  and  _66
REMARK    4  A    between atoms: _27  and  _30
REMARK    5  A    between atoms: _32  and  _33
REMARK    6  A    between atoms: _38  and  _43
REMARK    7  A    between atoms: _43  and  _46
REMARK    8  A    between atoms: _53  and  _55
REMARK                            x       y       z     vdW  Elec       q    Type
REMARK                         _______ _______ _______ _____ _____    ______ ____
ROOT
ATOM     10  C   UNL     1      10.713  24.362   7.809  0.00  0.00    +0.038 A 
ATOM     11  C   UNL     1      11.957  24.492   7.140  0.00  0.00    +0.047 A 
ATOM     12  C   UNL     1      13.183  23.968   7.722  0.00  0.00    +0.035 A 
ATOM     32  C   UNL     1      13.105  23.314   8.986  0.00  0.00    +0.024 A 
ATOM     33  C   UNL     1      11.849  23.174   9.680  0.00  0.00    +0.007 A 
ATOM     34  C   UNL     1      10.637  23.691   9.112  0.00  0.00    -0.029 A 
ATOM     35  C   UNL     1       9.320  23.518   9.904  0.00  0.00    +0.045 C 
ENDROOT
BRANCH  10   9
ATOM      4  C   UNL     1       7.682  27.968   6.889  0.00  0.00    +0.077 A 
ATOM      5  C   UNL     1       8.429  28.882   7.704  0.00  0.00    +0.048 A 
ATOM      6  C   UNL     1       9.584  28.383   8.348  0.00  0.00    +0.116 A 
ATOM      7  N   UNL     1       9.954  27.066   8.182  0.00  0.00    -0.223 NA
ATOM      8  C   UNL     1       9.210  26.210   7.391  0.00  0.00    +0.220 A 
ATOM      9  N   UNL     1       9.568  24.884   7.204  0.00  0.00    -0.283 N 
ATOM     36  H   UNL     1       8.988  24.283   6.619  0.00  0.00    +0.155 HD
ATOM     37  N   UNL     1       8.102  26.662   6.766  0.00  0.00    -0.214 NA
BRANCH   4   3
ATOM      1  C   UNL     1       4.898  28.200   4.151  0.00  0.00    +0.020 A 
ATOM      2  C   UNL     1       6.109  27.802   4.831  0.00  0.00    +0.013 A 
ATOM      3  C   UNL     1       6.441  28.346   6.142  0.00  0.00    +0.019 A 
ATOM     38  C   UNL     1       5.519  29.297   6.742  0.00  0.00    +0.120 A 
ATOM     39  N   UNL     1       4.360  29.663   6.064  0.00  0.00    -0.263 NA
ATOM     40  C   UNL     1       4.031  29.148   4.801  0.00  0.00    +0.111 A 
ENDBRANCH   4   3
ENDBRANCH  10   9
BRANCH  12  13
ATOM     13  N   UNL     1      14.476  24.077   7.093  0.00  0.00    -0.281 N 
ATOM     14  C   UNL     1      15.139  23.124   6.337  0.00  0.00    +0.248 C 
ATOM     30  O   UNL     1      14.812  21.948   6.266  0.00  0.00    -0.270 OA
ATOM     31  H   UNL     1      14.961  24.965   7.219  0.00  0.00    +0.155 HD
BRANCH  14  15
ATOM     15  C   UNL     1      16.349  23.531   5.560  0.00  0.00    +0.037 A 
ATOM     16  C   UNL     1      16.235  24.052   4.195  0.00  0.00    +0.013 A 
ATOM     17  C   UNL     1      17.420  24.422   3.462  0.00  0.00    +0.005 A 
ATOM     18  C   UNL     1      18.729  24.274   4.093  0.00  0.00    -0.033 A 
ATOM     28  C   UNL     1      18.812  23.760   5.450  0.00  0.00    +0.005 A 
ATOM     29  C   UNL     1      17.653  23.396   6.172  0.00  0.00    +0.013 A 
BRANCH  18  19
ATOM     19  C   UNL     1      20.047  24.624   3.378  0.00  0.00    +0.119 C 
BRANCH  19  20
ATOM     20  N   UNL     1      20.099  25.920   2.636  0.00  0.00    -0.302 NA
ATOM     21  C   UNL     1      21.403  26.079   1.850  0.00  0.00    +0.066 C 
ATOM     22  C   UNL     1      21.432  27.429   1.062  0.00  0.00    -0.064 C 
ATOM     23  N   UNL     1      21.243  28.591   2.040  0.00  0.00    +0.379 N 
ATOM     24  C   UNL     1      21.327  29.864   1.310  0.00  0.00    -0.096 C 
ATOM     25  H   UNL     1      22.087  28.561   2.767  0.00  0.00    -0.082 HD
ATOM     26  C   UNL     1      19.950  28.439   2.828  0.00  0.00    -0.064 C 
ATOM     27  C   UNL     1      19.919  27.081   3.583  0.00  0.00    +0.066 C 
ENDBRANCH  19  20
ENDBRANCH  18  19
ENDBRANCH  14  15
ENDBRANCH  12  13
TORSDOF 6
ENDMDL
MODEL 5
REMARK VINA RESULT:      -7.4      4.274      7.075
REMARK  Name = C:\Users\Docking\Desktop\test protocol\1iep_ligandH.pdb
REMARK  8 active torsions:
REMARK  status: ('A' for Active; 'I' for Inactive)
REMARK    1  A    between atoms: _5  and  _11
REMARK    2  A    between atoms: _19  and  _21
REMARK    3  A    between atoms: _22  and  _66
REMARK    4  A    between atoms: _27  and  _30
REMARK    5  A    between atoms: _32  and  _33
REMARK    6  A    between atoms: _38  and  _43
REMARK    7  A    between atoms: _43  and  _46
REMARK    8  A    between atoms: _53  and  _55
REMARK                            x       y       z     vdW  Elec       q    Type
REMARK                         _______ _______ _______ _____ _____    ______ ____
ROOT
ATOM     10  C   UNL     1      10.049  22.531   9.461  0.00  0.00    +0.038 A 
ATOM     11  C   UNL     1      11.292  22.562   8.780  0.00  0.00    +0.047 A 
ATOM     12  C   UNL     1      12.025  23.806   8.609  0.00  0.00    +0.035 A 
ATOM     32  C   UNL     1      11.464  25.001   9.147  0.00  0.00    +0.024 A 
ATOM     33  C   UNL     1      10.201  24.987   9.842  0.00  0.00    +0.007 A 
ATOM     34  C   UNL     1       9.472  23.763  10.012  0.00  0.00    -0.029 A 
ATOM     35  C   UNL     1       8.119  23.809  10.760  0.00  0.00    +0.045 C 
ENDROOT
BRANCH  10   9
ATOM      4  C   UNL     1       9.151  18.441  11.808  0.00  0.00    +0.077 A 
ATOM      5  C   UNL     1      10.099  18.755  12.838  0.00  0.00    +0.048 A 
ATOM      6  C   UNL     1      10.802  19.975  12.723  0.00  0.00    +0.116 A 
ATOM      7  N   UNL     1      10.566  20.812  11.654  0.00  0.00    -0.223 NA
ATOM      8  C   UNL     1       9.646  20.478  10.677  0.00  0.00    +0.220 A 
ATOM      9  N   UNL     1       9.387  21.308   9.597  0.00  0.00    -0.283 N 
ATOM     36  H   UNL     1       8.707  21.022   8.893  0.00  0.00    +0.155 HD
ATOM     37  N   UNL     1       8.963  19.318  10.763  0.00  0.00    -0.214 NA
BRANCH   4   3
ATOM      1  C   UNL     1       8.051  14.693  12.008  0.00  0.00    +0.020 A 
ATOM      2  C   UNL     1       8.890  15.869  12.036  0.00  0.00    +0.013 A 
ATOM      3  C   UNL     1       8.327  17.191  11.791  0.00  0.00    +0.019 A 
ATOM     38  C   UNL     1       6.901  17.289  11.521  0.00  0.00    +0.120 A 
ATOM     39  N   UNL     1       6.118  16.139  11.500  0.00  0.00    -0.263 NA
ATOM     40  C   UNL     1       6.649  14.862  11.732  0.00  0.00    +0.111 A 
ENDBRANCH   4   3
ENDBRANCH  10   9
BRANCH  12  13
ATOM     13  N   UNL     1      13.288  23.901   7.919  0.00  0.00    -0.281 N 
ATOM     14  C   UNL     1      14.427  23.137   8.118  0.00  0.00    +0.248 C 
ATOM     30  O   UNL     1      14.602  22.395   9.073  0.00  0.00    -0.270 OA
ATOM     31  H   UNL     1      13.350  24.617   7.195  0.00  0.00    +0.155 HD
BRANCH  14  15
ATOM     15  C   UNL     1      15.537  23.222   7.121  0.00  0.00    +0.037 A 
ATOM     16  C   UNL     1      15.279  23.589   5.726  0.00  0.00    +0.013 A 
ATOM     17  C   UNL     1      16.365  23.647   4.780  0.00  0.00    +0.005 A 
ATOM     18  C   UNL     1      17.721  23.338   5.228  0.00  0.00    -0.033 A 
ATOM     28  C   UNL     1      17.949  22.981   6.618  0.00  0.00    +0.005 A 
ATOM     29  C   UNL     1      16.887  22.923   7.548  0.00  0.00    +0.013 A 
BRANCH  18  19
ATOM     19  C   UNL     1      18.937  23.353   4.283  0.00  0.00    +0.119 C 
BRANCH  19  20
ATOM     20  N   UNL     1      19.282  24.653   3.634  0.00  0.00    -0.302 NA
ATOM     21  C   UNL     1      20.554  24.553   2.787  0.00  0.00    +0.066 C 
ATOM     22  C   UNL     1      20.887  25.916   2.097  0.00  0.00    -0.064 C 
ATOM     23  N   UNL     1      21.031  27.003   3.164  0.00  0.00    +0.379 N 
ATOM     24  C   UNL     1      21.401  28.273   2.523  0.00  0.00    -0.096 C 
ATOM     25  H   UNL     1      21.868  26.707   3.837  0.00  0.00    -0.082 HD
ATOM     26  C   UNL     1      19.771  27.107   4.012  0.00  0.00    -0.064 C 
ATOM     27  C   UNL     1      19.433  25.740   4.669  0.00  0.00    +0.066 C 
ENDBRANCH  19  20
ENDBRANCH  18  19
ENDBRANCH  14  15
ENDBRANCH  12  13
TORSDOF 6
ENDMDL
