MODEL 1
REMARK VINA RESULT:     -11.4      0.000      0.000
REMARK  Name = C:\Users\Docking\Desktop\test protocol\1iep_ligandH.pdb
REMARK  8 active torsions:
REMARK  status: ('A' for Active; 'I' for Inactive)
REMARK    1  A    between atoms: _5  and  _11
REMARK    2  A    between atoms: _19  and  _21
REMARK    3  A    between atoms: _22  and  _66
REMARK    4  A    between atoms: _27  and  _30
REMARK    5  A    between atoms: _32  and  _33
REMARK    6  A    between atoms: _38  and  _43
REMARK    7  A    between atoms: _43  and  _46
REMARK    8  A    between atoms: _53  and  _55
REMARK                            x       y       z     vdW  Elec       q    Type
REMARK                         _______ _______ _______ _____ _____    ______ ____
ROOT
ATOM     10  C   UNL     1      27.664  29.297  -8.731  0.00  0.00    +0.038 A 
ATOM     11  C   UNL     1      27.105  29.799  -9.934  0.00  0.00    +0.047 A 
ATOM     12  C   UNL     1      26.507  31.124  -9.990  0.00  0.00    +0.035 A 
ATOM     32  C   UNL     1      26.499  31.912  -8.803  0.00  0.00    +0.024 A 
ATOM     33  C   UNL     1      27.061  31.417  -7.571  0.00  0.00    +0.007 A 
ATOM     34  C   UNL     1      27.650  30.110  -7.509  0.00  0.00    -0.029 A 
ATOM     35  C   UNL     1      28.232  29.628  -6.160  0.00  0.00    +0.045 C 
ENDROOT
BRANCH  10   9
ATOM      4  C   UNL     1      31.405  26.316  -9.127  0.00  0.00    +0.077 A 
ATOM      5  C   UNL     1      32.315  27.397  -9.377  0.00  0.00    +0.048 A 
ATOM      6  C   UNL     1      31.779  28.704  -9.402  0.00  0.00    +0.116 A 
ATOM      7  N   UNL     1      30.431  28.903  -9.192  0.00  0.00    -0.223 NA
ATOM      8  C   UNL     1      29.581  27.839  -8.955  0.00  0.00    +0.220 A 
ATOM      9  N   UNL     1      28.224  28.018  -8.733  0.00  0.00    -0.283 N 
ATOM     36  H   UNL     1      27.629  27.206  -8.569  0.00  0.00    +0.155 HD
ATOM     37  N   UNL     1      30.068  26.581  -8.927  0.00  0.00    -0.214 NA
BRANCH   4   3
ATOM      1  C   UNL     1      31.898  22.533  -9.990  0.00  0.00    +0.020 A 
ATOM      2  C   UNL     1      31.471  23.909 -10.097  0.00  0.00    +0.013 A 
ATOM      3  C   UNL     1      31.820  24.879  -9.066  0.00  0.00    +0.019 A 
ATOM     38  C   UNL     1      32.607  24.420  -7.932  0.00  0.00    +0.120 A 
ATOM     39  N   UNL     1      33.003  23.088  -7.855  0.00  0.00    -0.263 NA
ATOM     40  C   UNL     1      32.672  22.146  -8.840  0.00  0.00    +0.111 A 
ENDBRANCH   4   3
ENDBRANCH  10   9
BRANCH  12  13
ATOM     13  N   UNL     1      25.917  31.684 -11.181  0.00  0.00    -0.281 N 
ATOM     14  C   UNL     1      26.535  32.442 -12.162  0.00  0.00    +0.248 C 
ATOM     30  O   UNL     1      27.647  32.937 -12.055  0.00  0.00    -0.270 OA
ATOM     31  H   UNL     1      24.923  31.498 -11.317  0.00  0.00    +0.155 HD
BRANCH  14  15
ATOM     15  C   UNL     1      25.806  32.700 -13.441  0.00  0.00    +0.037 A 
ATOM     16  C   UNL     1      24.584  33.508 -13.470  0.00  0.00    +0.013 A 
ATOM     17  C   UNL     1      23.892  33.728 -14.715  0.00  0.00    +0.005 A 
ATOM     18  C   UNL     1      24.421  33.139 -15.942  0.00  0.00    -0.033 A 
ATOM     28  C   UNL     1      25.637  32.345 -15.886  0.00  0.00    +0.005 A 
ATOM     29  C   UNL     1      26.319  32.127 -14.667  0.00  0.00    +0.013 A 
BRANCH  18  19
ATOM     19  C   UNL     1      23.735  33.303 -17.312  0.00  0.00    +0.119 C 
BRANCH  19  20
ATOM     20  N   UNL     1      24.147  34.471 -18.146  0.00  0.00    -0.302 NA
ATOM     21  C   UNL     1      23.029  34.925 -19.090  0.00  0.00    +0.066 C 
ATOM     22  C   UNL     1      23.469  36.162 -19.939  0.00  0.00    -0.064 C 
ATOM     23  N   UNL     1      24.734  35.813 -20.726  0.00  0.00    +0.379 N 
ATOM     24  C   UNL     1      25.117  36.954 -21.570  0.00  0.00    -0.096 C 
ATOM     25  H   UNL     1      24.487  34.960 -21.401  0.00  0.00    -0.082 HD
ATOM     26  C   UNL     1      25.849  35.358 -19.796  0.00  0.00    -0.064 C 
ATOM     27  C   UNL     1      25.392  34.147 -18.935  0.00  0.00    +0.066 C 
ENDBRANCH  19  20
ENDBRANCH  18  19
ENDBRANCH  14  15
ENDBRANCH  12  13
TORSDOF 6
ENDMDL
MODEL 2
REMARK VINA RESULT:     -10.4      2.013      3.021
REMARK  Name = C:\Users\Docking\Desktop\test protocol\1iep_ligandH.pdb
REMARK  8 active torsions:
REMARK  status: ('A' for Active; 'I' for Inactive)
REMARK    1  A    between atoms: _5  and  _11
REMARK    2  A    between atoms: _19  and  _21
REMARK    3  A    between atoms: _22  and  _66
REMARK    4  A    between atoms: _27  and  _30
REMARK    5  A    between atoms: _32  and  _33
REMARK    6  A    between atoms: _38  and  _43
REMARK    7  A    between atoms: _43  and  _46
REMARK    8  A    between atoms: _53  and  _55
REMARK                            x       y       z     vdW  Elec       q    Type
REMARK                         _______ _______ _______ _____ _____    ______ ____
ROOT
ATOM     10  C   UNL     1      26.400  30.975  -9.808  0.00  0.00    +0.038 A 
ATOM     11  C   UNL     1      26.218  31.011 -11.214  0.00  0.00    +0.047 A 
ATOM     12  C   UNL     1      25.917  32.257 -11.902  0.00  0.00    +0.035 A 
ATOM     32  C   UNL     1      25.810  33.448 -11.126  0.00  0.00    +0.024 A 
ATOM     33  C   UNL     1      25.991  33.430  -9.696  0.00  0.00    +0.007 A 
ATOM     34  C   UNL     1      26.286  32.203  -9.012  0.00  0.00    -0.029 A 
ATOM     35  C   UNL     1      26.463  32.241  -7.476  0.00  0.00    +0.045 C 
ENDROOT
BRANCH  10   9
ATOM      4  C   UNL     1      29.453  27.854  -7.813  0.00  0.00    +0.077 A 
ATOM      5  C   UNL     1      30.574  28.724  -8.026  0.00  0.00    +0.048 A 
ATOM      6  C   UNL     1      30.323  29.962  -8.659  0.00  0.00    +0.116 A 
ATOM      7  N   UNL     1      29.043  30.296  -9.045  0.00  0.00    -0.223 NA
ATOM      8  C   UNL     1      27.985  29.433  -8.826  0.00  0.00    +0.220 A 
ATOM      9  N   UNL     1      26.688  29.752  -9.199  0.00  0.00    -0.283 N 
ATOM     36  H   UNL     1      25.936  29.085  -9.027  0.00  0.00    +0.155 HD
ATOM     37  N   UNL     1      28.198  28.244  -8.225  0.00  0.00    -0.214 NA
BRANCH   4   3
ATOM      1  C   UNL     1      28.728  24.727  -5.578  0.00  0.00    +0.020 A 
ATOM      2  C   UNL     1      28.582  26.030  -6.185  0.00  0.00    +0.013 A 
ATOM      3  C   UNL     1      29.556  26.514  -7.155  0.00  0.00    +0.019 A 
ATOM     38  C   UNL     1      30.675  25.647  -7.492  0.00  0.00    +0.120 A 
ATOM     39  N   UNL     1      30.791  24.398  -6.891  0.00  0.00    -0.263 NA
ATOM     40  C   UNL     1      29.860  23.922  -5.955  0.00  0.00    +0.111 A 
ENDBRANCH   4   3
ENDBRANCH  10   9
BRANCH  12  13
ATOM     13  N   UNL     1      25.714  32.354 -13.326  0.00  0.00    -0.281 N 
ATOM     14  C   UNL     1      24.680  32.984 -13.998  0.00  0.00    +0.248 C 
ATOM     30  O   UNL     1      23.652  33.380 -13.469  0.00  0.00    -0.270 OA
ATOM     31  H   UNL     1      26.419  31.903 -13.910  0.00  0.00    +0.155 HD
BRANCH  14  15
ATOM     15  C   UNL     1      24.798  33.192 -15.474  0.00  0.00    +0.037 A 
ATOM     16  C   UNL     1      25.915  32.626 -16.234  0.00  0.00    +0.013 A 
ATOM     17  C   UNL     1      26.015  32.856 -17.653  0.00  0.00    +0.005 A 
ATOM     18  C   UNL     1      24.991  33.655 -18.322  0.00  0.00    -0.033 A 
ATOM     28  C   UNL     1      23.891  34.200 -17.545  0.00  0.00    +0.005 A 
ATOM     29  C   UNL     1      23.791  33.978 -16.154  0.00  0.00    +0.013 A 
BRANCH  18  19
ATOM     19  C   UNL     1      25.028  33.969 -19.830  0.00  0.00    +0.119 C 
BRANCH  19  20
ATOM     20  N   UNL     1      25.202  35.398 -20.227  0.00  0.00    -0.302 NA
ATOM     21  C   UNL     1      24.124  35.855 -21.213  0.00  0.00    +0.066 C 
ATOM     22  C   UNL     1      24.307  37.359 -21.600  0.00  0.00    -0.064 C 
ATOM     23  N   UNL     1      25.703  37.564 -22.190  0.00  0.00    +0.379 N 
ATOM     24  C   UNL     1      25.858  38.965 -22.609  0.00  0.00    -0.096 C 
ATOM     25  H   UNL     1      25.781  36.928 -23.102  0.00  0.00    -0.082 HD
ATOM     26  C   UNL     1      26.781  37.110 -21.217  0.00  0.00    -0.064 C 
ATOM     27  C   UNL     1      26.573  35.623 -20.816  0.00  0.00    +0.066 C 
ENDBRANCH  19  20
ENDBRANCH  18  19
ENDBRANCH  14  15
ENDBRANCH  12  13
TORSDOF 6
ENDMDL
MODEL 3
REMARK VINA RESULT:      -9.1      2.659      3.819
REMARK  Name = C:\Users\Docking\Desktop\test protocol\1iep_ligandH.pdb
REMARK  8 active torsions:
REMARK  status: ('A' for Active; 'I' for Inactive)
REMARK    1  A    between atoms: _5  and  _11
REMARK    2  A    between atoms: _19  and  _21
REMARK    3  A    between atoms: _22  and  _66
REMARK    4  A    between atoms: _27  and  _30
REMARK    5  A    between atoms: _32  and  _33
REMARK    6  A    between atoms: _38  and  _43
REMARK    7  A    between atoms: _43  and  _46
REMARK    8  A    between atoms: _53  and  _55
REMARK                            x       y       z     vdW  Elec       q    Type
REMARK                         _______ _______ _______ _____ _____    ______ ____
ROOT
ATOM     10  C   UNL     1      26.200  31.085  -9.980  0.00  0.00    +0.038 A 
ATOM     11  C   UNL     1      25.984  31.050 -11.381  0.00  0.00    +0.047 A 
ATOM     12  C   UNL     1      25.713  32.266 -12.132  0.00  0.00    +0.035 A 
ATOM     32  C   UNL     1      25.673  33.502 -11.423  0.00  0.00    +0.024 A 
ATOM     33  C   UNL     1      25.889  33.557  -9.999  0.00  0.00    +0.007 A 
ATOM     34  C   UNL     1      26.154  32.360  -9.253  0.00  0.00    -0.029 A 
ATOM     35  C   UNL     1      26.372  32.477  -7.726  0.00  0.00    +0.045 C 
ENDROOT
BRANCH  10   9
ATOM      4  C   UNL     1      29.166  28.002  -7.805  0.00  0.00    +0.077 A 
ATOM      5  C   UNL     1      30.307  28.836  -8.049  0.00  0.00    +0.048 A 
ATOM      6  C   UNL     1      30.090  30.047  -8.743  0.00  0.00    +0.116 A 
ATOM      7  N   UNL     1      28.820  30.388  -9.158  0.00  0.00    -0.223 NA
ATOM      8  C   UNL     1      27.742  29.560  -8.908  0.00  0.00    +0.220 A 
ATOM      9  N   UNL     1      26.456  29.887  -9.309  0.00  0.00    -0.283 N 
ATOM     36  H   UNL     1      25.688  29.246  -9.112  0.00  0.00    +0.155 HD
ATOM     37  N   UNL     1      27.924  28.398  -8.248  0.00  0.00    -0.214 NA
BRANCH   4   3
ATOM      1  C   UNL     1      28.441  25.066  -5.323  0.00  0.00    +0.020 A 
ATOM      2  C   UNL     1      28.333  26.344  -5.990  0.00  0.00    +0.013 A 
ATOM      3  C   UNL     1      29.235  26.694  -7.080  0.00  0.00    +0.019 A 
ATOM     38  C   UNL     1      30.241  25.721  -7.476  0.00  0.00    +0.120 A 
ATOM     39  N   UNL     1      30.323  24.499  -6.815  0.00  0.00    -0.263 NA
ATOM     40  C   UNL     1      29.462  24.152  -5.763  0.00  0.00    +0.111 A 
ENDBRANCH   4   3
ENDBRANCH  10   9
BRANCH  12  13
ATOM     13  N   UNL     1      25.478  32.291 -13.554  0.00  0.00    -0.281 N 
ATOM     14  C   UNL     1      24.555  33.053 -14.252  0.00  0.00    +0.248 C 
ATOM     30  O   UNL     1      23.640  33.676 -13.733  0.00  0.00    -0.270 OA
ATOM     31  H   UNL     1      26.063  31.671 -14.115  0.00  0.00    +0.155 HD
BRANCH  14  15
ATOM     15  C   UNL     1      24.654  33.122 -15.741  0.00  0.00    +0.037 A 
ATOM     16  C   UNL     1      25.558  32.240 -16.484  0.00  0.00    +0.013 A 
ATOM     17  C   UNL     1      25.646  32.339 -17.920  0.00  0.00    +0.005 A 
ATOM     18  C   UNL     1      24.826  33.323 -18.622  0.00  0.00    -0.033 A 
ATOM     28  C   UNL     1      23.933  34.181 -17.861  0.00  0.00    +0.005 A 
ATOM     29  C   UNL     1      23.845  34.088 -16.454  0.00  0.00    +0.013 A 
BRANCH  18  19
ATOM     19  C   UNL     1      24.871  33.512 -20.150  0.00  0.00    +0.119 C 
BRANCH  19  20
ATOM     20  N   UNL     1      26.085  33.016 -20.865  0.00  0.00    -0.302 NA
ATOM     21  C   UNL     1      26.418  31.568 -20.495  0.00  0.00    +0.066 C 
ATOM     22  C   UNL     1      27.677  31.058 -21.268  0.00  0.00    -0.064 C 
ATOM     23  N   UNL     1      28.862  31.979 -20.972  0.00  0.00    +0.379 N 
ATOM     24  C   UNL     1      30.061  31.469 -21.652  0.00  0.00    -0.096 C 
ATOM     25  H   UNL     1      29.053  31.941 -19.874  0.00  0.00    -0.082 HD
ATOM     26  C   UNL     1      28.538  33.421 -21.335  0.00  0.00    -0.064 C 
ATOM     27  C   UNL     1      27.268  33.908 -20.583  0.00  0.00    +0.066 C 
ENDBRANCH  19  20
ENDBRANCH  18  19
ENDBRANCH  14  15
ENDBRANCH  12  13
TORSDOF 6
ENDMDL
MODEL 4
REMARK VINA RESULT:      -8.7     11.801     17.188
REMARK  Name = C:\Users\Docking\Desktop\test protocol\1iep_ligandH.pdb
REMARK  8 active torsions:
REMARK  status: ('A' for Active; 'I' for Inactive)
REMARK    1  A    between atoms: _5  and  _11
REMARK    2  A    between atoms: _19  and  _21
REMARK    3  A    between atoms: _22  and  _66
REMARK    4  A    between atoms: _27  and  _30
REMARK    5  A    between atoms: _32  and  _33
REMARK    6  A    between atoms: _38  and  _43
REMARK    7  A    between atoms: _43  and  _46
REMARK    8  A    between atoms: _53  and  _55
REMARK                            x       y       z     vdW  Elec       q    Type
REMARK                         _______ _______ _______ _____ _____    ______ ____
ROOT
ATOM     10  C   UNL     1      32.034  37.021 -22.585  0.00  0.00    +0.038 A 
ATOM     11  C   UNL     1      32.812  37.221 -21.417  0.00  0.00    +0.047 A 
ATOM     12  C   UNL     1      34.204  37.637 -21.501  0.00  0.00    +0.035 A 
ATOM     32  C   UNL     1      34.770  37.842 -22.793  0.00  0.00    +0.024 A 
ATOM     33  C   UNL     1      33.994  37.641 -23.992  0.00  0.00    +0.007 A 
ATOM     34  C   UNL     1      32.622  37.229 -23.914  0.00  0.00    -0.029 A 
ATOM     35  C   UNL     1      31.839  37.023 -25.232  0.00  0.00    +0.045 C 
ENDROOT
BRANCH  10   9
ATOM      4  C   UNL     1      27.366  37.979 -22.011  0.00  0.00    +0.077 A 
ATOM      5  C   UNL     1      27.603  39.393 -21.958  0.00  0.00    +0.048 A 
ATOM      6  C   UNL     1      28.940  39.832 -22.075  0.00  0.00    +0.116 A 
ATOM      7  N   UNL     1      29.958  38.917 -22.234  0.00  0.00    -0.223 NA
ATOM      8  C   UNL     1      29.696  37.560 -22.279  0.00  0.00    +0.220 A 
ATOM      9  N   UNL     1      30.703  36.622 -22.446  0.00  0.00    -0.283 N 
ATOM     36  H   UNL     1      30.469  35.629 -22.467  0.00  0.00    +0.155 HD
ATOM     37  N   UNL     1      28.427  37.115 -22.168  0.00  0.00    -0.214 NA
BRANCH   4   3
ATOM      1  C   UNL     1      24.331  35.818 -20.820  0.00  0.00    +0.020 A 
ATOM      2  C   UNL     1      25.658  36.385 -20.879  0.00  0.00    +0.013 A 
ATOM      3  C   UNL     1      26.007  37.360 -21.905  0.00  0.00    +0.019 A 
ATOM     38  C   UNL     1      24.981  37.744 -22.863  0.00  0.00    +0.120 A 
ATOM     39  N   UNL     1      23.712  37.180 -22.783  0.00  0.00    -0.263 NA
ATOM     40  C   UNL     1      23.365  36.239 -21.801  0.00  0.00    +0.111 A 
ENDBRANCH   4   3
ENDBRANCH  10   9
BRANCH  12  13
ATOM     13  N   UNL     1      35.045  37.848 -20.350  0.00  0.00    -0.281 N 
ATOM     14  C   UNL     1      36.318  37.351 -20.122  0.00  0.00    +0.248 C 
ATOM     30  O   UNL     1      36.844  36.469 -20.785  0.00  0.00    -0.270 OA
ATOM     31  H   UNL     1      34.656  38.436 -19.613  0.00  0.00    +0.155 HD
BRANCH  14  15
ATOM     15  C   UNL     1      37.117  37.903 -18.986  0.00  0.00    +0.037 A 
ATOM     16  C   UNL     1      36.905  39.269 -18.501  0.00  0.00    +0.013 A 
ATOM     17  C   UNL     1      37.700  39.782 -17.414  0.00  0.00    +0.005 A 
ATOM     18  C   UNL     1      38.715  38.927 -16.803  0.00  0.00    -0.033 A 
ATOM     28  C   UNL     1      38.901  37.574 -17.301  0.00  0.00    +0.005 A 
ATOM     29  C   UNL     1      38.124  37.068 -18.366  0.00  0.00    +0.013 A 
BRANCH  18  19
ATOM     19  C   UNL     1      39.624  39.399 -15.653  0.00  0.00    +0.119 C 
BRANCH  19  20
ATOM     20  N   UNL     1      39.756  38.495 -14.471  0.00  0.00    -0.302 NA
ATOM     21  C   UNL     1      39.333  39.184 -13.171  0.00  0.00    +0.066 C 
ATOM     22  C   UNL     1      39.456  38.218 -11.948  0.00  0.00    -0.064 C 
ATOM     23  N   UNL     1      40.895  37.708 -11.848  0.00  0.00    +0.379 N 
ATOM     24  C   UNL     1      41.028  36.845 -10.665  0.00  0.00    -0.096 C 
ATOM     25  H   UNL     1      41.557  38.592 -11.697  0.00  0.00    -0.082 HD
ATOM     26  C   UNL     1      41.325  37.024 -13.138  0.00  0.00    -0.064 C 
ATOM     27  C   UNL     1      41.171  37.984 -14.350  0.00  0.00    +0.066 C 
ENDBRANCH  19  20
ENDBRANCH  18  19
ENDBRANCH  14  15
ENDBRANCH  12  13
TORSDOF 6
ENDMDL
MODEL 5
REMARK VINA RESULT:      -8.5     16.044     26.857
REMARK  Name = C:\Users\Docking\Desktop\test protocol\1iep_ligandH.pdb
REMARK  8 active torsions:
REMARK  status: ('A' for Active; 'I' for Inactive)
REMARK    1  A    between atoms: _5  and  _11
REMARK    2  A    between atoms: _19  and  _21
REMARK    3  A    between atoms: _22  and  _66
REMARK    4  A    between atoms: _27  and  _30
REMARK    5  A    between atoms: _32  and  _33
REMARK    6  A    between atoms: _38  and  _43
REMARK    7  A    between atoms: _43  and  _46
REMARK    8  A    between atoms: _53  and  _55
REMARK                            x       y       z     vdW  Elec       q    Type
REMARK                         _______ _______ _______ _____ _____    ______ ____
ROOT
ATOM     10  C   UNL     1      35.125  11.123  -3.090  0.00  0.00    +0.038 A 
ATOM     11  C   UNL     1      36.443  11.070  -2.568  0.00  0.00    +0.047 A 
ATOM     12  C   UNL     1      36.915   9.908  -1.831  0.00  0.00    +0.035 A 
ATOM     32  C   UNL     1      36.018   8.816  -1.646  0.00  0.00    +0.024 A 
ATOM     33  C   UNL     1      34.675   8.853  -2.168  0.00  0.00    +0.007 A 
ATOM     34  C   UNL     1      34.203   9.997  -2.894  0.00  0.00    -0.029 A 
ATOM     35  C   UNL     1      32.751   9.985  -3.426  0.00  0.00    +0.045 C 
ENDROOT
BRANCH  10   9
ATOM      4  C   UNL     1      32.754  15.284  -3.399  0.00  0.00    +0.077 A 
ATOM      5  C   UNL     1      32.248  15.163  -2.062  0.00  0.00    +0.048 A 
ATOM      6  C   UNL     1      32.615  14.011  -1.331  0.00  0.00    +0.116 A 
ATOM      7  N   UNL     1      33.429  13.058  -1.904  0.00  0.00    -0.223 NA
ATOM      8  C   UNL     1      33.899  13.205  -3.196  0.00  0.00    +0.220 A 
ATOM      9  N   UNL     1      34.725  12.263  -3.790  0.00  0.00    -0.283 N 
ATOM     36  H   UNL     1      35.044  12.404  -4.748  0.00  0.00    +0.155 HD
ATOM     37  N   UNL     1      33.561  14.295  -3.916  0.00  0.00    -0.214 NA
BRANCH   4   3
ATOM      1  C   UNL     1      33.110  18.149  -6.039  0.00  0.00    +0.020 A 
ATOM      2  C   UNL     1      33.448  17.028  -5.192  0.00  0.00    +0.013 A 
ATOM      3  C   UNL     1      32.457  16.445  -4.297  0.00  0.00    +0.019 A 
ATOM     38  C   UNL     1      31.121  17.023  -4.284  0.00  0.00    +0.120 A 
ATOM     39  N   UNL     1      30.825  18.102  -5.109  0.00  0.00    -0.263 NA
ATOM     40  C   UNL     1      31.771  18.673  -5.973  0.00  0.00    +0.111 A 
ENDBRANCH   4   3
ENDBRANCH  10   9
BRANCH  12  13
ATOM     13  N   UNL     1      38.239   9.801  -1.271  0.00  0.00    -0.281 N 
ATOM     14  C   UNL     1      39.338   9.145  -1.802  0.00  0.00    +0.248 C 
ATOM     30  O   UNL     1      39.290   8.366  -2.743  0.00  0.00    -0.270 OA
ATOM     31  H   UNL     1      38.385  10.265  -0.375  0.00  0.00    +0.155 HD
BRANCH  14  15
ATOM     15  C   UNL     1      40.682   9.378  -1.192  0.00  0.00    +0.037 A 
ATOM     16  C   UNL     1      41.824   9.800  -2.007  0.00  0.00    +0.013 A 
ATOM     17  C   UNL     1      43.114  10.000  -1.395  0.00  0.00    +0.005 A 
ATOM     18  C   UNL     1      43.268   9.780   0.041  0.00  0.00    -0.033 A 
ATOM     28  C   UNL     1      42.117   9.367   0.826  0.00  0.00    +0.005 A 
ATOM     29  C   UNL     1      40.852   9.168   0.230  0.00  0.00    +0.013 A 
BRANCH  18  19
ATOM     19  C   UNL     1      44.612   9.950   0.773  0.00  0.00    +0.119 C 
BRANCH  19  20
ATOM     20  N   UNL     1      44.561  10.251   2.235  0.00  0.00    -0.302 NA
ATOM     21  C   UNL     1      44.308  11.737   2.507  0.00  0.00    +0.066 C 
ATOM     22  C   UNL     1      44.235  12.030   4.041  0.00  0.00    -0.064 C 
ATOM     23  N   UNL     1      45.533  11.570   4.708  0.00  0.00    +0.379 N 
ATOM     24  C   UNL     1      45.491  11.898   6.140  0.00  0.00    -0.096 C 
ATOM     25  H   UNL     1      46.370  12.149   4.253  0.00  0.00    -0.082 HD
ATOM     26  C   UNL     1      45.793  10.095   4.440  0.00  0.00    -0.064 C 
ATOM     27  C   UNL     1      45.834   9.809   2.913  0.00  0.00    +0.066 C 
ENDBRANCH  19  20
ENDBRANCH  18  19
ENDBRANCH  14  15
ENDBRANCH  12  13
TORSDOF 6
ENDMDL
