MODEL 1
REMARK VINA RESULT:      -7.5      0.000      0.000
REMARK  Name = C:\Users\Docking\Desktop\test protocol\1iep_ligandH.pdb
REMARK  8 active torsions:
REMARK  status: ('A' for Active; 'I' for Inactive)
REMARK    1  A    between atoms: _5  and  _11
REMARK    2  A    between atoms: _19  and  _21
REMARK    3  A    between atoms: _22  and  _66
REMARK    4  A    between atoms: _27  and  _30
REMARK    5  A    between atoms: _32  and  _33
REMARK    6  A    between atoms: _38  and  _43
REMARK    7  A    between atoms: _43  and  _46
REMARK    8  A    between atoms: _53  and  _55
REMARK                            x       y       z     vdW  Elec       q    Type
REMARK                         _______ _______ _______ _____ _____    ______ ____
ROOT
ATOM     10  C   UNL     1       7.600  43.163  46.664  0.00  0.00    +0.038 A 
ATOM     11  C   UNL     1       8.352  42.615  45.594  0.00  0.00    +0.047 A 
ATOM     12  C   UNL     1       8.466  43.311  44.321  0.00  0.00    +0.035 A 
ATOM     32  C   UNL     1       7.804  44.564  44.175  0.00  0.00    +0.024 A 
ATOM     33  C   UNL     1       7.034  45.135  45.253  0.00  0.00    +0.007 A 
ATOM     34  C   UNL     1       6.916  44.452  46.509  0.00  0.00    -0.029 A 
ATOM     35  C   UNL     1       6.073  45.108  47.627  0.00  0.00    +0.045 C 
ENDROOT
BRANCH  10   9
ATOM      4  C   UNL     1       9.133  42.178  51.105  0.00  0.00    +0.077 A 
ATOM      5  C   UNL     1      10.192  43.142  51.017  0.00  0.00    +0.048 A 
ATOM      6  C   UNL     1      10.312  43.865  49.809  0.00  0.00    +0.116 A 
ATOM      7  N   UNL     1       9.433  43.634  48.773  0.00  0.00    -0.223 NA
ATOM      8  C   UNL     1       8.424  42.695  48.890  0.00  0.00    +0.220 A 
ATOM      9  N   UNL     1       7.524  42.452  47.864  0.00  0.00    -0.283 N 
ATOM     36  H   UNL     1       6.799  41.746  47.987  0.00  0.00    +0.155 HD
ATOM     37  N   UNL     1       8.290  41.990  50.033  0.00  0.00    -0.214 NA
BRANCH   4   3
ATOM      1  C   UNL     1       8.298  41.047  54.755  0.00  0.00    +0.020 A 
ATOM      2  C   UNL     1       8.538  41.903  53.616  0.00  0.00    +0.013 A 
ATOM      3  C   UNL     1       8.875  41.337  52.316  0.00  0.00    +0.019 A 
ATOM     38  C   UNL     1       8.961  39.889  52.201  0.00  0.00    +0.120 A 
ATOM     39  N   UNL     1       8.726  39.089  53.315  0.00  0.00    -0.263 NA
ATOM     40  C   UNL     1       8.403  39.623  54.572  0.00  0.00    +0.111 A 
ENDBRANCH   4   3
ENDBRANCH  10   9
BRANCH  12  13
ATOM     13  N   UNL     1       9.209  42.800  43.196  0.00  0.00    -0.281 N 
ATOM     14  C   UNL     1      10.442  43.223  42.726  0.00  0.00    +0.248 C 
ATOM     30  O   UNL     1      10.998  44.253  43.076  0.00  0.00    -0.270 OA
ATOM     31  H   UNL     1       8.773  42.034  42.683  0.00  0.00    +0.155 HD
BRANCH  14  15
ATOM     15  C   UNL     1      11.152  42.389  41.710  0.00  0.00    +0.037 A 
ATOM     16  C   UNL     1      10.672  42.299  40.329  0.00  0.00    +0.013 A 
ATOM     17  C   UNL     1      11.366  41.474  39.373  0.00  0.00    +0.005 A 
ATOM     18  C   UNL     1      12.551  40.731  39.796  0.00  0.00    -0.033 A 
ATOM     28  C   UNL     1      13.009  40.842  41.171  0.00  0.00    +0.005 A 
ATOM     29  C   UNL     1      12.330  41.649  42.111  0.00  0.00    +0.013 A 
BRANCH  18  19
ATOM     19  C   UNL     1      13.342  39.809  38.849  0.00  0.00    +0.119 C 
BRANCH  19  20
ATOM     20  N   UNL     1      14.683  40.284  38.394  0.00  0.00    -0.302 NA
ATOM     21  C   UNL     1      14.931  39.974  36.915  0.00  0.00    +0.066 C 
ATOM     22  C   UNL     1      16.328  40.498  36.450  0.00  0.00    -0.064 C 
ATOM     23  N   UNL     1      17.419  39.877  37.324  0.00  0.00    +0.379 N 
ATOM     24  C   UNL     1      18.739  40.323  36.853  0.00  0.00    -0.096 C 
ATOM     25  H   UNL     1      17.369  38.771  37.193  0.00  0.00    -0.082 HD
ATOM     26  C   UNL     1      17.179  40.179  38.797  0.00  0.00    -0.064 C 
ATOM     27  C   UNL     1      15.776  39.680  39.241  0.00  0.00    +0.066 C 
ENDBRANCH  19  20
ENDBRANCH  18  19
ENDBRANCH  14  15
ENDBRANCH  12  13
TORSDOF 6
ENDMDL
MODEL 2
REMARK VINA RESULT:      -7.0     15.452     17.514
REMARK  Name = C:\Users\Docking\Desktop\test protocol\1iep_ligandH.pdb
REMARK  8 active torsions:
REMARK  status: ('A' for Active; 'I' for Inactive)
REMARK    1  A    between atoms: _5  and  _11
REMARK    2  A    between atoms: _19  and  _21
REMARK    3  A    between atoms: _22  and  _66
REMARK    4  A    between atoms: _27  and  _30
REMARK    5  A    between atoms: _32  and  _33
REMARK    6  A    between atoms: _38  and  _43
REMARK    7  A    between atoms: _43  and  _46
REMARK    8  A    between atoms: _53  and  _55
REMARK                            x       y       z     vdW  Elec       q    Type
REMARK                         _______ _______ _______ _____ _____    ______ ____
ROOT
ATOM     10  C   UNL     1      -4.246  38.189  55.621  0.00  0.00    +0.038 A 
ATOM     11  C   UNL     1      -4.618  38.847  54.420  0.00  0.00    +0.047 A 
ATOM     12  C   UNL     1      -5.189  38.110  53.304  0.00  0.00    +0.035 A 
ATOM     32  C   UNL     1      -5.370  36.703  53.445  0.00  0.00    +0.024 A 
ATOM     33  C   UNL     1      -4.996  36.018  54.657  0.00  0.00    +0.007 A 
ATOM     34  C   UNL     1      -4.430  36.740  55.761  0.00  0.00    -0.029 A 
ATOM     35  C   UNL     1      -4.042  35.952  57.034  0.00  0.00    +0.045 C 
ENDROOT
BRANCH  10   9
ATOM      4  C   UNL     1      -0.592  40.484  57.724  0.00  0.00    +0.077 A 
ATOM      5  C   UNL     1       0.317  40.121  56.675  0.00  0.00    +0.048 A 
ATOM      6  C   UNL     1      -0.194  39.338  55.616  0.00  0.00    +0.116 A 
ATOM      7  N   UNL     1      -1.517  38.952  55.616  0.00  0.00    -0.223 NA
ATOM      8  C   UNL     1      -2.366  39.317  56.644  0.00  0.00    +0.220 A 
ATOM      9  N   UNL     1      -3.702  38.946  56.661  0.00  0.00    -0.283 N 
ATOM     36  H   UNL     1      -4.294  39.229  57.441  0.00  0.00    +0.155 HD
ATOM     37  N   UNL     1      -1.903  40.063  57.668  0.00  0.00    -0.214 NA
BRANCH   4   3
ATOM      1  C   UNL     1       1.352  41.916  60.801  0.00  0.00    +0.020 A 
ATOM      2  C   UNL     1       1.024  41.088  59.663  0.00  0.00    +0.013 A 
ATOM      3  C   UNL     1      -0.204  41.311  58.910  0.00  0.00    +0.019 A 
ATOM     38  C   UNL     1      -1.083  42.389  59.336  0.00  0.00    +0.120 A 
ATOM     39  N   UNL     1      -0.741  43.170  60.436  0.00  0.00    -0.263 NA
ATOM     40  C   UNL     1       0.436  42.963  61.170  0.00  0.00    +0.111 A 
ENDBRANCH   4   3
ENDBRANCH  10   9
BRANCH  12  13
ATOM     13  N   UNL     1      -5.578  38.723  52.058  0.00  0.00    -0.281 N 
ATOM     14  C   UNL     1      -4.796  38.940  50.935  0.00  0.00    +0.248 C 
ATOM     30  O   UNL     1      -3.579  38.832  50.909  0.00  0.00    -0.270 OA
ATOM     31  H   UNL     1      -6.547  39.035  51.996  0.00  0.00    +0.155 HD
BRANCH  14  15
ATOM     15  C   UNL     1      -5.461  39.350  49.661  0.00  0.00    +0.037 A 
ATOM     16  C   UNL     1      -6.869  39.754  49.634  0.00  0.00    +0.013 A 
ATOM     17  C   UNL     1      -7.490  40.129  48.388  0.00  0.00    +0.005 A 
ATOM     18  C   UNL     1      -6.702  40.102  47.159  0.00  0.00    -0.033 A 
ATOM     28  C   UNL     1      -5.306  39.702  47.215  0.00  0.00    +0.005 A 
ATOM     29  C   UNL     1      -4.694  39.334  48.433  0.00  0.00    +0.013 A 
BRANCH  18  19
ATOM     19  C   UNL     1      -7.288  40.466  45.782  0.00  0.00    +0.119 C 
BRANCH  19  20
ATOM     20  N   UNL     1      -6.408  40.273  44.591  0.00  0.00    -0.302 NA
ATOM     21  C   UNL     1      -5.884  41.604  44.043  0.00  0.00    +0.066 C 
ATOM     22  C   UNL     1      -4.946  41.382  42.812  0.00  0.00    -0.064 C 
ATOM     23  N   UNL     1      -5.704  40.612  41.729  0.00  0.00    +0.379 N 
ATOM     24  C   UNL     1      -4.844  40.453  40.547  0.00  0.00    -0.096 C 
ATOM     25  H   UNL     1      -6.582  41.228  41.428  0.00  0.00    -0.082 HD
ATOM     26  C   UNL     1      -6.231  39.289  42.266  0.00  0.00    -0.064 C 
ATOM     27  C   UNL     1      -7.138  39.518  43.508  0.00  0.00    +0.066 C 
ENDBRANCH  19  20
ENDBRANCH  18  19
ENDBRANCH  14  15
ENDBRANCH  12  13
TORSDOF 6
ENDMDL
MODEL 3
REMARK VINA RESULT:      -7.0     18.674     23.216
REMARK  Name = C:\Users\Docking\Desktop\test protocol\1iep_ligandH.pdb
REMARK  8 active torsions:
REMARK  status: ('A' for Active; 'I' for Inactive)
REMARK    1  A    between atoms: _5  and  _11
REMARK    2  A    between atoms: _19  and  _21
REMARK    3  A    between atoms: _22  and  _66
REMARK    4  A    between atoms: _27  and  _30
REMARK    5  A    between atoms: _32  and  _33
REMARK    6  A    between atoms: _38  and  _43
REMARK    7  A    between atoms: _43  and  _46
REMARK    8  A    between atoms: _53  and  _55
REMARK                            x       y       z     vdW  Elec       q    Type
REMARK                         _______ _______ _______ _____ _____    ______ ____
ROOT
ATOM     10  C   UNL     1       4.512  25.960  31.199  0.00  0.00    +0.038 A 
ATOM     11  C   UNL     1       5.788  25.404  31.476  0.00  0.00    +0.047 A 
ATOM     12  C   UNL     1       6.111  24.037  31.098  0.00  0.00    +0.035 A 
ATOM     32  C   UNL     1       5.111  23.265  30.437  0.00  0.00    +0.024 A 
ATOM     33  C   UNL     1       3.810  23.814  30.149  0.00  0.00    +0.007 A 
ATOM     34  C   UNL     1       3.484  25.161  30.522  0.00  0.00    -0.029 A 
ATOM     35  C   UNL     1       2.071  25.695  30.194  0.00  0.00    +0.045 C 
ENDROOT
BRANCH  10   9
ATOM      4  C   UNL     1       4.741  30.700  30.480  0.00  0.00    +0.077 A 
ATOM      5  C   UNL     1       5.455  30.538  29.246  0.00  0.00    +0.048 A 
ATOM      6  C   UNL     1       5.750  29.219  28.836  0.00  0.00    +0.116 A 
ATOM      7  N   UNL     1       5.355  28.148  29.609  0.00  0.00    -0.223 NA
ATOM      8  C   UNL     1       4.670  28.340  30.795  0.00  0.00    +0.220 A 
ATOM      9  N   UNL     1       4.256  27.278  31.584  0.00  0.00    -0.283 N 
ATOM     36  H   UNL     1       3.760  27.461  32.456  0.00  0.00    +0.155 HD
ATOM     37  N   UNL     1       4.377  29.590  31.209  0.00  0.00    -0.214 NA
BRANCH   4   3
ATOM      1  C   UNL     1       2.846  33.529  32.404  0.00  0.00    +0.020 A 
ATOM      2  C   UNL     1       3.176  32.223  31.883  0.00  0.00    +0.013 A 
ATOM      3  C   UNL     1       4.353  32.031  31.046  0.00  0.00    +0.019 A 
ATOM     38  C   UNL     1       5.183  33.190  30.753  0.00  0.00    +0.120 A 
ATOM     39  N   UNL     1       4.839  34.436  31.268  0.00  0.00    -0.263 NA
ATOM     40  C   UNL     1       3.708  34.634  32.073  0.00  0.00    +0.111 A 
ENDBRANCH   4   3
ENDBRANCH  10   9
BRANCH  12  13
ATOM     13  N   UNL     1       7.385  23.416  31.360  0.00  0.00    -0.281 N 
ATOM     14  C   UNL     1       7.696  22.490  32.342  0.00  0.00    +0.248 C 
ATOM     30  O   UNL     1       6.969  22.212  33.285  0.00  0.00    -0.270 OA
ATOM     31  H   UNL     1       8.152  23.694  30.747  0.00  0.00    +0.155 HD
BRANCH  14  15
ATOM     15  C   UNL     1       9.009  21.779  32.275  0.00  0.00    +0.037 A 
ATOM     16  C   UNL     1      10.275  22.510  32.367  0.00  0.00    +0.013 A 
ATOM     17  C   UNL     1      11.527  21.802  32.283  0.00  0.00    +0.005 A 
ATOM     18  C   UNL     1      11.519  20.352  32.105  0.00  0.00    -0.033 A 
ATOM     28  C   UNL     1      10.249  19.650  32.022  0.00  0.00    +0.005 A 
ATOM     29  C   UNL     1       9.019  20.341  32.104  0.00  0.00    +0.013 A 
BRANCH  18  19
ATOM     19  C   UNL     1      12.808  19.517  31.984  0.00  0.00    +0.119 C 
BRANCH  19  20
ATOM     20  N   UNL     1      13.824  19.666  33.067  0.00  0.00    -0.302 NA
ATOM     21  C   UNL     1      15.016  20.520  32.624  0.00  0.00    +0.066 C 
ATOM     22  C   UNL     1      16.058  20.685  33.777  0.00  0.00    -0.064 C 
ATOM     23  N   UNL     1      16.525  19.304  34.240  0.00  0.00    +0.379 N 
ATOM     24  C   UNL     1      17.548  19.457  35.285  0.00  0.00    -0.096 C 
ATOM     25  H   UNL     1      17.003  18.799  33.369  0.00  0.00    -0.082 HD
ATOM     26  C   UNL     1      15.346  18.447  34.681  0.00  0.00    -0.064 C 
ATOM     27  C   UNL     1      14.302  18.314  33.537  0.00  0.00    +0.066 C 
ENDBRANCH  19  20
ENDBRANCH  18  19
ENDBRANCH  14  15
ENDBRANCH  12  13
TORSDOF 6
ENDMDL
MODEL 4
REMARK VINA RESULT:      -6.9      2.366     12.853
REMARK  Name = C:\Users\Docking\Desktop\test protocol\1iep_ligandH.pdb
REMARK  8 active torsions:
REMARK  status: ('A' for Active; 'I' for Inactive)
REMARK    1  A    between atoms: _5  and  _11
REMARK    2  A    between atoms: _19  and  _21
REMARK    3  A    between atoms: _22  and  _66
REMARK    4  A    between atoms: _27  and  _30
REMARK    5  A    between atoms: _32  and  _33
REMARK    6  A    between atoms: _38  and  _43
REMARK    7  A    between atoms: _43  and  _46
REMARK    8  A    between atoms: _53  and  _55
REMARK                            x       y       z     vdW  Elec       q    Type
REMARK                         _______ _______ _______ _____ _____    ______ ____
ROOT
ATOM     10  C   UNL     1       8.290  43.407  44.958  0.00  0.00    +0.038 A 
ATOM     11  C   UNL     1       8.657  43.047  46.280  0.00  0.00    +0.047 A 
ATOM     12  C   UNL     1       8.094  43.737  47.431  0.00  0.00    +0.035 A 
ATOM     32  C   UNL     1       7.158  44.787  47.198  0.00  0.00    +0.024 A 
ATOM     33  C   UNL     1       6.776  45.166  45.861  0.00  0.00    +0.007 A 
ATOM     34  C   UNL     1       7.329  44.491  44.722  0.00  0.00    -0.029 A 
ATOM     35  C   UNL     1       6.888  44.945  43.311  0.00  0.00    +0.045 C 
ENDROOT
BRANCH  10   9
ATOM      4  C   UNL     1      11.815  42.679  41.783  0.00  0.00    +0.077 A 
ATOM      5  C   UNL     1      12.570  43.795  42.276  0.00  0.00    +0.048 A 
ATOM      6  C   UNL     1      12.013  44.534  43.343  0.00  0.00    +0.116 A 
ATOM      7  N   UNL     1      10.791  44.176  43.870  0.00  0.00    -0.223 NA
ATOM      8  C   UNL     1      10.088  43.095  43.370  0.00  0.00    +0.220 A 
ATOM      9  N   UNL     1       8.862  42.712  43.890  0.00  0.00    -0.283 N 
ATOM     36  H   UNL     1       8.371  41.913  43.489  0.00  0.00    +0.155 HD
ATOM     37  N   UNL     1      10.598  42.373  42.351  0.00  0.00    -0.214 NA
BRANCH   4   3
ATOM      1  C   UNL     1      12.024  39.795  39.148  0.00  0.00    +0.020 A 
ATOM      2  C   UNL     1      11.540  40.612  40.237  0.00  0.00    +0.013 A 
ATOM      3  C   UNL     1      12.272  41.798  40.662  0.00  0.00    +0.019 A 
ATOM     38  C   UNL     1      13.502  42.133  39.959  0.00  0.00    +0.120 A 
ATOM     39  N   UNL     1      13.945  41.327  38.915  0.00  0.00    -0.263 NA
ATOM     40  C   UNL     1      13.249  40.182  38.498  0.00  0.00    +0.111 A 
ENDBRANCH   4   3
ENDBRANCH  10   9
BRANCH  12  13
ATOM     13  N   UNL     1       8.434  43.421  48.796  0.00  0.00    -0.281 N 
ATOM     14  C   UNL     1       8.009  42.340  49.551  0.00  0.00    +0.248 C 
ATOM     30  O   UNL     1       7.097  41.590  49.234  0.00  0.00    -0.270 OA
ATOM     31  H   UNL     1       9.064  44.073  49.262  0.00  0.00    +0.155 HD
BRANCH  14  15
ATOM     15  C   UNL     1       8.685  42.059  50.854  0.00  0.00    +0.037 A 
ATOM     16  C   UNL     1       8.992  43.136  51.799  0.00  0.00    +0.013 A 
ATOM     17  C   UNL     1       9.660  42.840  53.041  0.00  0.00    +0.005 A 
ATOM     18  C   UNL     1      10.024  41.459  53.347  0.00  0.00    -0.033 A 
ATOM     28  C   UNL     1       9.703  40.409  52.395  0.00  0.00    +0.005 A 
ATOM     29  C   UNL     1       9.049  40.695  51.175  0.00  0.00    +0.013 A 
BRANCH  18  19
ATOM     19  C   UNL     1      10.758  41.054  54.639  0.00  0.00    +0.119 C 
BRANCH  19  20
ATOM     20  N   UNL     1       9.977  41.100  55.912  0.00  0.00    -0.302 NA
ATOM     21  C   UNL     1      10.728  40.438  57.071  0.00  0.00    +0.066 C 
ATOM     22  C   UNL     1       9.907  40.515  58.399  0.00  0.00    -0.064 C 
ATOM     23  N   UNL     1       8.543  39.856  58.191  0.00  0.00    +0.379 N 
ATOM     24  C   UNL     1       7.791  39.876  59.454  0.00  0.00    -0.096 C 
ATOM     25  H   UNL     1       8.720  38.790  57.919  0.00  0.00    -0.082 HD
ATOM     26  C   UNL     1       7.790  40.507  57.039  0.00  0.00    -0.064 C 
ATOM     27  C   UNL     1       8.628  40.451  55.730  0.00  0.00    +0.066 C 
ENDBRANCH  19  20
ENDBRANCH  18  19
ENDBRANCH  14  15
ENDBRANCH  12  13
TORSDOF 6
ENDMDL
MODEL 5
REMARK VINA RESULT:      -6.9      2.819     11.674
REMARK  Name = C:\Users\Docking\Desktop\test protocol\1iep_ligandH.pdb
REMARK  8 active torsions:
REMARK  status: ('A' for Active; 'I' for Inactive)
REMARK    1  A    between atoms: _5  and  _11
REMARK    2  A    between atoms: _19  and  _21
REMARK    3  A    between atoms: _22  and  _66
REMARK    4  A    between atoms: _27  and  _30
REMARK    5  A    between atoms: _32  and  _33
REMARK    6  A    between atoms: _38  and  _43
REMARK    7  A    between atoms: _43  and  _46
REMARK    8  A    between atoms: _53  and  _55
REMARK                            x       y       z     vdW  Elec       q    Type
REMARK                         _______ _______ _______ _____ _____    ______ ____
ROOT
ATOM     10  C   UNL     1       8.212  43.390  44.696  0.00  0.00    +0.038 A 
ATOM     11  C   UNL     1       8.528  43.103  46.049  0.00  0.00    +0.047 A 
ATOM     12  C   UNL     1       7.927  43.855  47.139  0.00  0.00    +0.035 A 
ATOM     32  C   UNL     1       7.006  44.894  46.815  0.00  0.00    +0.024 A 
ATOM     33  C   UNL     1       6.674  45.200  45.446  0.00  0.00    +0.007 A 
ATOM     34  C   UNL     1       7.265  44.463  44.367  0.00  0.00    -0.029 A 
ATOM     35  C   UNL     1       6.877  44.839  42.918  0.00  0.00    +0.045 C 
ENDROOT
BRANCH  10   9
ATOM      4  C   UNL     1      11.801  42.537  41.626  0.00  0.00    +0.077 A 
ATOM      5  C   UNL     1      12.517  43.708  42.045  0.00  0.00    +0.048 A 
ATOM      6  C   UNL     1      11.923  44.507  43.048  0.00  0.00    +0.116 A 
ATOM      7  N   UNL     1      10.705  44.152  43.585  0.00  0.00    -0.223 NA
ATOM      8  C   UNL     1      10.041  43.016  43.158  0.00  0.00    +0.220 A 
ATOM      9  N   UNL     1       8.818  42.636  43.690  0.00  0.00    -0.283 N 
ATOM     36  H   UNL     1       8.357  41.796  43.342  0.00  0.00    +0.155 HD
ATOM     37  N   UNL     1      10.586  42.238  42.200  0.00  0.00    -0.214 NA
BRANCH   4   3
ATOM      1  C   UNL     1      12.041  39.581  39.075  0.00  0.00    +0.020 A 
ATOM      2  C   UNL     1      11.513  40.466  40.088  0.00  0.00    +0.013 A 
ATOM      3  C   UNL     1      12.300  41.590  40.579  0.00  0.00    +0.019 A 
ATOM     38  C   UNL     1      13.627  41.794  40.019  0.00  0.00    +0.120 A 
ATOM     39  N   UNL     1      14.110  40.925  39.045  0.00  0.00    -0.263 NA
ATOM     40  C   UNL     1      13.363  39.839  38.567  0.00  0.00    +0.111 A 
ENDBRANCH   4   3
ENDBRANCH  10   9
BRANCH  12  13
ATOM     13  N   UNL     1       8.216  43.614  48.531  0.00  0.00    -0.281 N 
ATOM     14  C   UNL     1       7.970  42.465  49.264  0.00  0.00    +0.248 C 
ATOM     30  O   UNL     1       7.265  41.541  48.886  0.00  0.00    -0.270 OA
ATOM     31  H   UNL     1       8.656  44.383  49.036  0.00  0.00    +0.155 HD
BRANCH  14  15
ATOM     15  C   UNL     1       8.583  42.329  50.620  0.00  0.00    +0.037 A 
ATOM     16  C   UNL     1       9.320  43.436  51.236  0.00  0.00    +0.013 A 
ATOM     17  C   UNL     1       9.916  43.272  52.538  0.00  0.00    +0.005 A 
ATOM     18  C   UNL     1       9.777  41.996  53.234  0.00  0.00    -0.033 A 
ATOM     28  C   UNL     1       9.037  40.916  52.603  0.00  0.00    +0.005 A 
ATOM     29  C   UNL     1       8.451  41.072  51.326  0.00  0.00    +0.013 A 
BRANCH  18  19
ATOM     19  C   UNL     1      10.399  41.725  54.617  0.00  0.00    +0.119 C 
BRANCH  19  20
ATOM     20  N   UNL     1      11.880  41.548  54.678  0.00  0.00    -0.302 NA
ATOM     21  C   UNL     1      12.425  40.836  53.436  0.00  0.00    +0.066 C 
ATOM     22  C   UNL     1      13.979  40.679  53.506  0.00  0.00    -0.064 C 
ATOM     23  N   UNL     1      14.355  39.915  54.777  0.00  0.00    +0.379 N 
ATOM     24  C   UNL     1      15.811  39.715  54.817  0.00  0.00    -0.096 C 
ATOM     25  H   UNL     1      13.877  38.910  54.722  0.00  0.00    -0.082 HD
ATOM     26  C   UNL     1      13.815  40.615  56.017  0.00  0.00    -0.064 C 
ATOM     27  C   UNL     1      12.274  40.792  55.923  0.00  0.00    +0.066 C 
ENDBRANCH  19  20
ENDBRANCH  18  19
ENDBRANCH  14  15
ENDBRANCH  12  13
TORSDOF 6
ENDMDL
