MODEL 1
REMARK VINA RESULT:      -7.9      0.000      0.000
REMARK  Name = C:\Users\Docking\Desktop\test protocol\1iep_ligandH.pdb
REMARK  8 active torsions:
REMARK  status: ('A' for Active; 'I' for Inactive)
REMARK    1  A    between atoms: _5  and  _11
REMARK    2  A    between atoms: _19  and  _21
REMARK    3  A    between atoms: _22  and  _66
REMARK    4  A    between atoms: _27  and  _30
REMARK    5  A    between atoms: _32  and  _33
REMARK    6  A    between atoms: _38  and  _43
REMARK    7  A    between atoms: _43  and  _46
REMARK    8  A    between atoms: _53  and  _55
REMARK                            x       y       z     vdW  Elec       q    Type
REMARK                         _______ _______ _______ _____ _____    ______ ____
ROOT
ATOM     10  C   UNL     1       9.708  -5.112  14.855  0.00  0.00    +0.038 A 
ATOM     11  C   UNL     1       9.570  -6.479  15.208  0.00  0.00    +0.047 A 
ATOM     12  C   UNL     1       9.774  -6.927  16.576  0.00  0.00    +0.035 A 
ATOM     32  C   UNL     1      10.115  -5.956  17.562  0.00  0.00    +0.024 A 
ATOM     33  C   UNL     1      10.260  -4.563  17.221  0.00  0.00    +0.007 A 
ATOM     34  C   UNL     1      10.063  -4.115  15.872  0.00  0.00    -0.029 A 
ATOM     35  C   UNL     1      10.239  -2.610  15.563  0.00  0.00    +0.045 C 
ENDROOT
BRANCH  10   9
ATOM      4  C   UNL     1       7.101  -3.039  11.399  0.00  0.00    +0.077 A 
ATOM      5  C   UNL     1       6.050  -2.698  12.315  0.00  0.00    +0.048 A 
ATOM      6  C   UNL     1       6.216  -3.081  13.665  0.00  0.00    +0.116 A 
ATOM      7  N   UNL     1       7.353  -3.753  14.059  0.00  0.00    -0.223 NA
ATOM      8  C   UNL     1       8.346  -4.068  13.150  0.00  0.00    +0.220 A 
ATOM      9  N   UNL     1       9.501  -4.737  13.526  0.00  0.00    -0.283 N 
ATOM     36  H   UNL     1      10.207  -4.957  12.824  0.00  0.00    +0.155 HD
ATOM     37  N   UNL     1       8.211  -3.715  11.855  0.00  0.00    -0.214 NA
BRANCH   4   3
ATOM      1  C   UNL     1       6.307  -1.305   7.984  0.00  0.00    +0.020 A 
ATOM      2  C   UNL     1       6.299  -1.590   9.400  0.00  0.00    +0.013 A 
ATOM      3  C   UNL     1       7.074  -2.700   9.941  0.00  0.00    +0.019 A 
ATOM     38  C   UNL     1       7.852  -3.508   9.015  0.00  0.00    +0.120 A 
ATOM     39  N   UNL     1       7.840  -3.211   7.656  0.00  0.00    -0.263 NA
ATOM     40  C   UNL     1       7.097  -2.146   7.124  0.00  0.00    +0.111 A 
ENDBRANCH   4   3
ENDBRANCH  10   9
BRANCH  12  13
ATOM     13  N   UNL     1       9.655  -8.303  16.991  0.00  0.00    -0.281 N 
ATOM     14  C   UNL     1       8.497  -9.018  17.249  0.00  0.00    +0.248 C 
ATOM     30  O   UNL     1       7.388  -8.518  17.368  0.00  0.00    -0.270 OA
ATOM     31  H   UNL     1      10.531  -8.812  17.110  0.00  0.00    +0.155 HD
BRANCH  14  15
ATOM     15  C   UNL     1       8.585 -10.501  17.412  0.00  0.00    +0.037 A 
ATOM     16  C   UNL     1       8.797 -11.110  18.728  0.00  0.00    +0.013 A 
ATOM     17  C   UNL     1       8.895 -12.542  18.855  0.00  0.00    +0.005 A 
ATOM     18  C   UNL     1       8.780 -13.377  17.661  0.00  0.00    -0.033 A 
ATOM     28  C   UNL     1       8.565 -12.747  16.369  0.00  0.00    +0.005 A 
ATOM     29  C   UNL     1       8.469 -11.343  16.240  0.00  0.00    +0.013 A 
BRANCH  18  19
ATOM     19  C   UNL     1       8.894 -14.912  17.700  0.00  0.00    +0.119 C 
BRANCH  19  20
ATOM     20  N   UNL     1      10.163 -15.517  17.194  0.00  0.00    -0.302 NA
ATOM     21  C   UNL     1      11.377 -14.631  17.485  0.00  0.00    +0.066 C 
ATOM     22  C   UNL     1      12.698 -15.289  16.970  0.00  0.00    -0.064 C 
ATOM     23  N   UNL     1      12.576 -15.565  15.471  0.00  0.00    +0.379 N 
ATOM     24  C   UNL     1      13.838 -16.131  14.972  0.00  0.00    -0.096 C 
ATOM     25  H   UNL     1      12.418 -14.588  14.959  0.00  0.00    -0.082 HD
ATOM     26  C   UNL     1      11.370 -16.443  15.172  0.00  0.00    -0.064 C 
ATOM     27  C   UNL     1      10.066 -15.794  15.714  0.00  0.00    +0.066 C 
ENDBRANCH  19  20
ENDBRANCH  18  19
ENDBRANCH  14  15
ENDBRANCH  12  13
TORSDOF 6
ENDMDL
MODEL 2
REMARK VINA RESULT:      -7.9      5.094      7.513
REMARK  Name = C:\Users\Docking\Desktop\test protocol\1iep_ligandH.pdb
REMARK  8 active torsions:
REMARK  status: ('A' for Active; 'I' for Inactive)
REMARK    1  A    between atoms: _5  and  _11
REMARK    2  A    between atoms: _19  and  _21
REMARK    3  A    between atoms: _22  and  _66
REMARK    4  A    between atoms: _27  and  _30
REMARK    5  A    between atoms: _32  and  _33
REMARK    6  A    between atoms: _38  and  _43
REMARK    7  A    between atoms: _43  and  _46
REMARK    8  A    between atoms: _53  and  _55
REMARK                            x       y       z     vdW  Elec       q    Type
REMARK                         _______ _______ _______ _____ _____    ______ ____
ROOT
ATOM     10  C   UNL     1       7.319   0.220  13.256  0.00  0.00    +0.038 A 
ATOM     11  C   UNL     1       7.562  -0.938  14.038  0.00  0.00    +0.047 A 
ATOM     12  C   UNL     1       7.893  -2.210  13.416  0.00  0.00    +0.035 A 
ATOM     32  C   UNL     1       7.970  -2.267  11.994  0.00  0.00    +0.024 A 
ATOM     33  C   UNL     1       7.724  -1.100  11.183  0.00  0.00    +0.007 A 
ATOM     34  C   UNL     1       7.395   0.157  11.792  0.00  0.00    -0.029 A 
ATOM     35  C   UNL     1       7.136   1.374  10.873  0.00  0.00    +0.045 C 
ENDROOT
BRANCH  10   9
ATOM      4  C   UNL     1       4.194   3.227  15.312  0.00  0.00    +0.077 A 
ATOM      5  C   UNL     1       3.087   2.354  15.045  0.00  0.00    +0.048 A 
ATOM      6  C   UNL     1       3.364   1.144  14.370  0.00  0.00    +0.116 A 
ATOM      7  N   UNL     1       4.655   0.840  13.995  0.00  0.00    -0.223 NA
ATOM      8  C   UNL     1       5.699   1.705  14.267  0.00  0.00    +0.220 A 
ATOM      9  N   UNL     1       7.006   1.416  13.906  0.00  0.00    -0.283 N 
ATOM     36  H   UNL     1       7.747   2.084  14.118  0.00  0.00    +0.155 HD
ATOM     37  N   UNL     1       5.460   2.867  14.909  0.00  0.00    -0.214 NA
BRANCH   4   3
ATOM      1  C   UNL     1       4.363   7.040  16.168  0.00  0.00    +0.020 A 
ATOM      2  C   UNL     1       4.514   5.800  15.442  0.00  0.00    +0.013 A 
ATOM      3  C   UNL     1       4.062   4.540  16.020  0.00  0.00    +0.019 A 
ATOM     38  C   UNL     1       3.457   4.570  17.343  0.00  0.00    +0.120 A 
ATOM     39  N   UNL     1       3.327   5.780  18.018  0.00  0.00    -0.263 NA
ATOM     40  C   UNL     1       3.759   6.998  17.473  0.00  0.00    +0.111 A 
ENDBRANCH   4   3
ENDBRANCH  10   9
BRANCH  12  13
ATOM     13  N   UNL     1       8.142  -3.421  14.158  0.00  0.00    -0.281 N 
ATOM     14  C   UNL     1       9.112  -3.645  15.122  0.00  0.00    +0.248 C 
ATOM     30  O   UNL     1      10.054  -2.898  15.341  0.00  0.00    -0.270 OA
ATOM     31  H   UNL     1       7.530  -4.209  13.947  0.00  0.00    +0.155 HD
BRANCH  14  15
ATOM     15  C   UNL     1       9.031  -4.884  15.954  0.00  0.00    +0.037 A 
ATOM     16  C   UNL     1      10.182  -5.778  16.099  0.00  0.00    +0.013 A 
ATOM     17  C   UNL     1      10.072  -6.976  16.893  0.00  0.00    +0.005 A 
ATOM     18  C   UNL     1       8.804  -7.286  17.550  0.00  0.00    -0.033 A 
ATOM     28  C   UNL     1       7.679  -6.379  17.392  0.00  0.00    +0.005 A 
ATOM     29  C   UNL     1       7.783  -5.205  16.614  0.00  0.00    +0.013 A 
BRANCH  18  19
ATOM     19  C   UNL     1       8.590  -8.553  18.399  0.00  0.00    +0.119 C 
BRANCH  19  20
ATOM     20  N   UNL     1       9.146  -9.834  17.868  0.00  0.00    -0.302 NA
ATOM     21  C   UNL     1       8.222 -10.476  16.831  0.00  0.00    +0.066 C 
ATOM     22  C   UNL     1       8.830 -11.803  16.270  0.00  0.00    -0.064 C 
ATOM     23  N   UNL     1       9.097 -12.767  17.427  0.00  0.00    +0.379 N 
ATOM     24  C   UNL     1       9.615 -14.037  16.898  0.00  0.00    -0.096 C 
ATOM     25  H   UNL     1       8.121 -12.979  17.923  0.00  0.00    -0.082 HD
ATOM     26  C   UNL     1      10.014 -12.135  18.465  0.00  0.00    -0.064 C 
ATOM     27  C   UNL     1       9.414 -10.802  18.994  0.00  0.00    +0.066 C 
ENDBRANCH  19  20
ENDBRANCH  18  19
ENDBRANCH  14  15
ENDBRANCH  12  13
TORSDOF 6
ENDMDL
MODEL 3
REMARK VINA RESULT:      -7.9      7.542     15.592
REMARK  Name = C:\Users\Docking\Desktop\test protocol\1iep_ligandH.pdb
REMARK  8 active torsions:
REMARK  status: ('A' for Active; 'I' for Inactive)
REMARK    1  A    between atoms: _5  and  _11
REMARK    2  A    between atoms: _19  and  _21
REMARK    3  A    between atoms: _22  and  _66
REMARK    4  A    between atoms: _27  and  _30
REMARK    5  A    between atoms: _32  and  _33
REMARK    6  A    between atoms: _38  and  _43
REMARK    7  A    between atoms: _43  and  _46
REMARK    8  A    between atoms: _53  and  _55
REMARK                            x       y       z     vdW  Elec       q    Type
REMARK                         _______ _______ _______ _____ _____    ______ ____
ROOT
ATOM     10  C   UNL     1       7.627  -1.760  12.928  0.00  0.00    +0.038 A 
ATOM     11  C   UNL     1       7.052  -0.598  13.502  0.00  0.00    +0.047 A 
ATOM     12  C   UNL     1       7.195   0.704  12.868  0.00  0.00    +0.035 A 
ATOM     32  C   UNL     1       7.930   0.784  11.649  0.00  0.00    +0.024 A 
ATOM     33  C   UNL     1       8.522  -0.387  11.053  0.00  0.00    +0.007 A 
ATOM     34  C   UNL     1       8.386  -1.673  11.675  0.00  0.00    -0.029 A 
ATOM     35  C   UNL     1       9.048  -2.894  10.994  0.00  0.00    +0.045 C 
ENDROOT
BRANCH  10   9
ATOM      4  C   UNL     1       9.002  -5.096  16.093  0.00  0.00    +0.077 A 
ATOM      5  C   UNL     1      10.170  -4.350  16.462  0.00  0.00    +0.048 A 
ATOM      6  C   UNL     1      10.385  -3.116  15.809  0.00  0.00    +0.116 A 
ATOM      7  N   UNL     1       9.491  -2.671  14.859  0.00  0.00    -0.223 NA
ATOM      8  C   UNL     1       8.375  -3.416  14.526  0.00  0.00    +0.220 A 
ATOM      9  N   UNL     1       7.458  -2.984  13.579  0.00  0.00    -0.283 N 
ATOM     36  H   UNL     1       6.651  -3.567  13.356  0.00  0.00    +0.155 HD
ATOM     37  N   UNL     1       8.148  -4.599  15.134  0.00  0.00    -0.214 NA
BRANCH   4   3
ATOM      1  C   UNL     1       9.100  -8.840  17.223  0.00  0.00    +0.020 A 
ATOM      2  C   UNL     1       9.500  -7.588  16.623  0.00  0.00    +0.013 A 
ATOM      3  C   UNL     1       8.636  -6.417  16.697  0.00  0.00    +0.019 A 
ATOM     38  C   UNL     1       7.364  -6.546  17.392  0.00  0.00    +0.120 A 
ATOM     39  N   UNL     1       7.005  -7.765  17.959  0.00  0.00    -0.263 NA
ATOM     40  C   UNL     1       7.827  -8.900  17.893  0.00  0.00    +0.111 A 
ENDBRANCH   4   3
ENDBRANCH  10   9
BRANCH  12  13
ATOM     13  N   UNL     1       6.640   1.920  13.408  0.00  0.00    -0.281 N 
ATOM     14  C   UNL     1       5.310   2.207  13.669  0.00  0.00    +0.248 C 
ATOM     30  O   UNL     1       4.368   1.535  13.276  0.00  0.00    -0.270 OA
ATOM     31  H   UNL     1       7.309   2.660  13.624  0.00  0.00    +0.155 HD
BRANCH  14  15
ATOM     15  C   UNL     1       4.977   3.424  14.470  0.00  0.00    +0.037 A 
ATOM     16  C   UNL     1       5.095   3.428  15.930  0.00  0.00    +0.013 A 
ATOM     17  C   UNL     1       4.751   4.610  16.680  0.00  0.00    +0.005 A 
ATOM     18  C   UNL     1       4.288   5.800  15.969  0.00  0.00    -0.033 A 
ATOM     28  C   UNL     1       4.186   5.770  14.520  0.00  0.00    +0.005 A 
ATOM     29  C   UNL     1       4.521   4.613  13.782  0.00  0.00    +0.013 A 
BRANCH  18  19
ATOM     19  C   UNL     1       3.880   7.099  16.690  0.00  0.00    +0.119 C 
BRANCH  19  20
ATOM     20  N   UNL     1       2.892   7.981  16.001  0.00  0.00    -0.302 NA
ATOM     21  C   UNL     1       3.430   9.401  15.804  0.00  0.00    +0.066 C 
ATOM     22  C   UNL     1       2.392  10.305  15.061  0.00  0.00    -0.064 C 
ATOM     23  N   UNL     1       1.082  10.327  15.850  0.00  0.00    +0.379 N 
ATOM     24  C   UNL     1       0.124  11.221  15.186  0.00  0.00    -0.096 C 
ATOM     25  H   UNL     1       1.301  10.753  16.857  0.00  0.00    -0.082 HD
ATOM     26  C   UNL     1       0.542   8.918  16.053  0.00  0.00    -0.064 C 
ATOM     27  C   UNL     1       1.592   8.021  16.766  0.00  0.00    +0.066 C 
ENDBRANCH  19  20
ENDBRANCH  18  19
ENDBRANCH  14  15
ENDBRANCH  12  13
TORSDOF 6
ENDMDL
MODEL 4
REMARK VINA RESULT:      -7.7      6.972     14.535
REMARK  Name = C:\Users\Docking\Desktop\test protocol\1iep_ligandH.pdb
REMARK  8 active torsions:
REMARK  status: ('A' for Active; 'I' for Inactive)
REMARK    1  A    between atoms: _5  and  _11
REMARK    2  A    between atoms: _19  and  _21
REMARK    3  A    between atoms: _22  and  _66
REMARK    4  A    between atoms: _27  and  _30
REMARK    5  A    between atoms: _32  and  _33
REMARK    6  A    between atoms: _38  and  _43
REMARK    7  A    between atoms: _43  and  _46
REMARK    8  A    between atoms: _53  and  _55
REMARK                            x       y       z     vdW  Elec       q    Type
REMARK                         _______ _______ _______ _____ _____    ______ ____
ROOT
ATOM     10  C   UNL     1       7.444  -1.695  13.072  0.00  0.00    +0.038 A 
ATOM     11  C   UNL     1       6.949  -0.540  13.731  0.00  0.00    +0.047 A 
ATOM     12  C   UNL     1       7.061   0.778  13.125  0.00  0.00    +0.035 A 
ATOM     32  C   UNL     1       7.681   0.883  11.846  0.00  0.00    +0.024 A 
ATOM     33  C   UNL     1       8.190  -0.280  11.162  0.00  0.00    +0.007 A 
ATOM     34  C   UNL     1       8.084  -1.582  11.756  0.00  0.00    -0.029 A 
ATOM     35  C   UNL     1       8.653  -2.794  10.981  0.00  0.00    +0.045 C 
ENDROOT
BRANCH  10   9
ATOM      4  C   UNL     1       8.973  -5.098  16.091  0.00  0.00    +0.077 A 
ATOM      5  C   UNL     1      10.152  -4.354  16.427  0.00  0.00    +0.048 A 
ATOM      6  C   UNL     1      10.332  -3.103  15.795  0.00  0.00    +0.116 A 
ATOM      7  N   UNL     1       9.395  -2.640  14.896  0.00  0.00    -0.223 NA
ATOM      8  C   UNL     1       8.269  -3.384  14.594  0.00  0.00    +0.220 A 
ATOM      9  N   UNL     1       7.310  -2.935  13.699  0.00  0.00    -0.283 N 
ATOM     36  H   UNL     1       6.497  -3.517  13.498  0.00  0.00    +0.155 HD
ATOM     37  N   UNL     1       8.075  -4.583  15.183  0.00  0.00    -0.214 NA
BRANCH   4   3
ATOM      1  C   UNL     1       9.170  -8.849  17.181  0.00  0.00    +0.020 A 
ATOM      2  C   UNL     1       9.539  -7.580  16.598  0.00  0.00    +0.013 A 
ATOM      3  C   UNL     1       8.641  -6.435  16.678  0.00  0.00    +0.019 A 
ATOM     38  C   UNL     1       7.368  -6.608  17.361  0.00  0.00    +0.120 A 
ATOM     39  N   UNL     1       7.039  -7.843  17.912  0.00  0.00    -0.263 NA
ATOM     40  C   UNL     1       7.895  -8.953  17.840  0.00  0.00    +0.111 A 
ENDBRANCH   4   3
ENDBRANCH  10   9
BRANCH  12  13
ATOM     13  N   UNL     1       6.585   1.987  13.750  0.00  0.00    -0.281 N 
ATOM     14  C   UNL     1       5.273   2.379  13.957  0.00  0.00    +0.248 C 
ATOM     30  O   UNL     1       4.302   1.844  13.442  0.00  0.00    -0.270 OA
ATOM     31  H   UNL     1       7.303   2.632  14.080  0.00  0.00    +0.155 HD
BRANCH  14  15
ATOM     15  C   UNL     1       5.000   3.542  14.856  0.00  0.00    +0.037 A 
ATOM     16  C   UNL     1       5.436   3.540  16.254  0.00  0.00    +0.013 A 
ATOM     17  C   UNL     1       5.144   4.668  17.104  0.00  0.00    +0.005 A 
ATOM     18  C   UNL     1       4.413   5.808  16.555  0.00  0.00    -0.033 A 
ATOM     28  C   UNL     1       3.997   5.785  15.163  0.00  0.00    +0.005 A 
ATOM     29  C   UNL     1       4.280   4.681  14.327  0.00  0.00    +0.013 A 
BRANCH  18  19
ATOM     19  C   UNL     1       4.040   7.044  17.394  0.00  0.00    +0.119 C 
BRANCH  19  20
ATOM     20  N   UNL     1       3.219   6.816  18.620  0.00  0.00    -0.302 NA
ATOM     21  C   UNL     1       4.054   6.258  19.776  0.00  0.00    +0.066 C 
ATOM     22  C   UNL     1       3.183   6.047  21.057  0.00  0.00    -0.064 C 
ATOM     23  N   UNL     1       2.018   5.112  20.730  0.00  0.00    +0.379 N 
ATOM     24  C   UNL     1       1.230   4.865  21.947  0.00  0.00    -0.096 C 
ATOM     25  H   UNL     1       2.448   4.137  20.402  0.00  0.00    -0.082 HD
ATOM     26  C   UNL     1       1.183   5.658  19.580  0.00  0.00    -0.064 C 
ATOM     27  C   UNL     1       2.064   5.892  18.321  0.00  0.00    +0.066 C 
ENDBRANCH  19  20
ENDBRANCH  18  19
ENDBRANCH  14  15
ENDBRANCH  12  13
TORSDOF 6
ENDMDL
MODEL 5
REMARK VINA RESULT:      -7.7      9.355     13.676
REMARK  Name = C:\Users\Docking\Desktop\test protocol\1iep_ligandH.pdb
REMARK  8 active torsions:
REMARK  status: ('A' for Active; 'I' for Inactive)
REMARK    1  A    between atoms: _5  and  _11
REMARK    2  A    between atoms: _19  and  _21
REMARK    3  A    between atoms: _22  and  _66
REMARK    4  A    between atoms: _27  and  _30
REMARK    5  A    between atoms: _32  and  _33
REMARK    6  A    between atoms: _38  and  _43
REMARK    7  A    between atoms: _43  and  _46
REMARK    8  A    between atoms: _53  and  _55
REMARK                            x       y       z     vdW  Elec       q    Type
REMARK                         _______ _______ _______ _____ _____    ______ ____
ROOT
ATOM     10  C   UNL     1       4.343   5.829  17.375  0.00  0.00    +0.038 A 
ATOM     11  C   UNL     1       4.766   4.568  16.882  0.00  0.00    +0.047 A 
ATOM     12  C   UNL     1       4.179   3.995  15.680  0.00  0.00    +0.035 A 
ATOM     32  C   UNL     1       3.165   4.735  15.004  0.00  0.00    +0.024 A 
ATOM     33  C   UNL     1       2.723   6.017  15.492  0.00  0.00    +0.007 A 
ATOM     34  C   UNL     1       3.297   6.587  16.678  0.00  0.00    -0.029 A 
ATOM     35  C   UNL     1       2.779   7.963  17.159  0.00  0.00    +0.045 C 
ENDROOT
BRANCH  10   9
ATOM      4  C   UNL     1       4.440   6.546  22.119  0.00  0.00    +0.077 A 
ATOM      5  C   UNL     1       3.180   5.886  22.304  0.00  0.00    +0.048 A 
ATOM      6  C   UNL     1       2.536   5.383  21.152  0.00  0.00    +0.116 A 
ATOM      7  N   UNL     1       3.118   5.533  19.912  0.00  0.00    -0.223 NA
ATOM      8  C   UNL     1       4.333   6.177  19.769  0.00  0.00    +0.220 A 
ATOM      9  N   UNL     1       4.941   6.332  18.532  0.00  0.00    -0.283 N 
ATOM     36  H   UNL     1       5.834   6.819  18.467  0.00  0.00    +0.155 HD
ATOM     37  N   UNL     1       4.968   6.668  20.853  0.00  0.00    -0.214 NA
BRANCH   4   3
ATOM      1  C   UNL     1       5.517   8.620  25.256  0.00  0.00    +0.020 A 
ATOM      2  C   UNL     1       4.698   8.088  24.192  0.00  0.00    +0.013 A 
ATOM      3  C   UNL     1       5.244   7.129  23.240  0.00  0.00    +0.019 A 
ATOM     38  C   UNL     1       6.633   6.725  23.395  0.00  0.00    +0.120 A 
ATOM     39  N   UNL     1       7.398   7.255  24.430  0.00  0.00    -0.263 NA
ATOM     40  C   UNL     1       6.884   8.180  25.350  0.00  0.00    +0.111 A 
ENDBRANCH   4   3
ENDBRANCH  10   9
BRANCH  12  13
ATOM     13  N   UNL     1       4.561   2.715  15.137  0.00  0.00    -0.281 N 
ATOM     14  C   UNL     1       5.393   2.462  14.059  0.00  0.00    +0.248 C 
ATOM     30  O   UNL     1       5.767   3.309  13.261  0.00  0.00    -0.270 OA
ATOM     31  H   UNL     1       4.172   1.896  15.605  0.00  0.00    +0.155 HD
BRANCH  14  15
ATOM     15  C   UNL     1       5.867   1.064  13.825  0.00  0.00    +0.037 A 
ATOM     16  C   UNL     1       7.026   0.787  12.973  0.00  0.00    +0.013 A 
ATOM     17  C   UNL     1       7.452  -0.572  12.750  0.00  0.00    +0.005 A 
ATOM     18  C   UNL     1       6.718  -1.665  13.383  0.00  0.00    -0.033 A 
ATOM     28  C   UNL     1       5.575  -1.362  14.227  0.00  0.00    +0.005 A 
ATOM     29  C   UNL     1       5.154  -0.031  14.447  0.00  0.00    +0.013 A 
BRANCH  18  19
ATOM     19  C   UNL     1       7.089  -3.147  13.184  0.00  0.00    +0.119 C 
BRANCH  19  20
ATOM     20  N   UNL     1       7.969  -3.776  14.213  0.00  0.00    -0.302 NA
ATOM     21  C   UNL     1       8.914  -4.815  13.603  0.00  0.00    +0.066 C 
ATOM     22  C   UNL     1       9.843  -5.447  14.690  0.00  0.00    -0.064 C 
ATOM     23  N   UNL     1       8.984  -6.074  15.790  0.00  0.00    +0.379 N 
ATOM     24  C   UNL     1       9.854  -6.719  16.784  0.00  0.00    -0.096 C 
ATOM     25  H   UNL     1       8.361  -6.869  15.319  0.00  0.00    -0.082 HD
ATOM     26  C   UNL     1       8.040  -5.048  16.400  0.00  0.00    -0.064 C 
ATOM     27  C   UNL     1       7.142  -4.405  15.306  0.00  0.00    +0.066 C 
ENDBRANCH  19  20
ENDBRANCH  18  19
ENDBRANCH  14  15
ENDBRANCH  12  13
TORSDOF 6
ENDMDL
