MODEL 1
REMARK VINA RESULT:      -9.5      0.000      0.000
REMARK  Name = C:\Users\Docking\Desktop\test protocol\1iep_ligandH.pdb
REMARK  8 active torsions:
REMARK  status: ('A' for Active; 'I' for Inactive)
REMARK    1  A    between atoms: _5  and  _11
REMARK    2  A    between atoms: _19  and  _21
REMARK    3  A    between atoms: _22  and  _66
REMARK    4  A    between atoms: _27  and  _30
REMARK    5  A    between atoms: _32  and  _33
REMARK    6  A    between atoms: _38  and  _43
REMARK    7  A    between atoms: _43  and  _46
REMARK    8  A    between atoms: _53  and  _55
REMARK                            x       y       z     vdW  Elec       q    Type
REMARK                         _______ _______ _______ _____ _____    ______ ____
ROOT
ATOM     10  C   UNL     1     148.360 -34.730  74.480  0.00  0.00    +0.038 A 
ATOM     11  C   UNL     1     147.583 -33.546  74.390  0.00  0.00    +0.047 A 
ATOM     12  C   UNL     1     146.234 -33.571  73.845  0.00  0.00    +0.035 A 
ATOM     32  C   UNL     1     145.707 -34.819  73.404  0.00  0.00    +0.024 A 
ATOM     33  C   UNL     1     146.483 -36.032  73.487  0.00  0.00    +0.007 A 
ATOM     34  C   UNL     1     147.815 -36.013  74.021  0.00  0.00    -0.029 A 
ATOM     35  C   UNL     1     148.603 -37.342  74.081  0.00  0.00    +0.045 C 
ENDROOT
BRANCH  10   9
ATOM      4  C   UNL     1     151.591 -35.655  77.906  0.00  0.00    +0.077 A 
ATOM      5  C   UNL     1     150.623 -36.336  78.718  0.00  0.00    +0.048 A 
ATOM      6  C   UNL     1     149.303 -36.419  78.221  0.00  0.00    +0.116 A 
ATOM      7  N   UNL     1     148.986 -35.861  77.002  0.00  0.00    -0.223 NA
ATOM      8  C   UNL     1     149.943 -35.210  76.245  0.00  0.00    +0.220 A 
ATOM      9  N   UNL     1     149.648 -34.648  75.012  0.00  0.00    -0.283 N 
ATOM     36  H   UNL     1     150.381 -34.170  74.488  0.00  0.00    +0.155 HD
ATOM     37  N   UNL     1     151.211 -35.115  76.698  0.00  0.00    -0.214 NA
BRANCH   4   3
ATOM      1  C   UNL     1     154.866 -35.205  79.998  0.00  0.00    +0.020 A 
ATOM      2  C   UNL     1     153.466 -35.366  79.678  0.00  0.00    +0.013 A 
ATOM      3  C   UNL     1     153.028 -35.487  78.294  0.00  0.00    +0.019 A 
ATOM     38  C   UNL     1     154.039 -35.443  77.248  0.00  0.00    +0.120 A 
ATOM     39  N   UNL     1     155.379 -35.286  77.587  0.00  0.00    -0.263 NA
ATOM     40  C   UNL     1     155.813 -35.167  78.916  0.00  0.00    +0.111 A 
ENDBRANCH   4   3
ENDBRANCH  10   9
BRANCH  12  13
ATOM     13  N   UNL     1     145.401 -32.400  73.722  0.00  0.00    -0.281 N 
ATOM     14  C   UNL     1     144.818 -31.659  74.736  0.00  0.00    +0.248 C 
ATOM     30  O   UNL     1     144.749 -32.018  75.902  0.00  0.00    -0.270 OA
ATOM     31  H   UNL     1     145.220 -32.079  72.770  0.00  0.00    +0.155 HD
BRANCH  14  15
ATOM     15  C   UNL     1     144.211 -30.334  74.405  0.00  0.00    +0.037 A 
ATOM     16  C   UNL     1     144.658 -29.107  75.068  0.00  0.00    +0.013 A 
ATOM     17  C   UNL     1     144.043 -27.844  74.742  0.00  0.00    +0.005 A 
ATOM     18  C   UNL     1     142.976 -27.803  73.746  0.00  0.00    -0.033 A 
ATOM     28  C   UNL     1     142.556 -29.035  73.099  0.00  0.00    +0.005 A 
ATOM     29  C   UNL     1     143.155 -30.274  73.417  0.00  0.00    +0.013 A 
BRANCH  18  19
ATOM     19  C   UNL     1     142.250 -26.503  73.351  0.00  0.00    +0.119 C 
BRANCH  19  20
ATOM     20  N   UNL     1     143.054 -25.454  72.656  0.00  0.00    -0.302 NA
ATOM     21  C   UNL     1     143.983 -26.052  71.595  0.00  0.00    +0.066 C 
ATOM     22  C   UNL     1     144.801 -24.939  70.862  0.00  0.00    -0.064 C 
ATOM     23  N   UNL     1     145.599 -24.135  71.890  0.00  0.00    +0.379 N 
ATOM     24  C   UNL     1     146.413 -23.125  71.199  0.00  0.00    -0.096 C 
ATOM     25  H   UNL     1     146.295 -24.839  72.403  0.00  0.00    -0.082 HD
ATOM     26  C   UNL     1     144.682 -23.539  72.950  0.00  0.00    -0.064 C 
ATOM     27  C   UNL     1     143.853 -24.651  73.652  0.00  0.00    +0.066 C 
ENDBRANCH  19  20
ENDBRANCH  18  19
ENDBRANCH  14  15
ENDBRANCH  12  13
TORSDOF 6
ENDMDL
MODEL 2
REMARK VINA RESULT:      -9.2     23.661     29.200
REMARK  Name = C:\Users\Docking\Desktop\test protocol\1iep_ligandH.pdb
REMARK  8 active torsions:
REMARK  status: ('A' for Active; 'I' for Inactive)
REMARK    1  A    between atoms: _5  and  _11
REMARK    2  A    between atoms: _19  and  _21
REMARK    3  A    between atoms: _22  and  _66
REMARK    4  A    between atoms: _27  and  _30
REMARK    5  A    between atoms: _32  and  _33
REMARK    6  A    between atoms: _38  and  _43
REMARK    7  A    between atoms: _43  and  _46
REMARK    8  A    between atoms: _53  and  _55
REMARK                            x       y       z     vdW  Elec       q    Type
REMARK                         _______ _______ _______ _____ _____    ______ ____
ROOT
ATOM     10  C   UNL     1     133.748 -14.707  94.920  0.00  0.00    +0.038 A 
ATOM     11  C   UNL     1     133.892 -15.941  94.237  0.00  0.00    +0.047 A 
ATOM     12  C   UNL     1     135.203 -16.534  94.023  0.00  0.00    +0.035 A 
ATOM     32  C   UNL     1     136.347 -15.844  94.521  0.00  0.00    +0.024 A 
ATOM     33  C   UNL     1     136.218 -14.588  95.217  0.00  0.00    +0.007 A 
ATOM     34  C   UNL     1     134.928 -13.997  95.429  0.00  0.00    -0.029 A 
ATOM     35  C   UNL     1     134.850 -12.645  96.176  0.00  0.00    +0.045 C 
ENDROOT
BRANCH  10   9
ATOM      4  C   UNL     1     129.808 -12.512  93.278  0.00  0.00    +0.077 A 
ATOM      5  C   UNL     1     130.363 -12.373  91.962  0.00  0.00    +0.048 A 
ATOM      6  C   UNL     1     131.667 -12.873  91.751  0.00  0.00    +0.116 A 
ATOM      7  N   UNL     1     132.357 -13.466  92.787  0.00  0.00    -0.223 NA
ATOM      8  C   UNL     1     131.793 -13.583  94.044  0.00  0.00    +0.220 A 
ATOM      9  N   UNL     1     132.466 -14.183  95.098  0.00  0.00    -0.283 N 
ATOM     36  H   UNL     1     132.019 -14.243  96.012  0.00  0.00    +0.155 HD
ATOM     37  N   UNL     1     130.550 -13.112  94.271  0.00  0.00    -0.214 NA
BRANCH   4   3
ATOM      1  C   UNL     1     126.635 -11.535  95.346  0.00  0.00    +0.020 A 
ATOM      2  C   UNL     1     127.966 -12.004  95.034  0.00  0.00    +0.013 A 
ATOM      3  C   UNL     1     128.440 -12.036  93.657  0.00  0.00    +0.019 A 
ATOM     38  C   UNL     1     127.537 -11.583  92.610  0.00  0.00    +0.120 A 
ATOM     39  N   UNL     1     126.260 -11.138  92.940  0.00  0.00    -0.263 NA
ATOM     40  C   UNL     1     125.792 -11.104  94.262  0.00  0.00    +0.111 A 
ENDBRANCH   4   3
ENDBRANCH  10   9
BRANCH  12  13
ATOM     13  N   UNL     1     135.412 -17.781  93.329  0.00  0.00    -0.281 N 
ATOM     14  C   UNL     1     134.991 -18.128  92.056  0.00  0.00    +0.248 C 
ATOM     30  O   UNL     1     134.182 -17.491  91.398  0.00  0.00    -0.270 OA
ATOM     31  H   UNL     1     135.934 -18.494  93.839  0.00  0.00    +0.155 HD
BRANCH  14  15
ATOM     15  C   UNL     1     135.537 -19.370  91.428  0.00  0.00    +0.037 A 
ATOM     16  C   UNL     1     134.689 -20.542  91.200  0.00  0.00    +0.013 A 
ATOM     17  C   UNL     1     135.245 -21.733  90.609  0.00  0.00    +0.005 A 
ATOM     18  C   UNL     1     136.658 -21.757  90.239  0.00  0.00    -0.033 A 
ATOM     28  C   UNL     1     137.476 -20.578  90.472  0.00  0.00    +0.005 A 
ATOM     29  C   UNL     1     136.934 -19.409  91.053  0.00  0.00    +0.013 A 
BRANCH  18  19
ATOM     19  C   UNL     1     137.341 -22.992  89.622  0.00  0.00    +0.119 C 
BRANCH  19  20
ATOM     20  N   UNL     1     138.707 -23.336  90.117  0.00  0.00    -0.302 NA
ATOM     21  C   UNL     1     139.436 -24.294  89.170  0.00  0.00    +0.066 C 
ATOM     22  C   UNL     1     140.872 -24.626  89.692  0.00  0.00    -0.064 C 
ATOM     23  N   UNL     1     140.777 -25.222  91.097  0.00  0.00    +0.379 N 
ATOM     24  C   UNL     1     142.120 -25.589  91.567  0.00  0.00    -0.096 C 
ATOM     25  H   UNL     1     140.175 -26.159  91.026  0.00  0.00    -0.082 HD
ATOM     26  C   UNL     1     140.050 -24.278  92.044  0.00  0.00    -0.064 C 
ATOM     27  C   UNL     1     138.636 -23.931  91.502  0.00  0.00    +0.066 C 
ENDBRANCH  19  20
ENDBRANCH  18  19
ENDBRANCH  14  15
ENDBRANCH  12  13
TORSDOF 6
ENDMDL
MODEL 3
REMARK VINA RESULT:      -9.1     10.768     20.392
REMARK  Name = C:\Users\Docking\Desktop\test protocol\1iep_ligandH.pdb
REMARK  8 active torsions:
REMARK  status: ('A' for Active; 'I' for Inactive)
REMARK    1  A    between atoms: _5  and  _11
REMARK    2  A    between atoms: _19  and  _21
REMARK    3  A    between atoms: _22  and  _66
REMARK    4  A    between atoms: _27  and  _30
REMARK    5  A    between atoms: _32  and  _33
REMARK    6  A    between atoms: _38  and  _43
REMARK    7  A    between atoms: _43  and  _46
REMARK    8  A    between atoms: _53  and  _55
REMARK                            x       y       z     vdW  Elec       q    Type
REMARK                         _______ _______ _______ _____ _____    ______ ____
ROOT
ATOM     10  C   UNL     1     136.421 -18.951  66.230  0.00  0.00    +0.038 A 
ATOM     11  C   UNL     1     137.266 -19.929  66.812  0.00  0.00    +0.047 A 
ATOM     12  C   UNL     1     138.397 -19.547  67.644  0.00  0.00    +0.035 A 
ATOM     32  C   UNL     1     138.635 -18.160  67.864  0.00  0.00    +0.024 A 
ATOM     33  C   UNL     1     137.786 -17.152  67.280  0.00  0.00    +0.007 A 
ATOM     34  C   UNL     1     136.671 -17.522  66.456  0.00  0.00    -0.029 A 
ATOM     35  C   UNL     1     135.798 -16.399  65.849  0.00  0.00    +0.045 C 
ENDROOT
BRANCH  10   9
ATOM      4  C   UNL     1     134.366 -19.766  61.969  0.00  0.00    +0.077 A 
ATOM      5  C   UNL     1     135.515 -19.283  61.257  0.00  0.00    +0.048 A 
ATOM      6  C   UNL     1     136.610 -18.828  62.025  0.00  0.00    +0.116 A 
ATOM      7  N   UNL     1     136.551 -18.858  63.401  0.00  0.00    -0.223 NA
ATOM      8  C   UNL     1     135.428 -19.327  64.056  0.00  0.00    +0.220 A 
ATOM      9  N   UNL     1     135.349 -19.374  65.440  0.00  0.00    -0.283 N 
ATOM     36  H   UNL     1     134.500 -19.720  65.885  0.00  0.00    +0.155 HD
ATOM     37  N   UNL     1     134.368 -19.767  63.346  0.00  0.00    -0.214 NA
BRANCH   4   3
ATOM      1  C   UNL     1     131.696 -20.694  59.266  0.00  0.00    +0.020 A 
ATOM      2  C   UNL     1     132.906 -20.177  59.863  0.00  0.00    +0.013 A 
ATOM      3  C   UNL     1     133.132 -20.283  61.299  0.00  0.00    +0.019 A 
ATOM     38  C   UNL     1     132.106 -20.924  62.109  0.00  0.00    +0.120 A 
ATOM     39  N   UNL     1     130.951 -21.411  61.506  0.00  0.00    -0.263 NA
ATOM     40  C   UNL     1     130.721 -21.313  60.125  0.00  0.00    +0.111 A 
ENDBRANCH   4   3
ENDBRANCH  10   9
BRANCH  12  13
ATOM     13  N   UNL     1     139.295 -20.496  68.255  0.00  0.00    -0.281 N 
ATOM     14  C   UNL     1     140.083 -21.448  67.629  0.00  0.00    +0.248 C 
ATOM     30  O   UNL     1     139.974 -21.772  66.456  0.00  0.00    -0.270 OA
ATOM     31  H   UNL     1     139.357 -20.461  69.273  0.00  0.00    +0.155 HD
BRANCH  14  15
ATOM     15  C   UNL     1     141.135 -22.151  68.424  0.00  0.00    +0.037 A 
ATOM     16  C   UNL     1     141.138 -23.610  68.559  0.00  0.00    +0.013 A 
ATOM     17  C   UNL     1     142.155 -24.262  69.346  0.00  0.00    +0.005 A 
ATOM     18  C   UNL     1     143.178 -23.454  70.004  0.00  0.00    -0.033 A 
ATOM     28  C   UNL     1     143.155 -22.008  69.850  0.00  0.00    +0.005 A 
ATOM     29  C   UNL     1     142.159 -21.366  69.080  0.00  0.00    +0.013 A 
BRANCH  18  19
ATOM     19  C   UNL     1     144.288 -24.062  70.881  0.00  0.00    +0.119 C 
BRANCH  19  20
ATOM     20  N   UNL     1     143.916 -24.474  72.268  0.00  0.00    -0.302 NA
ATOM     21  C   UNL     1     144.758 -23.755  73.326  0.00  0.00    +0.066 C 
ATOM     22  C   UNL     1     144.340 -24.181  74.771  0.00  0.00    -0.064 C 
ATOM     23  N   UNL     1     144.474 -25.698  74.912  0.00  0.00    +0.379 N 
ATOM     24  C   UNL     1     144.138 -26.095  76.287  0.00  0.00    -0.096 C 
ATOM     25  H   UNL     1     145.543 -25.960  74.736  0.00  0.00    -0.082 HD
ATOM     26  C   UNL     1     143.643 -26.421  73.861  0.00  0.00    -0.064 C 
ATOM     27  C   UNL     1     144.046 -25.969  72.430  0.00  0.00    +0.066 C 
ENDBRANCH  19  20
ENDBRANCH  18  19
ENDBRANCH  14  15
ENDBRANCH  12  13
TORSDOF 6
ENDMDL
MODEL 4
REMARK VINA RESULT:      -8.7     14.593     21.378
REMARK  Name = C:\Users\Docking\Desktop\test protocol\1iep_ligandH.pdb
REMARK  8 active torsions:
REMARK  status: ('A' for Active; 'I' for Inactive)
REMARK    1  A    between atoms: _5  and  _11
REMARK    2  A    between atoms: _19  and  _21
REMARK    3  A    between atoms: _22  and  _66
REMARK    4  A    between atoms: _27  and  _30
REMARK    5  A    between atoms: _32  and  _33
REMARK    6  A    between atoms: _38  and  _43
REMARK    7  A    between atoms: _43  and  _46
REMARK    8  A    between atoms: _53  and  _55
REMARK                            x       y       z     vdW  Elec       q    Type
REMARK                         _______ _______ _______ _____ _____    ______ ____
ROOT
ATOM     10  C   UNL     1     134.819 -13.798  76.389  0.00  0.00    +0.038 A 
ATOM     11  C   UNL     1     135.105 -14.636  75.282  0.00  0.00    +0.047 A 
ATOM     12  C   UNL     1     136.030 -14.217  74.240  0.00  0.00    +0.035 A 
ATOM     32  C   UNL     1     136.646 -12.937  74.359  0.00  0.00    +0.024 A 
ATOM     33  C   UNL     1     136.365 -12.072  75.478  0.00  0.00    +0.007 A 
ATOM     34  C   UNL     1     135.453 -12.479  76.507  0.00  0.00    -0.029 A 
ATOM     35  C   UNL     1     135.184 -11.508  77.680  0.00  0.00    +0.045 C 
ENDROOT
BRANCH  10   9
ATOM      4  C   UNL     1     133.834 -15.989  80.545  0.00  0.00    +0.077 A 
ATOM      5  C   UNL     1     135.218 -16.278  80.788  0.00  0.00    +0.048 A 
ATOM      6  C   UNL     1     136.151 -15.853  79.816  0.00  0.00    +0.116 A 
ATOM      7  N   UNL     1     135.720 -15.187  78.688  0.00  0.00    -0.223 NA
ATOM      8  C   UNL     1     134.378 -14.926  78.484  0.00  0.00    +0.220 A 
ATOM      9  N   UNL     1     133.923 -14.251  77.361  0.00  0.00    -0.283 N 
ATOM     36  H   UNL     1     132.924 -14.084  77.243  0.00  0.00    +0.155 HD
ATOM     37  N   UNL     1     133.468 -15.323  79.397  0.00  0.00    -0.214 NA
BRANCH   4   3
ATOM      1  C   UNL     1     130.318 -16.901  81.994  0.00  0.00    +0.020 A 
ATOM      2  C   UNL     1     131.346 -16.530  81.050  0.00  0.00    +0.013 A 
ATOM      3  C   UNL     1     132.730 -16.371  81.481  0.00  0.00    +0.019 A 
ATOM     38  C   UNL     1     133.041 -16.597  82.884  0.00  0.00    +0.120 A 
ATOM     39  N   UNL     1     132.029 -16.952  83.770  0.00  0.00    -0.263 NA
ATOM     40  C   UNL     1     130.694 -17.107  83.368  0.00  0.00    +0.111 A 
ENDBRANCH   4   3
ENDBRANCH  10   9
BRANCH  12  13
ATOM     13  N   UNL     1     136.353 -15.022  73.088  0.00  0.00    -0.281 N 
ATOM     14  C   UNL     1     137.605 -15.434  72.662  0.00  0.00    +0.248 C 
ATOM     30  O   UNL     1     138.661 -14.992  73.090  0.00  0.00    -0.270 OA
ATOM     31  H   UNL     1     135.564 -15.324  72.518  0.00  0.00    +0.155 HD
BRANCH  14  15
ATOM     15  C   UNL     1     137.698 -16.478  71.596  0.00  0.00    +0.037 A 
ATOM     16  C   UNL     1     138.061 -16.129  70.220  0.00  0.00    +0.013 A 
ATOM     17  C   UNL     1     138.126 -17.153  69.208  0.00  0.00    +0.005 A 
ATOM     18  C   UNL     1     137.829 -18.537  69.569  0.00  0.00    -0.033 A 
ATOM     28  C   UNL     1     137.476 -18.856  70.942  0.00  0.00    +0.005 A 
ATOM     29  C   UNL     1     137.410 -17.855  71.937  0.00  0.00    +0.013 A 
BRANCH  18  19
ATOM     19  C   UNL     1     137.853 -19.691  68.549  0.00  0.00    +0.119 C 
BRANCH  19  20
ATOM     20  N   UNL     1     139.015 -20.628  68.605  0.00  0.00    -0.302 NA
ATOM     21  C   UNL     1     140.354 -19.886  68.567  0.00  0.00    +0.066 C 
ATOM     22  C   UNL     1     141.558 -20.880  68.649  0.00  0.00    -0.064 C 
ATOM     23  N   UNL     1     141.463 -21.887  67.501  0.00  0.00    +0.379 N 
ATOM     24  C   UNL     1     142.625 -22.787  67.541  0.00  0.00    -0.096 C 
ATOM     25  H   UNL     1     141.511 -21.315  66.545  0.00  0.00    -0.082 HD
ATOM     26  C   UNL     1     140.134 -22.627  67.529  0.00  0.00    -0.064 C 
ATOM     27  C   UNL     1     138.944 -21.628  67.477  0.00  0.00    +0.066 C 
ENDBRANCH  19  20
ENDBRANCH  18  19
ENDBRANCH  14  15
ENDBRANCH  12  13
TORSDOF 6
ENDMDL
MODEL 5
REMARK VINA RESULT:      -8.7     17.722     21.690
REMARK  Name = C:\Users\Docking\Desktop\test protocol\1iep_ligandH.pdb
REMARK  8 active torsions:
REMARK  status: ('A' for Active; 'I' for Inactive)
REMARK    1  A    between atoms: _5  and  _11
REMARK    2  A    between atoms: _19  and  _21
REMARK    3  A    between atoms: _22  and  _66
REMARK    4  A    between atoms: _27  and  _30
REMARK    5  A    between atoms: _32  and  _33
REMARK    6  A    between atoms: _38  and  _43
REMARK    7  A    between atoms: _43  and  _46
REMARK    8  A    between atoms: _53  and  _55
REMARK                            x       y       z     vdW  Elec       q    Type
REMARK                         _______ _______ _______ _____ _____    ______ ____
ROOT
ATOM     10  C   UNL     1     134.834 -13.913  76.174  0.00  0.00    +0.038 A 
ATOM     11  C   UNL     1     135.179 -14.793  75.117  0.00  0.00    +0.047 A 
ATOM     12  C   UNL     1     136.114 -14.391  74.078  0.00  0.00    +0.035 A 
ATOM     32  C   UNL     1     136.683 -13.086  74.149  0.00  0.00    +0.024 A 
ATOM     33  C   UNL     1     136.343 -12.178  75.216  0.00  0.00    +0.007 A 
ATOM     34  C   UNL     1     135.419 -12.568  76.242  0.00  0.00    -0.029 A 
ATOM     35  C   UNL     1     135.087 -11.551  77.359  0.00  0.00    +0.045 C 
ENDROOT
BRANCH  10   9
ATOM      4  C   UNL     1     133.819 -15.954  80.398  0.00  0.00    +0.077 A 
ATOM      5  C   UNL     1     135.204 -16.193  80.683  0.00  0.00    +0.048 A 
ATOM      6  C   UNL     1     136.146 -15.782  79.713  0.00  0.00    +0.116 A 
ATOM      7  N   UNL     1     135.723 -15.178  78.549  0.00  0.00    -0.223 NA
ATOM      8  C   UNL     1     134.379 -14.964  78.305  0.00  0.00    +0.220 A 
ATOM      9  N   UNL     1     133.931 -14.350  77.145  0.00  0.00    -0.283 N 
ATOM     36  H   UNL     1     132.930 -14.217  76.999  0.00  0.00    +0.155 HD
ATOM     37  N   UNL     1     133.459 -15.348  79.215  0.00  0.00    -0.214 NA
BRANCH   4   3
ATOM      1  C   UNL     1     131.794 -16.917  83.603  0.00  0.00    +0.020 A 
ATOM      2  C   UNL     1     132.904 -16.558  82.751  0.00  0.00    +0.013 A 
ATOM      3  C   UNL     1     132.705 -16.328  81.326  0.00  0.00    +0.019 A 
ATOM     38  C   UNL     1     131.359 -16.469  80.790  0.00  0.00    +0.120 A 
ATOM     39  N   UNL     1     130.310 -16.818  81.635  0.00  0.00    -0.263 NA
ATOM     40  C   UNL     1     130.490 -17.043  83.008  0.00  0.00    +0.111 A 
ENDBRANCH   4   3
ENDBRANCH  10   9
BRANCH  12  13
ATOM     13  N   UNL     1     136.495 -15.239  72.975  0.00  0.00    -0.281 N 
ATOM     14  C   UNL     1     137.774 -15.580  72.566  0.00  0.00    +0.248 C 
ATOM     30  O   UNL     1     138.794 -15.032  72.957  0.00  0.00    -0.270 OA
ATOM     31  H   UNL     1     135.729 -15.636  72.431  0.00  0.00    +0.155 HD
BRANCH  14  15
ATOM     15  C   UNL     1     137.943 -16.677  71.565  0.00  0.00    +0.037 A 
ATOM     16  C   UNL     1     138.560 -16.428  70.260  0.00  0.00    +0.013 A 
ATOM     17  C   UNL     1     138.695 -17.501  69.307  0.00  0.00    +0.005 A 
ATOM     18  C   UNL     1     138.214 -18.835  69.657  0.00  0.00    -0.033 A 
ATOM     28  C   UNL     1     137.611 -19.056  70.961  0.00  0.00    +0.005 A 
ATOM     29  C   UNL     1     137.475 -18.006  71.898  0.00  0.00    +0.013 A 
BRANCH  18  19
ATOM     19  C   UNL     1     138.298 -20.034  68.695  0.00  0.00    +0.119 C 
BRANCH  19  20
ATOM     20  N   UNL     1     137.545 -19.933  67.409  0.00  0.00    -0.302 NA
ATOM     21  C   UNL     1     138.317 -19.138  66.352  0.00  0.00    +0.066 C 
ATOM     22  C   UNL     1     137.525 -19.062  65.006  0.00  0.00    -0.064 C 
ATOM     23  N   UNL     1     136.153 -18.435  65.261  0.00  0.00    +0.379 N 
ATOM     24  C   UNL     1     135.428 -18.308  63.988  0.00  0.00    -0.096 C 
ATOM     25  H   UNL     1     136.319 -17.407  65.659  0.00  0.00    -0.082 HD
ATOM     26  C   UNL     1     135.380 -19.218  66.312  0.00  0.00    -0.064 C 
ATOM     27  C   UNL     1     136.189 -19.313  67.636  0.00  0.00    +0.066 C 
ENDBRANCH  19  20
ENDBRANCH  18  19
ENDBRANCH  14  15
ENDBRANCH  12  13
TORSDOF 6
ENDMDL
