MODEL 1
REMARK VINA RESULT:      -7.9      0.000      0.000
REMARK  Name = C:\Users\Docking\Desktop\test protocol\1iep_ligandH.pdb
REMARK  8 active torsions:
REMARK  status: ('A' for Active; 'I' for Inactive)
REMARK    1  A    between atoms: _5  and  _11
REMARK    2  A    between atoms: _19  and  _21
REMARK    3  A    between atoms: _22  and  _66
REMARK    4  A    between atoms: _27  and  _30
REMARK    5  A    between atoms: _32  and  _33
REMARK    6  A    between atoms: _38  and  _43
REMARK    7  A    between atoms: _43  and  _46
REMARK    8  A    between atoms: _53  and  _55
REMARK                            x       y       z     vdW  Elec       q    Type
REMARK                         _______ _______ _______ _____ _____    ______ ____
ROOT
ATOM     10  C   UNL     1      -5.413  28.864  -5.565  0.00  0.00    +0.038 A 
ATOM     11  C   UNL     1      -5.264  28.988  -6.970  0.00  0.00    +0.047 A 
ATOM     12  C   UNL     1      -3.954  29.175  -7.574  0.00  0.00    +0.035 A 
ATOM     32  C   UNL     1      -2.816  29.227  -6.717  0.00  0.00    +0.024 A 
ATOM     33  C   UNL     1      -2.950  29.104  -5.286  0.00  0.00    +0.007 A 
ATOM     34  C   UNL     1      -4.240  28.922  -4.685  0.00  0.00    -0.029 A 
ATOM     35  C   UNL     1      -4.325  28.802  -3.145  0.00  0.00    +0.045 C 
ENDROOT
BRANCH  10   9
ATOM      4  C   UNL     1      -9.553  30.570  -3.836  0.00  0.00    +0.077 A 
ATOM      5  C   UNL     1      -9.115  31.930  -3.967  0.00  0.00    +0.048 A 
ATOM      6  C   UNL     1      -7.815  32.147  -4.477  0.00  0.00    +0.116 A 
ATOM      7  N   UNL     1      -7.021  31.077  -4.827  0.00  0.00    -0.223 NA
ATOM      8  C   UNL     1      -7.473  29.778  -4.686  0.00  0.00    +0.220 A 
ATOM      9  N   UNL     1      -6.695  28.686  -5.039  0.00  0.00    -0.283 N 
ATOM     36  H   UNL     1      -7.062  27.743  -4.913  0.00  0.00    +0.155 HD
ATOM     37  N   UNL     1      -8.710  29.544  -4.200  0.00  0.00    -0.214 NA
BRANCH   4   3
ATOM      1  C   UNL     1     -13.362  30.595  -2.945  0.00  0.00    +0.020 A 
ATOM      2  C   UNL     1     -12.082  31.020  -3.465  0.00  0.00    +0.013 A 
ATOM      3  C   UNL     1     -10.901  30.179  -3.316  0.00  0.00    +0.019 A 
ATOM     38  C   UNL     1     -11.050  28.903  -2.632  0.00  0.00    +0.120 A 
ATOM     39  N   UNL     1     -12.294  28.521  -2.140  0.00  0.00    -0.263 NA
ATOM     40  C   UNL     1     -13.438  29.323  -2.276  0.00  0.00    +0.111 A 
ENDBRANCH   4   3
ENDBRANCH  10   9
BRANCH  12  13
ATOM     13  N   UNL     1      -3.741  29.315  -8.993  0.00  0.00    -0.281 N 
ATOM     14  C   UNL     1      -2.716  28.783  -9.757  0.00  0.00    +0.248 C 
ATOM     30  O   UNL     1      -1.702  28.279  -9.298  0.00  0.00    -0.270 OA
ATOM     31  H   UNL     1      -4.431  29.875  -9.495  0.00  0.00    +0.155 HD
BRANCH  14  15
ATOM     15  C   UNL     1      -2.826  28.830 -11.247  0.00  0.00    +0.037 A 
ATOM     16  C   UNL     1      -3.862  29.630 -11.907  0.00  0.00    +0.013 A 
ATOM     17  C   UNL     1      -3.957  29.644 -13.346  0.00  0.00    +0.005 A 
ATOM     18  C   UNL     1      -3.012  28.857 -14.134  0.00  0.00    -0.033 A 
ATOM     28  C   UNL     1      -1.991  28.077 -13.453  0.00  0.00    +0.005 A 
ATOM     29  C   UNL     1      -1.896  28.059 -12.044  0.00  0.00    +0.013 A 
BRANCH  18  19
ATOM     19  C   UNL     1      -3.052  28.796 -15.672  0.00  0.00    +0.119 C 
BRANCH  19  20
ATOM     20  N   UNL     1      -2.022  29.582 -16.415  0.00  0.00    -0.302 NA
ATOM     21  C   UNL     1      -2.142  31.085 -16.148  0.00  0.00    +0.066 C 
ATOM     22  C   UNL     1      -1.043  31.889 -16.914  0.00  0.00    -0.064 C 
ATOM     23  N   UNL     1      -1.151  31.595 -18.412  0.00  0.00    +0.379 N 
ATOM     24  C   UNL     1      -0.156  32.395 -19.142  0.00  0.00    -0.096 C 
ATOM     25  H   UNL     1      -2.161  31.923 -18.749  0.00  0.00    -0.082 HD
ATOM     26  C   UNL     1      -1.034  30.102 -18.686  0.00  0.00    -0.064 C 
ATOM     27  C   UNL     1      -2.113  29.310 -17.896  0.00  0.00    +0.066 C 
ENDBRANCH  19  20
ENDBRANCH  18  19
ENDBRANCH  14  15
ENDBRANCH  12  13
TORSDOF 6
ENDMDL
MODEL 2
REMARK VINA RESULT:      -7.6      5.647     11.531
REMARK  Name = C:\Users\Docking\Desktop\test protocol\1iep_ligandH.pdb
REMARK  8 active torsions:
REMARK  status: ('A' for Active; 'I' for Inactive)
REMARK    1  A    between atoms: _5  and  _11
REMARK    2  A    between atoms: _19  and  _21
REMARK    3  A    between atoms: _22  and  _66
REMARK    4  A    between atoms: _27  and  _30
REMARK    5  A    between atoms: _32  and  _33
REMARK    6  A    between atoms: _38  and  _43
REMARK    7  A    between atoms: _43  and  _46
REMARK    8  A    between atoms: _53  and  _55
REMARK                            x       y       z     vdW  Elec       q    Type
REMARK                         _______ _______ _______ _____ _____    ______ ____
ROOT
ATOM     10  C   UNL     1      -3.125  32.316 -16.995  0.00  0.00    +0.038 A 
ATOM     11  C   UNL     1      -1.885  32.015 -17.613  0.00  0.00    +0.047 A 
ATOM     12  C   UNL     1      -1.687  32.216 -19.040  0.00  0.00    +0.035 A 
ATOM     32  C   UNL     1      -2.774  32.728 -19.807  0.00  0.00    +0.024 A 
ATOM     33  C   UNL     1      -4.042  33.039 -19.195  0.00  0.00    +0.007 A 
ATOM     34  C   UNL     1      -4.244  32.840 -17.788  0.00  0.00    -0.029 A 
ATOM     35  C   UNL     1      -5.626  33.184 -17.187  0.00  0.00    +0.045 C 
ENDROOT
BRANCH  10   9
ATOM      4  C   UNL     1      -3.366  29.440 -13.160  0.00  0.00    +0.077 A 
ATOM      5  C   UNL     1      -3.239  28.259 -13.964  0.00  0.00    +0.048 A 
ATOM      6  C   UNL     1      -3.122  28.434 -15.361  0.00  0.00    +0.116 A 
ATOM      7  N   UNL     1      -3.131  29.701 -15.903  0.00  0.00    -0.223 NA
ATOM      8  C   UNL     1      -3.256  30.820 -15.099  0.00  0.00    +0.220 A 
ATOM      9  N   UNL     1      -3.260  32.104 -15.621  0.00  0.00    -0.283 N 
ATOM     36  H   UNL     1      -3.362  32.902 -14.995  0.00  0.00    +0.155 HD
ATOM     37  N   UNL     1      -3.371  30.678 -13.762  0.00  0.00    -0.214 NA
BRANCH   4   3
ATOM      1  C   UNL     1      -2.590  28.999  -9.351  0.00  0.00    +0.020 A 
ATOM      2  C   UNL     1      -2.413  29.001 -10.785  0.00  0.00    +0.013 A 
ATOM      3  C   UNL     1      -3.495  29.418 -11.669  0.00  0.00    +0.019 A 
ATOM     38  C   UNL     1      -4.753  29.831 -11.064  0.00  0.00    +0.120 A 
ATOM     39  N   UNL     1      -4.894  29.817  -9.680  0.00  0.00    -0.263 NA
ATOM     40  C   UNL     1      -3.861  29.416  -8.820  0.00  0.00    +0.111 A 
ENDBRANCH   4   3
ENDBRANCH  10   9
BRANCH  12  13
ATOM     13  N   UNL     1      -0.453  31.921 -19.725  0.00  0.00    -0.281 N 
ATOM     14  C   UNL     1       0.778  32.535 -19.564  0.00  0.00    +0.248 C 
ATOM     30  O   UNL     1       0.955  33.580 -18.956  0.00  0.00    -0.270 OA
ATOM     31  H   UNL     1      -0.492  31.168 -20.412  0.00  0.00    +0.155 HD
BRANCH  14  15
ATOM     15  C   UNL     1       1.986  31.904 -20.179  0.00  0.00    +0.037 A 
ATOM     16  C   UNL     1       2.132  31.801 -21.633  0.00  0.00    +0.013 A 
ATOM     17  C   UNL     1       3.298  31.173 -22.200  0.00  0.00    +0.005 A 
ATOM     18  C   UNL     1       4.330  30.644 -21.311  0.00  0.00    -0.033 A 
ATOM     28  C   UNL     1       4.162  30.763 -19.873  0.00  0.00    +0.005 A 
ATOM     29  C   UNL     1       3.019  31.378 -19.313  0.00  0.00    +0.013 A 
BRANCH  18  19
ATOM     19  C   UNL     1       5.598  29.938 -21.828  0.00  0.00    +0.119 C 
BRANCH  19  20
ATOM     20  N   UNL     1       6.786  29.919 -20.924  0.00  0.00    -0.302 NA
ATOM     21  C   UNL     1       8.072  30.313 -21.656  0.00  0.00    +0.066 C 
ATOM     22  C   UNL     1       9.301  30.309 -20.690  0.00  0.00    -0.064 C 
ATOM     23  N   UNL     1       9.442  28.924 -20.055  0.00  0.00    +0.379 N 
ATOM     24  C   UNL     1      10.631  28.900 -19.190  0.00  0.00    -0.096 C 
ATOM     25  H   UNL     1       9.607  28.190 -20.877  0.00  0.00    -0.082 HD
ATOM     26  C   UNL     1       8.167  28.523 -19.327  0.00  0.00    -0.064 C 
ATOM     27  C   UNL     1       6.947  28.559 -20.289  0.00  0.00    +0.066 C 
ENDBRANCH  19  20
ENDBRANCH  18  19
ENDBRANCH  14  15
ENDBRANCH  12  13
TORSDOF 6
ENDMDL
MODEL 3
REMARK VINA RESULT:      -7.6     23.488     27.327
REMARK  Name = C:\Users\Docking\Desktop\test protocol\1iep_ligandH.pdb
REMARK  8 active torsions:
REMARK  status: ('A' for Active; 'I' for Inactive)
REMARK    1  A    between atoms: _5  and  _11
REMARK    2  A    between atoms: _19  and  _21
REMARK    3  A    between atoms: _22  and  _66
REMARK    4  A    between atoms: _27  and  _30
REMARK    5  A    between atoms: _32  and  _33
REMARK    6  A    between atoms: _38  and  _43
REMARK    7  A    between atoms: _43  and  _46
REMARK    8  A    between atoms: _53  and  _55
REMARK                            x       y       z     vdW  Elec       q    Type
REMARK                         _______ _______ _______ _____ _____    ______ ____
ROOT
ATOM     10  C   UNL     1       6.304  11.495  -6.708  0.00  0.00    +0.038 A 
ATOM     11  C   UNL     1       5.546  10.296  -6.685  0.00  0.00    +0.047 A 
ATOM     12  C   UNL     1       4.130  10.295  -7.017  0.00  0.00    +0.035 A 
ATOM     32  C   UNL     1       3.518  11.532  -7.371  0.00  0.00    +0.024 A 
ATOM     33  C   UNL     1       4.273  12.760  -7.399  0.00  0.00    +0.007 A 
ATOM     34  C   UNL     1       5.670  12.768  -7.070  0.00  0.00    -0.029 A 
ATOM     35  C   UNL     1       6.428  14.115  -7.110  0.00  0.00    +0.045 C 
ENDROOT
BRANCH  10   9
ATOM      4  C   UNL     1      10.834  10.209  -7.641  0.00  0.00    +0.077 A 
ATOM      5  C   UNL     1      10.462   9.573  -8.872  0.00  0.00    +0.048 A 
ATOM      6  C   UNL     1       9.094   9.593  -9.225  0.00  0.00    +0.116 A 
ATOM      7  N   UNL     1       8.175  10.206  -8.402  0.00  0.00    -0.223 NA
ATOM      8  C   UNL     1       8.567  10.809  -7.221  0.00  0.00    +0.220 A 
ATOM      9  N   UNL     1       7.661  11.438  -6.381  0.00  0.00    -0.283 N 
ATOM     36  H   UNL     1       7.988  11.865  -5.515  0.00  0.00    +0.155 HD
ATOM     37  N   UNL     1       9.867  10.802  -6.860  0.00  0.00    -0.214 NA
BRANCH   4   3
ATOM      1  C   UNL     1      13.948  10.296  -5.276  0.00  0.00    +0.020 A 
ATOM      2  C   UNL     1      12.573  10.230  -5.715  0.00  0.00    +0.013 A 
ATOM      3  C   UNL     1      12.240  10.275  -7.133  0.00  0.00    +0.019 A 
ATOM     38  C   UNL     1      13.331  10.388  -8.089  0.00  0.00    +0.120 A 
ATOM     39  N   UNL     1      14.646  10.451  -7.638  0.00  0.00    -0.263 NA
ATOM     40  C   UNL     1      14.978  10.410  -6.275  0.00  0.00    +0.111 A 
ENDBRANCH   4   3
ENDBRANCH  10   9
BRANCH  12  13
ATOM     13  N   UNL     1       3.308   9.111  -7.002  0.00  0.00    -0.281 N 
ATOM     14  C   UNL     1       3.389   8.007  -7.836  0.00  0.00    +0.248 C 
ATOM     30  O   UNL     1       4.048   7.965  -8.864  0.00  0.00    -0.270 OA
ATOM     31  H   UNL     1       2.577   9.082  -6.291  0.00  0.00    +0.155 HD
BRANCH  14  15
ATOM     15  C   UNL     1       2.614   6.778  -7.485  0.00  0.00    +0.037 A 
ATOM     16  C   UNL     1       1.293   6.866  -6.859  0.00  0.00    +0.013 A 
ATOM     17  C   UNL     1       0.574   5.664  -6.514  0.00  0.00    +0.005 A 
ATOM     18  C   UNL     1       1.177   4.364  -6.797  0.00  0.00    -0.033 A 
ATOM     28  C   UNL     1       2.487   4.306  -7.423  0.00  0.00    +0.005 A 
ATOM     29  C   UNL     1       3.195   5.481  -7.761  0.00  0.00    +0.013 A 
BRANCH  18  19
ATOM     19  C   UNL     1       0.492   3.030  -6.444  0.00  0.00    +0.119 C 
BRANCH  19  20
ATOM     20  N   UNL     1       1.225   2.106  -5.529  0.00  0.00    -0.302 NA
ATOM     21  C   UNL     1       0.828   0.644  -5.750  0.00  0.00    +0.066 C 
ATOM     22  C   UNL     1       1.621  -0.312  -4.800  0.00  0.00    -0.064 C 
ATOM     23  N   UNL     1       1.379   0.102  -3.347  0.00  0.00    +0.379 N 
ATOM     24  C   UNL     1       2.077  -0.830  -2.449  0.00  0.00    -0.096 C 
ATOM     25  H   UNL     1       0.286   0.010  -3.148  0.00  0.00    -0.082 HD
ATOM     26  C   UNL     1       1.769   1.555  -3.120  0.00  0.00    -0.064 C 
ATOM     27  C   UNL     1       0.997   2.493  -4.089  0.00  0.00    +0.066 C 
ENDBRANCH  19  20
ENDBRANCH  18  19
ENDBRANCH  14  15
ENDBRANCH  12  13
TORSDOF 6
ENDMDL
MODEL 4
REMARK VINA RESULT:      -7.5     19.107     21.642
REMARK  Name = C:\Users\Docking\Desktop\test protocol\1iep_ligandH.pdb
REMARK  8 active torsions:
REMARK  status: ('A' for Active; 'I' for Inactive)
REMARK    1  A    between atoms: _5  and  _11
REMARK    2  A    between atoms: _19  and  _21
REMARK    3  A    between atoms: _22  and  _66
REMARK    4  A    between atoms: _27  and  _30
REMARK    5  A    between atoms: _32  and  _33
REMARK    6  A    between atoms: _38  and  _43
REMARK    7  A    between atoms: _43  and  _46
REMARK    8  A    between atoms: _53  and  _55
REMARK                            x       y       z     vdW  Elec       q    Type
REMARK                         _______ _______ _______ _____ _____    ______ ____
ROOT
ATOM     10  C   UNL     1      10.349  18.635 -10.935  0.00  0.00    +0.038 A 
ATOM     11  C   UNL     1      10.701  19.568  -9.927  0.00  0.00    +0.047 A 
ATOM     12  C   UNL     1      11.791  20.512 -10.122  0.00  0.00    +0.035 A 
ATOM     32  C   UNL     1      12.499  20.480 -11.359  0.00  0.00    +0.024 A 
ATOM     33  C   UNL     1      12.155  19.537 -12.394  0.00  0.00    +0.007 A 
ATOM     34  C   UNL     1      11.083  18.602 -12.206  0.00  0.00    -0.029 A 
ATOM     35  C   UNL     1      10.762  17.610 -13.348  0.00  0.00    +0.045 C 
ENDROOT
BRANCH  10   9
ATOM      4  C   UNL     1       8.411  14.876  -8.667  0.00  0.00    +0.077 A 
ATOM      5  C   UNL     1       9.611  14.634  -7.917  0.00  0.00    +0.048 A 
ATOM      6  C   UNL     1      10.706  15.496  -8.151  0.00  0.00    +0.116 A 
ATOM      7  N   UNL     1      10.598  16.520  -9.067  0.00  0.00    -0.223 NA
ATOM      8  C   UNL     1       9.428  16.724  -9.774  0.00  0.00    +0.220 A 
ATOM      9  N   UNL     1       9.295  17.752 -10.694  0.00  0.00    -0.283 N 
ATOM     36  H   UNL     1       8.417  17.865 -11.201  0.00  0.00    +0.155 HD
ATOM     37  N   UNL     1       8.368  15.914  -9.570  0.00  0.00    -0.214 NA
BRANCH   4   3
ATOM      1  C   UNL     1       5.181  13.203  -7.227  0.00  0.00    +0.020 A 
ATOM      2  C   UNL     1       6.375  14.014  -7.307  0.00  0.00    +0.013 A 
ATOM      3  C   UNL     1       7.168  14.053  -8.530  0.00  0.00    +0.019 A 
ATOM     38  C   UNL     1       6.722  13.255  -9.662  0.00  0.00    +0.120 A 
ATOM     39  N   UNL     1       5.569  12.483  -9.555  0.00  0.00    -0.263 NA
ATOM     40  C   UNL     1       4.799  12.436  -8.383  0.00  0.00    +0.111 A 
ENDBRANCH   4   3
ENDBRANCH  10   9
BRANCH  12  13
ATOM     13  N   UNL     1      12.199  21.477  -9.131  0.00  0.00    -0.281 N 
ATOM     14  C   UNL     1      11.553  22.646  -8.764  0.00  0.00    +0.248 C 
ATOM     30  O   UNL     1      10.629  23.150  -9.386  0.00  0.00    -0.270 OA
ATOM     31  H   UNL     1      13.070  21.274  -8.641  0.00  0.00    +0.155 HD
BRANCH  14  15
ATOM     15  C   UNL     1      12.007  23.367  -7.536  0.00  0.00    +0.037 A 
ATOM     16  C   UNL     1      13.336  23.978  -7.461  0.00  0.00    +0.013 A 
ATOM     17  C   UNL     1      13.755  24.653  -6.258  0.00  0.00    +0.005 A 
ATOM     18  C   UNL     1      12.842  24.721  -5.120  0.00  0.00    -0.033 A 
ATOM     28  C   UNL     1      11.527  24.110  -5.223  0.00  0.00    +0.005 A 
ATOM     29  C   UNL     1      11.113  23.447  -6.400  0.00  0.00    +0.013 A 
BRANCH  18  19
ATOM     19  C   UNL     1      13.214  25.402  -3.789  0.00  0.00    +0.119 C 
BRANCH  19  20
ATOM     20  N   UNL     1      13.933  24.574  -2.775  0.00  0.00    -0.302 NA
ATOM     21  C   UNL     1      12.969  23.735  -1.931  0.00  0.00    +0.066 C 
ATOM     22  C   UNL     1      13.740  22.859  -0.890  0.00  0.00    -0.064 C 
ATOM     23  N   UNL     1      14.593  23.763   0.001  0.00  0.00    +0.379 N 
ATOM     24  C   UNL     1      15.274  22.948   1.017  0.00  0.00    -0.096 C 
ATOM     25  H   UNL     1      13.906  24.461   0.532  0.00  0.00    -0.082 HD
ATOM     26  C   UNL     1      15.552  24.603  -0.831  0.00  0.00    -0.064 C 
ATOM     27  C   UNL     1      14.779  25.448  -1.882  0.00  0.00    +0.066 C 
ENDBRANCH  19  20
ENDBRANCH  18  19
ENDBRANCH  14  15
ENDBRANCH  12  13
TORSDOF 6
ENDMDL
MODEL 5
REMARK VINA RESULT:      -7.5     23.152     27.104
REMARK  Name = C:\Users\Docking\Desktop\test protocol\1iep_ligandH.pdb
REMARK  8 active torsions:
REMARK  status: ('A' for Active; 'I' for Inactive)
REMARK    1  A    between atoms: _5  and  _11
REMARK    2  A    between atoms: _19  and  _21
REMARK    3  A    between atoms: _22  and  _66
REMARK    4  A    between atoms: _27  and  _30
REMARK    5  A    between atoms: _32  and  _33
REMARK    6  A    between atoms: _38  and  _43
REMARK    7  A    between atoms: _43  and  _46
REMARK    8  A    between atoms: _53  and  _55
REMARK                            x       y       z     vdW  Elec       q    Type
REMARK                         _______ _______ _______ _____ _____    ______ ____
ROOT
ATOM     10  C   UNL     1       6.188  11.464  -6.702  0.00  0.00    +0.038 A 
ATOM     11  C   UNL     1       5.420  10.272  -6.684  0.00  0.00    +0.047 A 
ATOM     12  C   UNL     1       4.005  10.283  -7.021  0.00  0.00    +0.035 A 
ATOM     32  C   UNL     1       3.405  11.527  -7.374  0.00  0.00    +0.024 A 
ATOM     33  C   UNL     1       4.170  12.748  -7.397  0.00  0.00    +0.007 A 
ATOM     34  C   UNL     1       5.566  12.743  -7.063  0.00  0.00    -0.029 A 
ATOM     35  C   UNL     1       6.336  14.084  -7.098  0.00  0.00    +0.045 C 
ENDROOT
BRANCH  10   9
ATOM      4  C   UNL     1      10.721  10.204  -7.655  0.00  0.00    +0.077 A 
ATOM      5  C   UNL     1      10.354   9.609  -8.908  0.00  0.00    +0.048 A 
ATOM      6  C   UNL     1       8.988   9.641  -9.267  0.00  0.00    +0.116 A 
ATOM      7  N   UNL     1       8.066  10.229  -8.428  0.00  0.00    -0.223 NA
ATOM      8  C   UNL     1       8.453  10.792  -7.226  0.00  0.00    +0.220 A 
ATOM      9  N   UNL     1       7.543  11.395  -6.371  0.00  0.00    -0.283 N 
ATOM     36  H   UNL     1       7.867  11.793  -5.489  0.00  0.00    +0.155 HD
ATOM     37  N   UNL     1       9.751  10.773  -6.860  0.00  0.00    -0.214 NA
BRANCH   4   3
ATOM      1  C   UNL     1      13.823  10.237  -5.272  0.00  0.00    +0.020 A 
ATOM      2  C   UNL     1      12.449  10.188  -5.718  0.00  0.00    +0.013 A 
ATOM      3  C   UNL     1      12.125  10.251  -7.138  0.00  0.00    +0.019 A 
ATOM     38  C   UNL     1      13.222  10.364  -8.087  0.00  0.00    +0.120 A 
ATOM     39  N   UNL     1      14.535  10.411  -7.628  0.00  0.00    -0.263 NA
ATOM     40  C   UNL     1      14.859  10.353  -6.264  0.00  0.00    +0.111 A 
ENDBRANCH   4   3
ENDBRANCH  10   9
BRANCH  12  13
ATOM     13  N   UNL     1       3.173   9.106  -7.011  0.00  0.00    -0.281 N 
ATOM     14  C   UNL     1       3.282   7.979  -7.810  0.00  0.00    +0.248 C 
ATOM     30  O   UNL     1       3.987   7.903  -8.805  0.00  0.00    -0.270 OA
ATOM     31  H   UNL     1       2.410   9.103  -6.334  0.00  0.00    +0.155 HD
BRANCH  14  15
ATOM     15  C   UNL     1       2.482   6.766  -7.461  0.00  0.00    +0.037 A 
ATOM     16  C   UNL     1       1.110   6.879  -6.959  0.00  0.00    +0.013 A 
ATOM     17  C   UNL     1       0.366   5.694  -6.613  0.00  0.00    +0.005 A 
ATOM     18  C   UNL     1       0.993   4.384  -6.770  0.00  0.00    -0.033 A 
ATOM     28  C   UNL     1       2.354   4.300  -7.275  0.00  0.00    +0.005 A 
ATOM     29  C   UNL     1       3.086   5.460  -7.614  0.00  0.00    +0.013 A 
BRANCH  18  19
ATOM     19  C   UNL     1       0.282   3.067  -6.406  0.00  0.00    +0.119 C 
BRANCH  19  20
ATOM     20  N   UNL     1      -0.148   2.892  -4.987  0.00  0.00    -0.302 NA
ATOM     21  C   UNL     1       1.000   2.411  -4.094  0.00  0.00    +0.066 C 
ATOM     22  C   UNL     1       0.539   2.255  -2.609  0.00  0.00    -0.064 C 
ATOM     23  N   UNL     1      -0.641   1.283  -2.544  0.00  0.00    +0.379 N 
ATOM     24  C   UNL     1      -1.040   1.089  -1.142  0.00  0.00    -0.096 C 
ATOM     25  H   UNL     1      -0.291   0.300  -2.935  0.00  0.00    -0.082 HD
ATOM     26  C   UNL     1      -1.786   1.752  -3.431  0.00  0.00    -0.064 C 
ATOM     27  C   UNL     1      -1.309   1.933  -4.899  0.00  0.00    +0.066 C 
ENDBRANCH  19  20
ENDBRANCH  18  19
ENDBRANCH  14  15
ENDBRANCH  12  13
TORSDOF 6
ENDMDL
