MODEL 1
REMARK VINA RESULT:      -8.4      0.000      0.000
REMARK  Name = C:\Users\Docking\Desktop\test protocol\1iep_ligandH.pdb
REMARK  8 active torsions:
REMARK  status: ('A' for Active; 'I' for Inactive)
REMARK    1  A    between atoms: _5  and  _11
REMARK    2  A    between atoms: _19  and  _21
REMARK    3  A    between atoms: _22  and  _66
REMARK    4  A    between atoms: _27  and  _30
REMARK    5  A    between atoms: _32  and  _33
REMARK    6  A    between atoms: _38  and  _43
REMARK    7  A    between atoms: _43  and  _46
REMARK    8  A    between atoms: _53  and  _55
REMARK                            x       y       z     vdW  Elec       q    Type
REMARK                         _______ _______ _______ _____ _____    ______ ____
ROOT
ATOM     10  C   UNL     1      35.721  50.542   8.817  0.00  0.00    +0.038 A 
ATOM     11  C   UNL     1      36.823  50.798   9.672  0.00  0.00    +0.047 A 
ATOM     12  C   UNL     1      36.890  52.013  10.470  0.00  0.00    +0.035 A 
ATOM     32  C   UNL     1      35.815  52.944  10.374  0.00  0.00    +0.024 A 
ATOM     33  C   UNL     1      34.688  52.701   9.509  0.00  0.00    +0.007 A 
ATOM     34  C   UNL     1      34.618  51.506   8.717  0.00  0.00    -0.029 A 
ATOM     35  C   UNL     1      33.388  51.300   7.802  0.00  0.00    +0.045 C 
ENDROOT
BRANCH  10   9
ATOM      4  C   UNL     1      36.586  48.056   4.803  0.00  0.00    +0.077 A 
ATOM      5  C   UNL     1      37.081  49.217   4.120  0.00  0.00    +0.048 A 
ATOM      6  C   UNL     1      37.089  50.436   4.835  0.00  0.00    +0.116 A 
ATOM      7  N   UNL     1      36.634  50.479   6.135  0.00  0.00    -0.223 NA
ATOM      8  C   UNL     1      36.162  49.341   6.764  0.00  0.00    +0.220 A 
ATOM      9  N   UNL     1      35.708  49.360   8.073  0.00  0.00    -0.283 N 
ATOM     36  H   UNL     1      35.361  48.501   8.499  0.00  0.00    +0.155 HD
ATOM     37  N   UNL     1      36.143  48.166   6.102  0.00  0.00    -0.214 NA
BRANCH   4   3
ATOM      1  C   UNL     1      35.815  44.273   4.180  0.00  0.00    +0.020 A 
ATOM      2  C   UNL     1      35.854  45.566   4.822  0.00  0.00    +0.013 A 
ATOM      3  C   UNL     1      36.517  46.696   4.183  0.00  0.00    +0.019 A 
ATOM     38  C   UNL     1      37.135  46.481   2.883  0.00  0.00    +0.120 A 
ATOM     39  N   UNL     1      37.083  45.224   2.290  0.00  0.00    -0.263 NA
ATOM     40  C   UNL     1      36.449  44.129   2.896  0.00  0.00    +0.111 A 
ENDBRANCH   4   3
ENDBRANCH  10   9
BRANCH  12  13
ATOM     13  N   UNL     1      37.987  52.331  11.350  0.00  0.00    -0.281 N 
ATOM     14  C   UNL     1      38.001  52.310  12.735  0.00  0.00    +0.248 C 
ATOM     30  O   UNL     1      37.004  52.220  13.435  0.00  0.00    -0.270 OA
ATOM     31  H   UNL     1      38.859  52.604  10.897  0.00  0.00    +0.155 HD
BRANCH  14  15
ATOM     15  C   UNL     1      39.312  52.419  13.445  0.00  0.00    +0.037 A 
ATOM     16  C   UNL     1      39.907  53.723  13.747  0.00  0.00    +0.013 A 
ATOM     17  C   UNL     1      41.180  53.800  14.418  0.00  0.00    +0.005 A 
ATOM     18  C   UNL     1      41.867  52.566  14.793  0.00  0.00    -0.033 A 
ATOM     28  C   UNL     1      41.252  51.286  14.487  0.00  0.00    +0.005 A 
ATOM     29  C   UNL     1      40.004  51.207  13.828  0.00  0.00    +0.013 A 
BRANCH  18  19
ATOM     19  C   UNL     1      43.239  52.553  15.493  0.00  0.00    +0.119 C 
BRANCH  19  20
ATOM     20  N   UNL     1      43.484  53.591  16.538  0.00  0.00    -0.302 NA
ATOM     21  C   UNL     1      44.879  54.209  16.418  0.00  0.00    +0.066 C 
ATOM     22  C   UNL     1      45.110  55.309  17.505  0.00  0.00    -0.064 C 
ATOM     23  N   UNL     1      44.905  54.701  18.894  0.00  0.00    +0.379 N 
ATOM     24  C   UNL     1      45.178  55.718  19.920  0.00  0.00    -0.096 C 
ATOM     25  H   UNL     1      45.653  53.884  19.019  0.00  0.00    -0.082 HD
ATOM     26  C   UNL     1      43.520  54.082  19.021  0.00  0.00    -0.064 C 
ATOM     27  C   UNL     1      43.290  53.011  17.918  0.00  0.00    +0.066 C 
ENDBRANCH  19  20
ENDBRANCH  18  19
ENDBRANCH  14  15
ENDBRANCH  12  13
TORSDOF 6
ENDMDL
MODEL 2
REMARK VINA RESULT:      -8.1      6.329     15.205
REMARK  Name = C:\Users\Docking\Desktop\test protocol\1iep_ligandH.pdb
REMARK  8 active torsions:
REMARK  status: ('A' for Active; 'I' for Inactive)
REMARK    1  A    between atoms: _5  and  _11
REMARK    2  A    between atoms: _19  and  _21
REMARK    3  A    between atoms: _22  and  _66
REMARK    4  A    between atoms: _27  and  _30
REMARK    5  A    between atoms: _32  and  _33
REMARK    6  A    between atoms: _38  and  _43
REMARK    7  A    between atoms: _43  and  _46
REMARK    8  A    between atoms: _53  and  _55
REMARK                            x       y       z     vdW  Elec       q    Type
REMARK                         _______ _______ _______ _____ _____    ______ ____
ROOT
ATOM     10  C   UNL     1      44.741  53.159  18.834  0.00  0.00    +0.038 A 
ATOM     11  C   UNL     1      43.570  53.198  18.034  0.00  0.00    +0.047 A 
ATOM     12  C   UNL     1      43.632  53.561  16.627  0.00  0.00    +0.035 A 
ATOM     32  C   UNL     1      44.904  53.876  16.066  0.00  0.00    +0.024 A 
ATOM     33  C   UNL     1      46.104  53.843  16.865  0.00  0.00    +0.007 A 
ATOM     34  C   UNL     1      46.048  53.488  18.254  0.00  0.00    -0.029 A 
ATOM     35  C   UNL     1      47.366  53.475  19.064  0.00  0.00    +0.045 C 
ENDROOT
BRANCH  10   9
ATOM      4  C   UNL     1      43.967  54.243  23.446  0.00  0.00    +0.077 A 
ATOM      5  C   UNL     1      43.810  55.638  23.153  0.00  0.00    +0.048 A 
ATOM      6  C   UNL     1      43.943  56.037  21.804  0.00  0.00    +0.116 A 
ATOM      7  N   UNL     1      44.212  55.101  20.829  0.00  0.00    -0.223 NA
ATOM      8  C   UNL     1      44.360  53.763  21.145  0.00  0.00    +0.220 A 
ATOM      9  N   UNL     1      44.623  52.804  20.180  0.00  0.00    -0.283 N 
ATOM     36  H   UNL     1      44.732  51.828  20.455  0.00  0.00    +0.155 HD
ATOM     37  N   UNL     1      44.239  53.357  22.426  0.00  0.00    -0.214 NA
BRANCH   4   3
ATOM      1  C   UNL     1      43.151  53.779  27.243  0.00  0.00    +0.020 A 
ATOM      2  C   UNL     1      43.237  54.382  25.933  0.00  0.00    +0.013 A 
ATOM      3  C   UNL     1      43.852  53.666  24.822  0.00  0.00    +0.019 A 
ATOM     38  C   UNL     1      44.373  52.330  25.073  0.00  0.00    +0.120 A 
ATOM     39  N   UNL     1      44.277  51.776  26.346  0.00  0.00    -0.263 NA
ATOM     40  C   UNL     1      43.689  52.457  27.422  0.00  0.00    +0.111 A 
ENDBRANCH   4   3
ENDBRANCH  10   9
BRANCH  12  13
ATOM     13  N   UNL     1      42.476  53.626  15.767  0.00  0.00    -0.281 N 
ATOM     14  C   UNL     1      42.109  52.742  14.766  0.00  0.00    +0.248 C 
ATOM     30  O   UNL     1      42.837  51.872  14.311  0.00  0.00    -0.270 OA
ATOM     31  H   UNL     1      41.852  54.419  15.916  0.00  0.00    +0.155 HD
BRANCH  14  15
ATOM     15  C   UNL     1      40.742  52.849  14.173  0.00  0.00    +0.037 A 
ATOM     16  C   UNL     1      40.117  54.153  13.934  0.00  0.00    +0.013 A 
ATOM     17  C   UNL     1      38.790  54.228  13.377  0.00  0.00    +0.005 A 
ATOM     18  C   UNL     1      38.078  52.994  13.053  0.00  0.00    -0.033 A 
ATOM     28  C   UNL     1      38.723  51.714  13.296  0.00  0.00    +0.005 A 
ATOM     29  C   UNL     1      40.024  51.637  13.843  0.00  0.00    +0.013 A 
BRANCH  18  19
ATOM     19  C   UNL     1      36.651  52.979  12.475  0.00  0.00    +0.119 C 
BRANCH  19  20
ATOM     20  N   UNL     1      35.520  52.901  13.448  0.00  0.00    -0.302 NA
ATOM     21  C   UNL     1      34.205  52.506  12.770  0.00  0.00    +0.066 C 
ATOM     22  C   UNL     1      33.038  52.408  13.805  0.00  0.00    -0.064 C 
ATOM     23  N   UNL     1      32.892  53.745  14.533  0.00  0.00    +0.379 N 
ATOM     24  C   UNL     1      31.758  53.674  15.466  0.00  0.00    -0.096 C 
ATOM     25  H   UNL     1      32.653  54.521  13.769  0.00  0.00    -0.082 HD
ATOM     26  C   UNL     1      34.195  54.147  15.208  0.00  0.00    -0.064 C 
ATOM     27  C   UNL     1      35.355  54.213  14.175  0.00  0.00    +0.066 C 
ENDBRANCH  19  20
ENDBRANCH  18  19
ENDBRANCH  14  15
ENDBRANCH  12  13
TORSDOF 6
ENDMDL
MODEL 3
REMARK VINA RESULT:      -8.0      4.415     15.486
REMARK  Name = C:\Users\Docking\Desktop\test protocol\1iep_ligandH.pdb
REMARK  8 active torsions:
REMARK  status: ('A' for Active; 'I' for Inactive)
REMARK    1  A    between atoms: _5  and  _11
REMARK    2  A    between atoms: _19  and  _21
REMARK    3  A    between atoms: _22  and  _66
REMARK    4  A    between atoms: _27  and  _30
REMARK    5  A    between atoms: _32  and  _33
REMARK    6  A    between atoms: _38  and  _43
REMARK    7  A    between atoms: _43  and  _46
REMARK    8  A    between atoms: _53  and  _55
REMARK                            x       y       z     vdW  Elec       q    Type
REMARK                         _______ _______ _______ _____ _____    ______ ____
ROOT
ATOM     10  C   UNL     1      44.877  53.090  19.081  0.00  0.00    +0.038 A 
ATOM     11  C   UNL     1      43.702  53.086  18.288  0.00  0.00    +0.047 A 
ATOM     12  C   UNL     1      43.737  53.480  16.888  0.00  0.00    +0.035 A 
ATOM     32  C   UNL     1      44.988  53.871  16.328  0.00  0.00    +0.024 A 
ATOM     33  C   UNL     1      46.192  53.882  17.120  0.00  0.00    +0.007 A 
ATOM     34  C   UNL     1      46.163  53.496  18.501  0.00  0.00    -0.029 A 
ATOM     35  C   UNL     1      47.485  53.533  19.304  0.00  0.00    +0.045 C 
ENDROOT
BRANCH  10   9
ATOM      4  C   UNL     1      44.096  54.040  23.720  0.00  0.00    +0.077 A 
ATOM      5  C   UNL     1      43.877  55.433  23.459  0.00  0.00    +0.048 A 
ATOM      6  C   UNL     1      43.982  55.866  22.118  0.00  0.00    +0.116 A 
ATOM      7  N   UNL     1      44.283  54.964  21.121  0.00  0.00    -0.223 NA
ATOM      8  C   UNL     1      44.490  53.627  21.408  0.00  0.00    +0.220 A 
ATOM      9  N   UNL     1      44.786  52.701  20.420  0.00  0.00    -0.283 N 
ATOM     36  H   UNL     1      44.939  51.725  20.673  0.00  0.00    +0.155 HD
ATOM     37  N   UNL     1      44.397  53.189  22.680  0.00  0.00    -0.214 NA
BRANCH   4   3
ATOM      1  C   UNL     1      42.881  53.062  27.308  0.00  0.00    +0.020 A 
ATOM      2  C   UNL     1      42.910  53.677  26.001  0.00  0.00    +0.013 A 
ATOM      3  C   UNL     1      44.016  53.429  25.085  0.00  0.00    +0.019 A 
ATOM     38  C   UNL     1      45.086  52.547  25.526  0.00  0.00    +0.120 A 
ATOM     39  N   UNL     1      45.033  51.970  26.791  0.00  0.00    -0.263 NA
ATOM     40  C   UNL     1      43.974  52.202  27.681  0.00  0.00    +0.111 A 
ENDBRANCH   4   3
ENDBRANCH  10   9
BRANCH  12  13
ATOM     13  N   UNL     1      42.574  53.504  16.036  0.00  0.00    -0.281 N 
ATOM     14  C   UNL     1      42.381  52.832  14.840  0.00  0.00    +0.248 C 
ATOM     30  O   UNL     1      43.266  52.272  14.211  0.00  0.00    -0.270 OA
ATOM     31  H   UNL     1      41.799  54.087  16.353  0.00  0.00    +0.155 HD
BRANCH  14  15
ATOM     15  C   UNL     1      41.008  52.787  14.251  0.00  0.00    +0.037 A 
ATOM     16  C   UNL     1      40.337  51.512  13.984  0.00  0.00    +0.013 A 
ATOM     17  C   UNL     1      39.020  51.496  13.399  0.00  0.00    +0.005 A 
ATOM     18  C   UNL     1      38.364  52.762  13.078  0.00  0.00    -0.033 A 
ATOM     28  C   UNL     1      39.050  54.012  13.359  0.00  0.00    +0.005 A 
ATOM     29  C   UNL     1      40.341  54.031  13.931  0.00  0.00    +0.013 A 
BRANCH  18  19
ATOM     19  C   UNL     1      36.967  52.840  12.433  0.00  0.00    +0.119 C 
BRANCH  19  20
ATOM     20  N   UNL     1      36.888  53.359  11.035  0.00  0.00    -0.302 NA
ATOM     21  C   UNL     1      35.514  53.111  10.407  0.00  0.00    +0.066 C 
ATOM     22  C   UNL     1      35.442  53.680   8.952  0.00  0.00    -0.064 C 
ATOM     23  N   UNL     1      36.547  53.047   8.105  0.00  0.00    +0.379 N 
ATOM     24  C   UNL     1      36.445  53.536   6.722  0.00  0.00    -0.096 C 
ATOM     25  H   UNL     1      36.371  51.946   8.088  0.00  0.00    -0.082 HD
ATOM     26  C   UNL     1      37.917  53.287   8.724  0.00  0.00    -0.064 C 
ATOM     27  C   UNL     1      37.968  52.744  10.179  0.00  0.00    +0.066 C 
ENDBRANCH  19  20
ENDBRANCH  18  19
ENDBRANCH  14  15
ENDBRANCH  12  13
TORSDOF 6
ENDMDL
MODEL 4
REMARK VINA RESULT:      -7.9      4.577     15.039
REMARK  Name = C:\Users\Docking\Desktop\test protocol\1iep_ligandH.pdb
REMARK  8 active torsions:
REMARK  status: ('A' for Active; 'I' for Inactive)
REMARK    1  A    between atoms: _5  and  _11
REMARK    2  A    between atoms: _19  and  _21
REMARK    3  A    between atoms: _22  and  _66
REMARK    4  A    between atoms: _27  and  _30
REMARK    5  A    between atoms: _32  and  _33
REMARK    6  A    between atoms: _38  and  _43
REMARK    7  A    between atoms: _43  and  _46
REMARK    8  A    between atoms: _53  and  _55
REMARK                            x       y       z     vdW  Elec       q    Type
REMARK                         _______ _______ _______ _____ _____    ______ ____
ROOT
ATOM     10  C   UNL     1      44.317  53.043  18.138  0.00  0.00    +0.038 A 
ATOM     11  C   UNL     1      43.133  52.830  17.386  0.00  0.00    +0.047 A 
ATOM     12  C   UNL     1      43.092  53.089  15.956  0.00  0.00    +0.035 A 
ATOM     32  C   UNL     1      44.278  53.563  15.321  0.00  0.00    +0.024 A 
ATOM     33  C   UNL     1      45.489  53.787  16.070  0.00  0.00    +0.007 A 
ATOM     34  C   UNL     1      45.535  53.535  17.482  0.00  0.00    -0.029 A 
ATOM     35  C   UNL     1      46.859  53.798  18.235  0.00  0.00    +0.045 C 
ENDROOT
BRANCH  10   9
ATOM      4  C   UNL     1      43.806  54.415  22.709  0.00  0.00    +0.077 A 
ATOM      5  C   UNL     1      43.582  55.782  22.335  0.00  0.00    +0.048 A 
ATOM      6  C   UNL     1      43.613  56.092  20.957  0.00  0.00    +0.116 A 
ATOM      7  N   UNL     1      43.851  55.100  20.030  0.00  0.00    -0.223 NA
ATOM      8  C   UNL     1      44.066  53.792  20.424  0.00  0.00    +0.220 A 
ATOM      9  N   UNL     1      44.299  52.778  19.509  0.00  0.00    -0.283 N 
ATOM     36  H   UNL     1      44.460  51.827  19.840  0.00  0.00    +0.155 HD
ATOM     37  N   UNL     1      44.042  53.471  21.734  0.00  0.00    -0.214 NA
BRANCH   4   3
ATOM      1  C   UNL     1      44.324  52.222  25.906  0.00  0.00    +0.020 A 
ATOM      2  C   UNL     1      44.354  52.642  24.524  0.00  0.00    +0.013 A 
ATOM      3  C   UNL     1      43.801  53.931  24.125  0.00  0.00    +0.019 A 
ATOM     38  C   UNL     1      43.222  54.777  25.158  0.00  0.00    +0.120 A 
ATOM     39  N   UNL     1      43.207  54.345  26.480  0.00  0.00    -0.263 NA
ATOM     40  C   UNL     1      43.734  53.107  26.875  0.00  0.00    +0.111 A 
ENDBRANCH   4   3
ENDBRANCH  10   9
BRANCH  12  13
ATOM     13  N   UNL     1      41.917  52.899  15.143  0.00  0.00    -0.281 N 
ATOM     14  C   UNL     1      40.894  53.801  14.900  0.00  0.00    +0.248 C 
ATOM     30  O   UNL     1      40.727  54.841  15.521  0.00  0.00    -0.270 OA
ATOM     31  H   UNL     1      41.828  51.989  14.691  0.00  0.00    +0.155 HD
BRANCH  14  15
ATOM     15  C   UNL     1      39.905  53.498  13.821  0.00  0.00    +0.037 A 
ATOM     16  C   UNL     1      39.419  54.546  12.919  0.00  0.00    +0.013 A 
ATOM     17  C   UNL     1      38.452  54.230  11.898  0.00  0.00    +0.005 A 
ATOM     18  C   UNL     1      37.965  52.858  11.773  0.00  0.00    -0.033 A 
ATOM     28  C   UNL     1      38.468  51.837  12.677  0.00  0.00    +0.005 A 
ATOM     29  C   UNL     1      39.415  52.143  13.680  0.00  0.00    +0.013 A 
BRANCH  18  19
ATOM     19  C   UNL     1      36.918  52.435  10.726  0.00  0.00    +0.119 C 
BRANCH  19  20
ATOM     20  N   UNL     1      35.738  51.660  11.214  0.00  0.00    -0.302 NA
ATOM     21  C   UNL     1      35.078  50.851  10.093  0.00  0.00    +0.066 C 
ATOM     22  C   UNL     1      33.860  50.030  10.626  0.00  0.00    -0.064 C 
ATOM     23  N   UNL     1      32.851  50.980  11.273  0.00  0.00    +0.379 N 
ATOM     24  C   UNL     1      31.677  50.218  11.723  0.00  0.00    -0.096 C 
ATOM     25  H   UNL     1      32.510  51.696  10.489  0.00  0.00    -0.082 HD
ATOM     26  C   UNL     1      33.499  51.791  12.386  0.00  0.00    -0.064 C 
ATOM     27  C   UNL     1      34.727  52.581  11.853  0.00  0.00    +0.066 C 
ENDBRANCH  19  20
ENDBRANCH  18  19
ENDBRANCH  14  15
ENDBRANCH  12  13
TORSDOF 6
ENDMDL
MODEL 5
REMARK VINA RESULT:      -7.7      6.210     16.735
REMARK  Name = C:\Users\Docking\Desktop\test protocol\1iep_ligandH.pdb
REMARK  8 active torsions:
REMARK  status: ('A' for Active; 'I' for Inactive)
REMARK    1  A    between atoms: _5  and  _11
REMARK    2  A    between atoms: _19  and  _21
REMARK    3  A    between atoms: _22  and  _66
REMARK    4  A    between atoms: _27  and  _30
REMARK    5  A    between atoms: _32  and  _33
REMARK    6  A    between atoms: _38  and  _43
REMARK    7  A    between atoms: _43  and  _46
REMARK    8  A    between atoms: _53  and  _55
REMARK                            x       y       z     vdW  Elec       q    Type
REMARK                         _______ _______ _______ _____ _____    ______ ____
ROOT
ATOM     10  C   UNL     1      42.617  56.062  23.403  0.00  0.00    +0.038 A 
ATOM     11  C   UNL     1      42.397  55.503  22.119  0.00  0.00    +0.047 A 
ATOM     12  C   UNL     1      42.409  56.332  20.924  0.00  0.00    +0.035 A 
ATOM     32  C   UNL     1      42.651  57.729  21.074  0.00  0.00    +0.024 A 
ATOM     33  C   UNL     1      42.875  58.315  22.372  0.00  0.00    +0.007 A 
ATOM     34  C   UNL     1      42.862  57.502  23.555  0.00  0.00    -0.029 A 
ATOM     35  C   UNL     1      43.102  58.185  24.921  0.00  0.00    +0.045 C 
ENDROOT
BRANCH  10   9
ATOM      4  C   UNL     1      44.594  52.713  26.216  0.00  0.00    +0.077 A 
ATOM      5  C   UNL     1      45.758  52.616  25.383  0.00  0.00    +0.048 A 
ATOM      6  C   UNL     1      45.805  53.440  24.236  0.00  0.00    +0.116 A 
ATOM      7  N   UNL     1      44.761  54.294  23.953  0.00  0.00    -0.223 NA
ATOM      8  C   UNL     1      43.653  54.362  24.777  0.00  0.00    +0.220 A 
ATOM      9  N   UNL     1      42.595  55.219  24.516  0.00  0.00    -0.283 N 
ATOM     36  H   UNL     1      41.791  55.234  25.144  0.00  0.00    +0.155 HD
ATOM     37  N   UNL     1      43.582  53.584  25.878  0.00  0.00    -0.214 NA
BRANCH   4   3
ATOM      1  C   UNL     1      42.969  50.601  29.080  0.00  0.00    +0.020 A 
ATOM      2  C   UNL     1      43.104  51.371  27.864  0.00  0.00    +0.013 A 
ATOM      3  C   UNL     1      44.398  51.910  27.464  0.00  0.00    +0.019 A 
ATOM     38  C   UNL     1      45.544  51.650  28.323  0.00  0.00    +0.120 A 
ATOM     39  N   UNL     1      45.383  50.906  29.488  0.00  0.00    -0.263 NA
ATOM     40  C   UNL     1      44.142  50.384  29.884  0.00  0.00    +0.111 A 
ENDBRANCH   4   3
ENDBRANCH  10   9
BRANCH  12  13
ATOM     13  N   UNL     1      42.184  55.821  19.595  0.00  0.00    -0.281 N 
ATOM     14  C   UNL     1      42.975  54.939  18.877  0.00  0.00    +0.248 C 
ATOM     30  O   UNL     1      44.112  54.619  19.189  0.00  0.00    -0.270 OA
ATOM     31  H   UNL     1      41.340  56.150  19.126  0.00  0.00    +0.155 HD
BRANCH  14  15
ATOM     15  C   UNL     1      42.428  54.336  17.623  0.00  0.00    +0.037 A 
ATOM     16  C   UNL     1      42.845  53.005  17.176  0.00  0.00    +0.013 A 
ATOM     17  C   UNL     1      42.315  52.453  15.954  0.00  0.00    +0.005 A 
ATOM     18  C   UNL     1      41.360  53.234  15.171  0.00  0.00    -0.033 A 
ATOM     28  C   UNL     1      40.960  54.550  15.641  0.00  0.00    +0.005 A 
ATOM     29  C   UNL     1      41.478  55.094  16.837  0.00  0.00    +0.013 A 
BRANCH  18  19
ATOM     19  C   UNL     1      40.760  52.733  13.844  0.00  0.00    +0.119 C 
BRANCH  19  20
ATOM     20  N   UNL     1      39.360  53.147  13.528  0.00  0.00    -0.302 NA
ATOM     21  C   UNL     1      38.489  51.958  13.115  0.00  0.00    +0.066 C 
ATOM     22  C   UNL     1      37.022  52.405  12.810  0.00  0.00    -0.064 C 
ATOM     23  N   UNL     1      37.035  53.473  11.714  0.00  0.00    +0.379 N 
ATOM     24  C   UNL     1      35.654  53.854  11.384  0.00  0.00    -0.096 C 
ATOM     25  H   UNL     1      37.488  53.016  10.803  0.00  0.00    -0.082 HD
ATOM     26  C   UNL     1      37.902  54.658  12.115  0.00  0.00    -0.064 C 
ATOM     27  C   UNL     1      39.350  54.198  12.445  0.00  0.00    +0.066 C 
ENDBRANCH  19  20
ENDBRANCH  18  19
ENDBRANCH  14  15
ENDBRANCH  12  13
TORSDOF 6
ENDMDL
