MODEL 1
REMARK VINA RESULT:     -10.8      0.000      0.000
REMARK  Name = C:\Users\Docking\Desktop\test protocol\1iep_ligandH.pdb
REMARK  8 active torsions:
REMARK  status: ('A' for Active; 'I' for Inactive)
REMARK    1  A    between atoms: _5  and  _11
REMARK    2  A    between atoms: _19  and  _21
REMARK    3  A    between atoms: _22  and  _66
REMARK    4  A    between atoms: _27  and  _30
REMARK    5  A    between atoms: _32  and  _33
REMARK    6  A    between atoms: _38  and  _43
REMARK    7  A    between atoms: _43  and  _46
REMARK    8  A    between atoms: _53  and  _55
REMARK                            x       y       z     vdW  Elec       q    Type
REMARK                         _______ _______ _______ _____ _____    ______ ____
ROOT
ATOM     10  C   UNL     1      68.093  41.464   1.063  0.00  0.00    +0.038 A 
ATOM     11  C   UNL     1      67.772  40.279   0.353  0.00  0.00    +0.047 A 
ATOM     12  C   UNL     1      68.566  39.070   0.509  0.00  0.00    +0.035 A 
ATOM     32  C   UNL     1      69.679  39.102   1.399  0.00  0.00    +0.024 A 
ATOM     33  C   UNL     1      70.019  40.298   2.129  0.00  0.00    +0.007 A 
ATOM     34  C   UNL     1      69.242  41.495   1.977  0.00  0.00    -0.029 A 
ATOM     35  C   UNL     1      69.657  42.750   2.779  0.00  0.00    +0.045 C 
ENDROOT
BRANCH  10   9
ATOM      4  C   UNL     1      66.913  45.461  -1.317  0.00  0.00    +0.077 A 
ATOM      5  C   UNL     1      67.990  45.294  -2.250  0.00  0.00    +0.048 A 
ATOM      6  C   UNL     1      68.829  44.171  -2.078  0.00  0.00    +0.116 A 
ATOM      7  N   UNL     1      68.599  43.286  -1.047  0.00  0.00    -0.223 NA
ATOM      8  C   UNL     1      67.552  43.477  -0.164  0.00  0.00    +0.220 A 
ATOM      9  N   UNL     1      67.297  42.596   0.876  0.00  0.00    -0.283 N 
ATOM     36  H   UNL     1      66.519  42.776   1.510  0.00  0.00    +0.155 HD
ATOM     37  N   UNL     1      66.737  44.543  -0.306  0.00  0.00    -0.214 NA
BRANCH   4   3
ATOM      1  C   UNL     1      63.911  47.843  -0.533  0.00  0.00    +0.020 A 
ATOM      2  C   UNL     1      64.823  46.726  -0.440  0.00  0.00    +0.013 A 
ATOM      3  C   UNL     1      65.938  46.596  -1.369  0.00  0.00    +0.019 A 
ATOM     38  C   UNL     1      66.104  47.621  -2.389  0.00  0.00    +0.120 A 
ATOM     39  N   UNL     1      65.209  48.684  -2.455  0.00  0.00    -0.263 NA
ATOM     40  C   UNL     1      64.131  48.819  -1.567  0.00  0.00    +0.111 A 
ENDBRANCH   4   3
ENDBRANCH  10   9
BRANCH  12  13
ATOM     13  N   UNL     1      68.293  37.840  -0.192  0.00  0.00    -0.281 N 
ATOM     14  C   UNL     1      68.674  37.490  -1.478  0.00  0.00    +0.248 C 
ATOM     30  O   UNL     1      69.126  38.271  -2.301  0.00  0.00    -0.270 OA
ATOM     31  H   UNL     1      67.755  37.142   0.321  0.00  0.00    +0.155 HD
BRANCH  14  15
ATOM     15  C   UNL     1      68.515  36.070  -1.916  0.00  0.00    +0.037 A 
ATOM     16  C   UNL     1      67.190  35.459  -2.049  0.00  0.00    +0.013 A 
ATOM     17  C   UNL     1      67.065  34.082  -2.458  0.00  0.00    +0.005 A 
ATOM     18  C   UNL     1      68.272  33.307  -2.738  0.00  0.00    -0.033 A 
ATOM     28  C   UNL     1      69.573  33.939  -2.603  0.00  0.00    +0.005 A 
ATOM     29  C   UNL     1      69.699  35.288  -2.202  0.00  0.00    +0.013 A 
BRANCH  18  19
ATOM     19  C   UNL     1      68.235  31.826  -3.159  0.00  0.00    +0.119 C 
BRANCH  19  20
ATOM     20  N   UNL     1      69.213  30.905  -2.507  0.00  0.00    -0.302 NA
ATOM     21  C   UNL     1      70.491  30.746  -3.336  0.00  0.00    +0.066 C 
ATOM     22  C   UNL     1      71.514  29.797  -2.629  0.00  0.00    -0.064 C 
ATOM     23  N   UNL     1      70.856  28.438  -2.380  0.00  0.00    +0.379 N 
ATOM     24  C   UNL     1      71.833  27.526  -1.768  0.00  0.00    -0.096 C 
ATOM     25  H   UNL     1      70.572  28.014  -3.371  0.00  0.00    -0.082 HD
ATOM     26  C   UNL     1      69.584  28.588  -1.559  0.00  0.00    -0.064 C 
ATOM     27  C   UNL     1      68.587  29.556  -2.256  0.00  0.00    +0.066 C 
ENDBRANCH  19  20
ENDBRANCH  18  19
ENDBRANCH  14  15
ENDBRANCH  12  13
TORSDOF 6
ENDMDL
MODEL 2
REMARK VINA RESULT:      -9.7      1.880      2.467
REMARK  Name = C:\Users\Docking\Desktop\test protocol\1iep_ligandH.pdb
REMARK  8 active torsions:
REMARK  status: ('A' for Active; 'I' for Inactive)
REMARK    1  A    between atoms: _5  and  _11
REMARK    2  A    between atoms: _19  and  _21
REMARK    3  A    between atoms: _22  and  _66
REMARK    4  A    between atoms: _27  and  _30
REMARK    5  A    between atoms: _32  and  _33
REMARK    6  A    between atoms: _38  and  _43
REMARK    7  A    between atoms: _43  and  _46
REMARK    8  A    between atoms: _53  and  _55
REMARK                            x       y       z     vdW  Elec       q    Type
REMARK                         _______ _______ _______ _____ _____    ______ ____
ROOT
ATOM     10  C   UNL     1      69.469  41.236  -1.660  0.00  0.00    +0.038 A 
ATOM     11  C   UNL     1      69.141  39.875  -1.885  0.00  0.00    +0.047 A 
ATOM     12  C   UNL     1      69.806  38.809  -1.151  0.00  0.00    +0.035 A 
ATOM     32  C   UNL     1      70.799  39.166  -0.193  0.00  0.00    +0.024 A 
ATOM     33  C   UNL     1      71.146  40.544   0.048  0.00  0.00    +0.007 A 
ATOM     34  C   UNL     1      70.495  41.600  -0.675  0.00  0.00    -0.029 A 
ATOM     35  C   UNL     1      70.912  43.060  -0.380  0.00  0.00    +0.045 C 
ENDROOT
BRANCH  10   9
ATOM      4  C   UNL     1      66.102  44.628  -2.100  0.00  0.00    +0.077 A 
ATOM      5  C   UNL     1      65.619  44.405  -0.768  0.00  0.00    +0.048 A 
ATOM      6  C   UNL     1      66.260  43.403  -0.005  0.00  0.00    +0.116 A 
ATOM      7  N   UNL     1      67.305  42.685  -0.543  0.00  0.00    -0.223 NA
ATOM      8  C   UNL     1      67.745  42.924  -1.832  0.00  0.00    +0.220 A 
ATOM      9  N   UNL     1      68.799  42.219  -2.392  0.00  0.00    -0.283 N 
ATOM     36  H   UNL     1      69.089  42.420  -3.349  0.00  0.00    +0.155 HD
ATOM     37  N   UNL     1      67.148  43.874  -2.582  0.00  0.00    -0.214 NA
BRANCH   4   3
ATOM      1  C   UNL     1      65.184  46.648  -5.321  0.00  0.00    +0.020 A 
ATOM      2  C   UNL     1      65.760  45.634  -4.468  0.00  0.00    +0.013 A 
ATOM      3  C   UNL     1      65.530  45.653  -3.029  0.00  0.00    +0.019 A 
ATOM     38  C   UNL     1      64.706  46.720  -2.481  0.00  0.00    +0.120 A 
ATOM     39  N   UNL     1      64.166  47.683  -3.326  0.00  0.00    -0.263 NA
ATOM     40  C   UNL     1      64.381  47.676  -4.713  0.00  0.00    +0.111 A 
ENDBRANCH   4   3
ENDBRANCH  10   9
BRANCH  12  13
ATOM     13  N   UNL     1      69.520  37.409  -1.343  0.00  0.00    -0.281 N 
ATOM     14  C   UNL     1      68.326  36.830  -1.741  0.00  0.00    +0.248 C 
ATOM     30  O   UNL     1      67.255  37.417  -1.786  0.00  0.00    -0.270 OA
ATOM     31  H   UNL     1      70.292  36.766  -1.165  0.00  0.00    +0.155 HD
BRANCH  14  15
ATOM     15  C   UNL     1      68.317  35.387  -2.131  0.00  0.00    +0.037 A 
ATOM     16  C   UNL     1      69.565  34.645  -2.325  0.00  0.00    +0.013 A 
ATOM     17  C   UNL     1      69.529  33.259  -2.718  0.00  0.00    +0.005 A 
ATOM     18  C   UNL     1      68.238  32.605  -2.918  0.00  0.00    -0.033 A 
ATOM     28  C   UNL     1      67.015  33.363  -2.714  0.00  0.00    +0.005 A 
ATOM     29  C   UNL     1      67.047  34.723  -2.330  0.00  0.00    +0.013 A 
BRANCH  18  19
ATOM     19  C   UNL     1      68.104  31.135  -3.358  0.00  0.00    +0.119 C 
BRANCH  19  20
ATOM     20  N   UNL     1      68.451  30.086  -2.353  0.00  0.00    -0.302 NA
ATOM     21  C   UNL     1      69.884  29.575  -2.527  0.00  0.00    +0.066 C 
ATOM     22  C   UNL     1      70.238  28.495  -1.454  0.00  0.00    -0.064 C 
ATOM     23  N   UNL     1      69.237  27.342  -1.545  0.00  0.00    +0.379 N 
ATOM     24  C   UNL     1      69.601  26.298  -0.576  0.00  0.00    -0.096 C 
ATOM     25  H   UNL     1      69.322  26.901  -2.566  0.00  0.00    -0.082 HD
ATOM     26  C   UNL     1      67.809  27.842  -1.376  0.00  0.00    -0.064 C 
ATOM     27  C   UNL     1      67.478  28.936  -2.429  0.00  0.00    +0.066 C 
ENDBRANCH  19  20
ENDBRANCH  18  19
ENDBRANCH  14  15
ENDBRANCH  12  13
TORSDOF 6
ENDMDL
MODEL 3
REMARK VINA RESULT:      -9.5      4.898     12.266
REMARK  Name = C:\Users\Docking\Desktop\test protocol\1iep_ligandH.pdb
REMARK  8 active torsions:
REMARK  status: ('A' for Active; 'I' for Inactive)
REMARK    1  A    between atoms: _5  and  _11
REMARK    2  A    between atoms: _19  and  _21
REMARK    3  A    between atoms: _22  and  _66
REMARK    4  A    between atoms: _27  and  _30
REMARK    5  A    between atoms: _32  and  _33
REMARK    6  A    between atoms: _38  and  _43
REMARK    7  A    between atoms: _43  and  _46
REMARK    8  A    between atoms: _53  and  _55
REMARK                            x       y       z     vdW  Elec       q    Type
REMARK                         _______ _______ _______ _____ _____    ______ ____
ROOT
ATOM     10  C   UNL     1      70.308  39.271  -0.768  0.00  0.00    +0.038 A 
ATOM     11  C   UNL     1      70.504  40.211  -1.811  0.00  0.00    +0.047 A 
ATOM     12  C   UNL     1      70.631  41.633  -1.528  0.00  0.00    +0.035 A 
ATOM     32  C   UNL     1      70.555  42.061  -0.170  0.00  0.00    +0.024 A 
ATOM     33  C   UNL     1      70.355  41.118   0.902  0.00  0.00    +0.007 A 
ATOM     34  C   UNL     1      70.227  39.715   0.629  0.00  0.00    -0.029 A 
ATOM     35  C   UNL     1      70.007  38.751   1.817  0.00  0.00    +0.045 C 
ENDROOT
BRANCH  10   9
ATOM      4  C   UNL     1      67.758  35.465  -2.200  0.00  0.00    +0.077 A 
ATOM      5  C   UNL     1      66.547  36.230  -2.274  0.00  0.00    +0.048 A 
ATOM      6  C   UNL     1      66.621  37.598  -1.928  0.00  0.00    +0.116 A 
ATOM      7  N   UNL     1      67.823  38.149  -1.540  0.00  0.00    -0.223 NA
ATOM      8  C   UNL     1      68.972  37.383  -1.477  0.00  0.00    +0.220 A 
ATOM      9  N   UNL     1      70.193  37.918  -1.096  0.00  0.00    -0.283 N 
ATOM     36  H   UNL     1      71.016  37.318  -1.056  0.00  0.00    +0.155 HD
ATOM     37  N   UNL     1      68.927  36.073  -1.801  0.00  0.00    -0.214 NA
BRANCH   4   3
ATOM      1  C   UNL     1      69.131  31.884  -2.973  0.00  0.00    +0.020 A 
ATOM      2  C   UNL     1      69.106  33.291  -2.646  0.00  0.00    +0.013 A 
ATOM      3  C   UNL     1      67.842  34.008  -2.537  0.00  0.00    +0.019 A 
ATOM     38  C   UNL     1      66.611  33.266  -2.766  0.00  0.00    +0.120 A 
ATOM     39  N   UNL     1      66.666  31.912  -3.081  0.00  0.00    -0.263 NA
ATOM     40  C   UNL     1      67.877  31.212  -3.190  0.00  0.00    +0.111 A 
ENDBRANCH   4   3
ENDBRANCH  10   9
BRANCH  12  13
ATOM     13  N   UNL     1      70.824  42.635  -2.546  0.00  0.00    -0.281 N 
ATOM     14  C   UNL     1      72.012  43.221  -2.950  0.00  0.00    +0.248 C 
ATOM     30  O   UNL     1      73.070  43.126  -2.346  0.00  0.00    -0.270 OA
ATOM     31  H   UNL     1      69.982  42.952  -3.027  0.00  0.00    +0.155 HD
BRANCH  14  15
ATOM     15  C   UNL     1      72.024  44.044  -4.198  0.00  0.00    +0.037 A 
ATOM     16  C   UNL     1      72.617  45.383  -4.220  0.00  0.00    +0.013 A 
ATOM     17  C   UNL     1      72.600  46.162  -5.432  0.00  0.00    +0.005 A 
ATOM     18  C   UNL     1      71.988  45.602  -6.635  0.00  0.00    -0.033 A 
ATOM     28  C   UNL     1      71.411  44.269  -6.587  0.00  0.00    +0.005 A 
ATOM     29  C   UNL     1      71.425  43.503  -5.400  0.00  0.00    +0.013 A 
BRANCH  18  19
ATOM     19  C   UNL     1      71.906  46.371  -7.967  0.00  0.00    +0.119 C 
BRANCH  19  20
ATOM     20  N   UNL     1      70.833  45.967  -8.924  0.00  0.00    -0.302 NA
ATOM     21  C   UNL     1      71.397  45.231 -10.143  0.00  0.00    +0.066 C 
ATOM     22  C   UNL     1      70.258  44.797 -11.122  0.00  0.00    -0.064 C 
ATOM     23  N   UNL     1      69.463  46.030 -11.555  0.00  0.00    +0.379 N 
ATOM     24  C   UNL     1      68.428  45.633 -12.521  0.00  0.00    -0.096 C 
ATOM     25  H   UNL     1      70.166  46.720 -12.076  0.00  0.00    -0.082 HD
ATOM     26  C   UNL     1      68.901  46.769 -10.349  0.00  0.00    -0.064 C 
ATOM     27  C   UNL     1      70.037  47.170  -9.367  0.00  0.00    +0.066 C 
ENDBRANCH  19  20
ENDBRANCH  18  19
ENDBRANCH  14  15
ENDBRANCH  12  13
TORSDOF 6
ENDMDL
MODEL 4
REMARK VINA RESULT:      -9.2      5.347     12.709
REMARK  Name = C:\Users\Docking\Desktop\test protocol\1iep_ligandH.pdb
REMARK  8 active torsions:
REMARK  status: ('A' for Active; 'I' for Inactive)
REMARK    1  A    between atoms: _5  and  _11
REMARK    2  A    between atoms: _19  and  _21
REMARK    3  A    between atoms: _22  and  _66
REMARK    4  A    between atoms: _27  and  _30
REMARK    5  A    between atoms: _32  and  _33
REMARK    6  A    between atoms: _38  and  _43
REMARK    7  A    between atoms: _43  and  _46
REMARK    8  A    between atoms: _53  and  _55
REMARK                            x       y       z     vdW  Elec       q    Type
REMARK                         _______ _______ _______ _____ _____    ______ ____
ROOT
ATOM     10  C   UNL     1      70.805  39.304  -0.454  0.00  0.00    +0.038 A 
ATOM     11  C   UNL     1      71.244  40.217  -1.447  0.00  0.00    +0.047 A 
ATOM     12  C   UNL     1      71.576  41.593  -1.110  0.00  0.00    +0.035 A 
ATOM     32  C   UNL     1      71.453  42.004   0.249  0.00  0.00    +0.024 A 
ATOM     33  C   UNL     1      71.008  41.090   1.271  0.00  0.00    +0.007 A 
ATOM     34  C   UNL     1      70.677  39.732   0.944  0.00  0.00    -0.029 A 
ATOM     35  C   UNL     1      70.198  38.798   2.079  0.00  0.00    +0.045 C 
ENDROOT
BRANCH  10   9
ATOM      4  C   UNL     1      67.733  35.949  -1.985  0.00  0.00    +0.077 A 
ATOM      5  C   UNL     1      66.639  36.877  -2.005  0.00  0.00    +0.048 A 
ATOM      6  C   UNL     1      66.907  38.206  -1.608  0.00  0.00    +0.116 A 
ATOM      7  N   UNL     1      68.178  38.569  -1.221  0.00  0.00    -0.223 NA
ATOM      8  C   UNL     1      69.211  37.650  -1.211  0.00  0.00    +0.220 A 
ATOM      9  N   UNL     1      70.499  37.995  -0.833  0.00  0.00    -0.283 N 
ATOM     36  H   UNL     1      71.232  37.286  -0.832  0.00  0.00    +0.155 HD
ATOM     37  N   UNL     1      68.980  36.374  -1.585  0.00  0.00    -0.214 NA
BRANCH   4   3
ATOM      1  C   UNL     1      68.587  32.256  -2.949  0.00  0.00    +0.020 A 
ATOM      2  C   UNL     1      68.762  33.638  -2.567  0.00  0.00    +0.013 A 
ATOM      3  C   UNL     1      67.609  34.511  -2.380  0.00  0.00    +0.019 A 
ATOM     38  C   UNL     1      66.283  33.948  -2.588  0.00  0.00    +0.120 A 
ATOM     39  N   UNL     1      66.146  32.614  -2.956  0.00  0.00    -0.263 NA
ATOM     40  C   UNL     1      67.248  31.765  -3.141  0.00  0.00    +0.111 A 
ENDBRANCH   4   3
ENDBRANCH  10   9
BRANCH  12  13
ATOM     13  N   UNL     1      72.019  42.567  -2.077  0.00  0.00    -0.281 N 
ATOM     14  C   UNL     1      71.241  43.351  -2.913  0.00  0.00    +0.248 C 
ATOM     30  O   UNL     1      70.047  43.179  -3.109  0.00  0.00    -0.270 OA
ATOM     31  H   UNL     1      73.028  42.694  -2.154  0.00  0.00    +0.155 HD
BRANCH  14  15
ATOM     15  C   UNL     1      71.886  44.480  -3.650  0.00  0.00    +0.037 A 
ATOM     16  C   UNL     1      72.749  45.443  -2.961  0.00  0.00    +0.013 A 
ATOM     17  C   UNL     1      73.345  46.533  -3.692  0.00  0.00    +0.005 A 
ATOM     18  C   UNL     1      73.080  46.665  -5.122  0.00  0.00    -0.033 A 
ATOM     28  C   UNL     1      72.224  45.693  -5.782  0.00  0.00    +0.005 A 
ATOM     29  C   UNL     1      71.637  44.624  -5.069  0.00  0.00    +0.013 A 
BRANCH  18  19
ATOM     19  C   UNL     1      73.656  47.810  -5.977  0.00  0.00    +0.119 C 
BRANCH  19  20
ATOM     20  N   UNL     1      73.979  47.502  -7.403  0.00  0.00    -0.302 NA
ATOM     21  C   UNL     1      75.485  47.557  -7.675  0.00  0.00    +0.066 C 
ATOM     22  C   UNL     1      75.806  47.211  -9.166  0.00  0.00    -0.064 C 
ATOM     23  N   UNL     1      75.054  48.176 -10.084  0.00  0.00    +0.379 N 
ATOM     24  C   UNL     1      75.400  47.890 -11.484  0.00  0.00    -0.096 C 
ATOM     25  H   UNL     1      75.408  49.207  -9.852  0.00  0.00    -0.082 HD
ATOM     26  C   UNL     1      73.557  48.130  -9.818  0.00  0.00    -0.064 C 
ATOM     27  C   UNL     1      73.250  48.446  -8.327  0.00  0.00    +0.066 C 
ENDBRANCH  19  20
ENDBRANCH  18  19
ENDBRANCH  14  15
ENDBRANCH  12  13
TORSDOF 6
ENDMDL
MODEL 5
REMARK VINA RESULT:      -8.8      7.745     13.129
REMARK  Name = C:\Users\Docking\Desktop\test protocol\1iep_ligandH.pdb
REMARK  8 active torsions:
REMARK  status: ('A' for Active; 'I' for Inactive)
REMARK    1  A    between atoms: _5  and  _11
REMARK    2  A    between atoms: _19  and  _21
REMARK    3  A    between atoms: _22  and  _66
REMARK    4  A    between atoms: _27  and  _30
REMARK    5  A    between atoms: _32  and  _33
REMARK    6  A    between atoms: _38  and  _43
REMARK    7  A    between atoms: _43  and  _46
REMARK    8  A    between atoms: _53  and  _55
REMARK                            x       y       z     vdW  Elec       q    Type
REMARK                         _______ _______ _______ _____ _____    ______ ____
ROOT
ATOM     10  C   UNL     1      72.182  44.210  -5.123  0.00  0.00    +0.038 A 
ATOM     11  C   UNL     1      71.278  44.139  -6.214  0.00  0.00    +0.047 A 
ATOM     12  C   UNL     1      71.298  45.136  -7.273  0.00  0.00    +0.035 A 
ATOM     32  C   UNL     1      72.254  46.190  -7.191  0.00  0.00    +0.024 A 
ATOM     33  C   UNL     1      73.179  46.278  -6.088  0.00  0.00    +0.007 A 
ATOM     34  C   UNL     1      73.162  45.299  -5.039  0.00  0.00    -0.029 A 
ATOM     35  C   UNL     1      74.173  45.447  -3.878  0.00  0.00    +0.045 C 
ENDROOT
BRANCH  10   9
ATOM      4  C   UNL     1      70.316  42.361  -1.106  0.00  0.00    +0.077 A 
ATOM      5  C   UNL     1      69.409  43.461  -0.950  0.00  0.00    +0.048 A 
ATOM      6  C   UNL     1      69.459  44.486  -1.922  0.00  0.00    +0.116 A 
ATOM      7  N   UNL     1      70.354  44.406  -2.967  0.00  0.00    -0.223 NA
ATOM      8  C   UNL     1      71.216  43.331  -3.086  0.00  0.00    +0.220 A 
ATOM      9  N   UNL     1      72.119  43.226  -4.133  0.00  0.00    -0.283 N 
ATOM     36  H   UNL     1      72.743  42.422  -4.182  0.00  0.00    +0.155 HD
ATOM     37  N   UNL     1      71.189  42.341  -2.170  0.00  0.00    -0.214 NA
BRANCH   4   3
ATOM      1  C   UNL     1      70.184  40.168   2.131  0.00  0.00    +0.020 A 
ATOM      2  C   UNL     1      70.108  41.321   1.264  0.00  0.00    +0.013 A 
ATOM      3  C   UNL     1      70.381  41.200  -0.163  0.00  0.00    +0.019 A 
ATOM     38  C   UNL     1      70.730  39.887  -0.684  0.00  0.00    +0.120 A 
ATOM     39  N   UNL     1      70.797  38.795   0.175  0.00  0.00    -0.263 NA
ATOM     40  C   UNL     1      70.538  38.900   1.550  0.00  0.00    +0.111 A 
ENDBRANCH   4   3
ENDBRANCH  10   9
BRANCH  12  13
ATOM     13  N   UNL     1      70.400  45.120  -8.401  0.00  0.00    -0.281 N 
ATOM     14  C   UNL     1      70.715  44.940  -9.738  0.00  0.00    +0.248 C 
ATOM     30  O   UNL     1      71.849  44.977 -10.192  0.00  0.00    -0.270 OA
ATOM     31  H   UNL     1      69.412  45.259  -8.188  0.00  0.00    +0.155 HD
BRANCH  14  15
ATOM     15  C   UNL     1      69.609  44.697 -10.714  0.00  0.00    +0.037 A 
ATOM     16  C   UNL     1      69.861  44.042 -12.000  0.00  0.00    +0.013 A 
ATOM     17  C   UNL     1      68.780  43.835 -12.930  0.00  0.00    +0.005 A 
ATOM     18  C   UNL     1      67.435  44.283 -12.576  0.00  0.00    -0.033 A 
ATOM     28  C   UNL     1      67.212  44.925 -11.291  0.00  0.00    +0.005 A 
ATOM     29  C   UNL     1      68.270  45.130 -10.377  0.00  0.00    +0.013 A 
BRANCH  18  19
ATOM     19  C   UNL     1      66.225  44.122 -13.516  0.00  0.00    +0.119 C 
BRANCH  19  20
ATOM     20  N   UNL     1      65.094  45.082 -13.344  0.00  0.00    -0.302 NA
ATOM     21  C   UNL     1      63.732  44.389 -13.442  0.00  0.00    +0.066 C 
ATOM     22  C   UNL     1      62.561  45.403 -13.238  0.00  0.00    -0.064 C 
ATOM     23  N   UNL     1      62.674  46.523 -14.274  0.00  0.00    +0.379 N 
ATOM     24  C   UNL     1      61.541  47.448 -14.122  0.00  0.00    -0.096 C 
ATOM     25  H   UNL     1      62.598  46.058 -15.284  0.00  0.00    -0.082 HD
ATOM     26  C   UNL     1      64.026  47.217 -14.185  0.00  0.00    -0.064 C 
ATOM     27  C   UNL     1      65.184  46.195 -14.360  0.00  0.00    +0.066 C 
ENDBRANCH  19  20
ENDBRANCH  18  19
ENDBRANCH  14  15
ENDBRANCH  12  13
TORSDOF 6
ENDMDL
