MODEL 1
REMARK VINA RESULT:      -8.9      0.000      0.000
REMARK  Name = C:\Users\Docking\Desktop\test protocol\1iep_ligandH.pdb
REMARK  8 active torsions:
REMARK  status: ('A' for Active; 'I' for Inactive)
REMARK    1  A    between atoms: _5  and  _11
REMARK    2  A    between atoms: _19  and  _21
REMARK    3  A    between atoms: _22  and  _66
REMARK    4  A    between atoms: _27  and  _30
REMARK    5  A    between atoms: _32  and  _33
REMARK    6  A    between atoms: _38  and  _43
REMARK    7  A    between atoms: _43  and  _46
REMARK    8  A    between atoms: _53  and  _55
REMARK                            x       y       z     vdW  Elec       q    Type
REMARK                         _______ _______ _______ _____ _____    ______ ____
ROOT
ATOM     10  C   UNL     1     -16.185  34.138  29.840  0.00  0.00    +0.038 A 
ATOM     11  C   UNL     1     -16.797  35.090  28.985  0.00  0.00    +0.047 A 
ATOM     12  C   UNL     1     -17.632  36.155  29.519  0.00  0.00    +0.035 A 
ATOM     32  C   UNL     1     -17.820  36.223  30.930  0.00  0.00    +0.024 A 
ATOM     33  C   UNL     1     -17.206  35.263  31.814  0.00  0.00    +0.007 A 
ATOM     34  C   UNL     1     -16.384  34.209  31.293  0.00  0.00    -0.029 A 
ATOM     35  C   UNL     1     -15.756  33.204  32.287  0.00  0.00    +0.045 C 
ENDROOT
BRANCH  10   9
ATOM      4  C   UNL     1     -15.382  29.570  28.604  0.00  0.00    +0.077 A 
ATOM      5  C   UNL     1     -16.632  29.138  29.159  0.00  0.00    +0.048 A 
ATOM      6  C   UNL     1     -17.450  30.122  29.760  0.00  0.00    +0.116 A 
ATOM      7  N   UNL     1     -17.038  31.436  29.797  0.00  0.00    -0.223 NA
ATOM      8  C   UNL     1     -15.825  31.819  29.254  0.00  0.00    +0.220 A 
ATOM      9  N   UNL     1     -15.394  33.137  29.273  0.00  0.00    -0.283 N 
ATOM     36  H   UNL     1     -14.490  33.377  28.869  0.00  0.00    +0.155 HD
ATOM     37  N   UNL     1     -15.025  30.899  28.676  0.00  0.00    -0.214 NA
BRANCH   4   3
ATOM      1  C   UNL     1     -13.084  26.508  27.803  0.00  0.00    +0.020 A 
ATOM      2  C   UNL     1     -14.026  27.359  28.491  0.00  0.00    +0.013 A 
ATOM      3  C   UNL     1     -14.410  28.650  27.934  0.00  0.00    +0.019 A 
ATOM     38  C   UNL     1     -13.817  29.053  26.667  0.00  0.00    +0.120 A 
ATOM     39  N   UNL     1     -12.911  28.213  26.028  0.00  0.00    -0.263 NA
ATOM     40  C   UNL     1     -12.533  26.969  26.556  0.00  0.00    +0.111 A 
ENDBRANCH   4   3
ENDBRANCH  10   9
BRANCH  12  13
ATOM     13  N   UNL     1     -18.285  37.145  28.699  0.00  0.00    -0.281 N 
ATOM     14  C   UNL     1     -18.020  38.503  28.629  0.00  0.00    +0.248 C 
ATOM     30  O   UNL     1     -17.318  39.111  29.422  0.00  0.00    -0.270 OA
ATOM     31  H   UNL     1     -19.035  36.803  28.097  0.00  0.00    +0.155 HD
BRANCH  14  15
ATOM     15  C   UNL     1     -18.634  39.302  27.525  0.00  0.00    +0.037 A 
ATOM     16  C   UNL     1     -19.893  38.891  26.898  0.00  0.00    +0.013 A 
ATOM     17  C   UNL     1     -20.455  39.671  25.825  0.00  0.00    +0.005 A 
ATOM     18  C   UNL     1     -19.758  40.873  25.372  0.00  0.00    -0.033 A 
ATOM     28  C   UNL     1     -18.514  41.261  26.015  0.00  0.00    +0.005 A 
ATOM     29  C   UNL     1     -17.959  40.498  27.067  0.00  0.00    +0.013 A 
BRANCH  18  19
ATOM     19  C   UNL     1     -20.274  41.754  24.219  0.00  0.00    +0.119 C 
BRANCH  19  20
ATOM     20  N   UNL     1     -21.212  42.861  24.571  0.00  0.00    -0.302 NA
ATOM     21  C   UNL     1     -22.674  42.407  24.538  0.00  0.00    +0.066 C 
ATOM     22  C   UNL     1     -23.641  43.571  24.930  0.00  0.00    -0.064 C 
ATOM     23  N   UNL     1     -23.420  44.754  23.987  0.00  0.00    +0.379 N 
ATOM     24  C   UNL     1     -24.368  45.828  24.317  0.00  0.00    -0.096 C 
ATOM     25  H   UNL     1     -23.648  44.408  22.952  0.00  0.00    -0.082 HD
ATOM     26  C   UNL     1     -21.968  45.210  24.012  0.00  0.00    -0.064 C 
ATOM     27  C   UNL     1     -21.014  44.038  23.648  0.00  0.00    +0.066 C 
ENDBRANCH  19  20
ENDBRANCH  18  19
ENDBRANCH  14  15
ENDBRANCH  12  13
TORSDOF 6
ENDMDL
MODEL 2
REMARK VINA RESULT:      -8.8      2.138      2.944
REMARK  Name = C:\Users\Docking\Desktop\test protocol\1iep_ligandH.pdb
REMARK  8 active torsions:
REMARK  status: ('A' for Active; 'I' for Inactive)
REMARK    1  A    between atoms: _5  and  _11
REMARK    2  A    between atoms: _19  and  _21
REMARK    3  A    between atoms: _22  and  _66
REMARK    4  A    between atoms: _27  and  _30
REMARK    5  A    between atoms: _32  and  _33
REMARK    6  A    between atoms: _38  and  _43
REMARK    7  A    between atoms: _43  and  _46
REMARK    8  A    between atoms: _53  and  _55
REMARK                            x       y       z     vdW  Elec       q    Type
REMARK                         _______ _______ _______ _____ _____    ______ ____
ROOT
ATOM     10  C   UNL     1     -16.148  34.539  29.741  0.00  0.00    +0.038 A 
ATOM     11  C   UNL     1     -17.049  35.304  28.956  0.00  0.00    +0.047 A 
ATOM     12  C   UNL     1     -17.817  36.393  29.539  0.00  0.00    +0.035 A 
ATOM     32  C   UNL     1     -17.641  36.678  30.925  0.00  0.00    +0.024 A 
ATOM     33  C   UNL     1     -16.731  35.910  31.737  0.00  0.00    +0.007 A 
ATOM     34  C   UNL     1     -15.972  34.833  31.168  0.00  0.00    -0.029 A 
ATOM     35  C   UNL     1     -15.016  34.039  32.088  0.00  0.00    +0.045 C 
ENDROOT
BRANCH  10   9
ATOM      4  C   UNL     1     -15.458  29.900  28.725  0.00  0.00    +0.077 A 
ATOM      5  C   UNL     1     -16.597  29.499  29.499  0.00  0.00    +0.048 A 
ATOM      6  C   UNL     1     -17.329  30.518  30.150  0.00  0.00    +0.116 A 
ATOM      7  N   UNL     1     -16.943  31.835  30.027  0.00  0.00    -0.223 NA
ATOM      8  C   UNL     1     -15.838  32.186  29.273  0.00  0.00    +0.220 A 
ATOM      9  N   UNL     1     -15.436  33.505  29.129  0.00  0.00    -0.283 N 
ATOM     36  H   UNL     1     -14.611  33.723  28.571  0.00  0.00    +0.155 HD
ATOM     37  N   UNL     1     -15.121  31.232  28.644  0.00  0.00    -0.214 NA
BRANCH   4   3
ATOM      1  C   UNL     1     -13.418  26.720  27.710  0.00  0.00    +0.020 A 
ATOM      2  C   UNL     1     -14.266  27.608  28.472  0.00  0.00    +0.013 A 
ATOM      3  C   UNL     1     -14.585  28.941  27.976  0.00  0.00    +0.019 A 
ATOM     38  C   UNL     1     -14.026  29.348  26.696  0.00  0.00    +0.120 A 
ATOM     39  N   UNL     1     -13.212  28.472  25.985  0.00  0.00    -0.263 NA
ATOM     40  C   UNL     1     -12.896  27.187  26.452  0.00  0.00    +0.111 A 
ENDBRANCH   4   3
ENDBRANCH  10   9
BRANCH  12  13
ATOM     13  N   UNL     1     -18.753  37.198  28.794  0.00  0.00    -0.281 N 
ATOM     14  C   UNL     1     -18.567  38.478  28.296  0.00  0.00    +0.248 C 
ATOM     30  O   UNL     1     -17.638  39.210  28.602  0.00  0.00    -0.270 OA
ATOM     31  H   UNL     1     -19.662  36.774  28.611  0.00  0.00    +0.155 HD
BRANCH  14  15
ATOM     15  C   UNL     1     -19.566  39.028  27.330  0.00  0.00    +0.037 A 
ATOM     16  C   UNL     1     -19.148  39.849  26.190  0.00  0.00    +0.013 A 
ATOM     17  C   UNL     1     -20.133  40.381  25.282  0.00  0.00    +0.005 A 
ATOM     18  C   UNL     1     -21.547  40.094  25.511  0.00  0.00    -0.033 A 
ATOM     28  C   UNL     1     -21.933  39.273  26.647  0.00  0.00    +0.005 A 
ATOM     29  C   UNL     1     -20.970  38.750  27.539  0.00  0.00    +0.013 A 
BRANCH  18  19
ATOM     19  C   UNL     1     -22.668  40.638  24.606  0.00  0.00    +0.119 C 
BRANCH  19  20
ATOM     20  N   UNL     1     -22.880  39.956  23.295  0.00  0.00    -0.302 NA
ATOM     21  C   UNL     1     -22.611  38.451  23.380  0.00  0.00    +0.066 C 
ATOM     22  C   UNL     1     -22.860  37.749  22.006  0.00  0.00    -0.064 C 
ATOM     23  N   UNL     1     -21.977  38.398  20.938  0.00  0.00    +0.379 N 
ATOM     24  C   UNL     1     -22.166  37.702  19.657  0.00  0.00    -0.096 C 
ATOM     25  H   UNL     1     -20.915  38.257  21.246  0.00  0.00    -0.082 HD
ATOM     26  C   UNL     1     -22.237  39.895  20.848  0.00  0.00    -0.064 C 
ATOM     27  C   UNL     1     -22.015  40.578  22.227  0.00  0.00    +0.066 C 
ENDBRANCH  19  20
ENDBRANCH  18  19
ENDBRANCH  14  15
ENDBRANCH  12  13
TORSDOF 6
ENDMDL
MODEL 3
REMARK VINA RESULT:      -8.4      2.952     15.465
REMARK  Name = C:\Users\Docking\Desktop\test protocol\1iep_ligandH.pdb
REMARK  8 active torsions:
REMARK  status: ('A' for Active; 'I' for Inactive)
REMARK    1  A    between atoms: _5  and  _11
REMARK    2  A    between atoms: _19  and  _21
REMARK    3  A    between atoms: _22  and  _66
REMARK    4  A    between atoms: _27  and  _30
REMARK    5  A    between atoms: _32  and  _33
REMARK    6  A    between atoms: _38  and  _43
REMARK    7  A    between atoms: _43  and  _46
REMARK    8  A    between atoms: _53  and  _55
REMARK                            x       y       z     vdW  Elec       q    Type
REMARK                         _______ _______ _______ _____ _____    ______ ____
ROOT
ATOM     10  C   UNL     1     -23.622  43.250  24.871  0.00  0.00    +0.038 A 
ATOM     11  C   UNL     1     -22.934  42.511  25.867  0.00  0.00    +0.047 A 
ATOM     12  C   UNL     1     -21.934  41.517  25.510  0.00  0.00    +0.035 A 
ATOM     32  C   UNL     1     -21.657  41.303  24.128  0.00  0.00    +0.024 A 
ATOM     33  C   UNL     1     -22.348  42.045  23.102  0.00  0.00    +0.007 A 
ATOM     34  C   UNL     1     -23.337  43.025  23.449  0.00  0.00    -0.029 A 
ATOM     35  C   UNL     1     -24.051  43.787  22.308  0.00  0.00    +0.045 C 
ENDROOT
BRANCH  10   9
ATOM      4  C   UNL     1     -24.919  47.721  26.039  0.00  0.00    +0.077 A 
ATOM      5  C   UNL     1     -23.584  48.217  25.865  0.00  0.00    +0.048 A 
ATOM      6  C   UNL     1     -22.591  47.288  25.481  0.00  0.00    +0.116 A 
ATOM      7  N   UNL     1     -22.921  45.964  25.288  0.00  0.00    -0.223 NA
ATOM      8  C   UNL     1     -24.217  45.518  25.467  0.00  0.00    +0.220 A 
ATOM      9  N   UNL     1     -24.573  44.192  25.271  0.00  0.00    -0.283 N 
ATOM     36  H   UNL     1     -25.539  43.902  25.420  0.00  0.00    +0.155 HD
ATOM     37  N   UNL     1     -25.183  46.386  25.835  0.00  0.00    -0.214 NA
BRANCH   4   3
ATOM      1  C   UNL     1     -28.247  49.776  25.959  0.00  0.00    +0.020 A 
ATOM      2  C   UNL     1     -27.150  48.943  25.522  0.00  0.00    +0.013 A 
ATOM      3  C   UNL     1     -26.077  48.581  26.440  0.00  0.00    +0.019 A 
ATOM     38  C   UNL     1     -26.146  49.080  27.805  0.00  0.00    +0.120 A 
ATOM     39  N   UNL     1     -27.214  49.881  28.198  0.00  0.00    -0.263 NA
ATOM     40  C   UNL     1     -28.250  50.238  27.322  0.00  0.00    +0.111 A 
ENDBRANCH   4   3
ENDBRANCH  10   9
BRANCH  12  13
ATOM     13  N   UNL     1     -21.209  40.730  26.476  0.00  0.00    -0.281 N 
ATOM     14  C   UNL     1     -21.369  39.386  26.773  0.00  0.00    +0.248 C 
ATOM     30  O   UNL     1     -22.311  38.703  26.399  0.00  0.00    -0.270 OA
ATOM     31  H   UNL     1     -20.491  41.224  27.007  0.00  0.00    +0.155 HD
BRANCH  14  15
ATOM     15  C   UNL     1     -20.341  38.706  27.618  0.00  0.00    +0.037 A 
ATOM     16  C   UNL     1     -20.706  37.620  28.531  0.00  0.00    +0.013 A 
ATOM     17  C   UNL     1     -19.698  36.993  29.348  0.00  0.00    +0.005 A 
ATOM     18  C   UNL     1     -18.313  37.449  29.254  0.00  0.00    -0.033 A 
ATOM     28  C   UNL     1     -17.978  38.525  28.336  0.00  0.00    +0.005 A 
ATOM     29  C   UNL     1     -18.964  39.143  27.534  0.00  0.00    +0.013 A 
BRANCH  18  19
ATOM     19  C   UNL     1     -17.176  36.852  30.103  0.00  0.00    +0.119 C 
BRANCH  19  20
ATOM     20  N   UNL     1     -17.032  35.365  30.105  0.00  0.00    -0.302 NA
ATOM     21  C   UNL     1     -15.827  34.906  30.931  0.00  0.00    +0.066 C 
ATOM     22  C   UNL     1     -15.705  33.347  30.940  0.00  0.00    -0.064 C 
ATOM     23  N   UNL     1     -15.601  32.838  29.501  0.00  0.00    +0.379 N 
ATOM     24  C   UNL     1     -15.428  31.378  29.509  0.00  0.00    -0.096 C 
ATOM     25  H   UNL     1     -14.685  33.285  29.050  0.00  0.00    -0.082 HD
ATOM     26  C   UNL     1     -16.794  33.293  28.672  0.00  0.00    -0.064 C 
ATOM     27  C   UNL     1     -16.923  34.841  28.694  0.00  0.00    +0.066 C 
ENDBRANCH  19  20
ENDBRANCH  18  19
ENDBRANCH  14  15
ENDBRANCH  12  13
TORSDOF 6
ENDMDL
MODEL 4
REMARK VINA RESULT:      -8.4      9.903     13.807
REMARK  Name = C:\Users\Docking\Desktop\test protocol\1iep_ligandH.pdb
REMARK  8 active torsions:
REMARK  status: ('A' for Active; 'I' for Inactive)
REMARK    1  A    between atoms: _5  and  _11
REMARK    2  A    between atoms: _19  and  _21
REMARK    3  A    between atoms: _22  and  _66
REMARK    4  A    between atoms: _27  and  _30
REMARK    5  A    between atoms: _32  and  _33
REMARK    6  A    between atoms: _38  and  _43
REMARK    7  A    between atoms: _43  and  _46
REMARK    8  A    between atoms: _53  and  _55
REMARK                            x       y       z     vdW  Elec       q    Type
REMARK                         _______ _______ _______ _____ _____    ______ ____
ROOT
ATOM     10  C   UNL     1     -23.231  44.963  23.815  0.00  0.00    +0.038 A 
ATOM     11  C   UNL     1     -24.474  45.569  24.127  0.00  0.00    +0.047 A 
ATOM     12  C   UNL     1     -24.555  46.685  25.057  0.00  0.00    +0.035 A 
ATOM     32  C   UNL     1     -23.349  47.160  25.649  0.00  0.00    +0.024 A 
ATOM     33  C   UNL     1     -22.076  46.555  25.343  0.00  0.00    +0.007 A 
ATOM     34  C   UNL     1     -21.990  45.453  24.429  0.00  0.00    -0.029 A 
ATOM     35  C   UNL     1     -20.600  44.839  24.143  0.00  0.00    +0.045 C 
ENDROOT
BRANCH  10   9
ATOM      4  C   UNL     1     -22.863  40.285  22.805  0.00  0.00    +0.077 A 
ATOM      5  C   UNL     1     -22.666  39.943  24.184  0.00  0.00    +0.048 A 
ATOM      6  C   UNL     1     -22.659  41.001  25.121  0.00  0.00    +0.116 A 
ATOM      7  N   UNL     1     -22.837  42.300  24.699  0.00  0.00    -0.223 NA
ATOM      8  C   UNL     1     -23.022  42.596  23.361  0.00  0.00    +0.220 A 
ATOM      9  N   UNL     1     -23.211  43.895  22.915  0.00  0.00    -0.283 N 
ATOM     36  H   UNL     1     -23.337  44.073  21.919  0.00  0.00    +0.155 HD
ATOM     37  N   UNL     1     -23.032  41.604  22.446  0.00  0.00    -0.214 NA
BRANCH   4   3
ATOM      1  C   UNL     1     -22.504  38.568  19.309  0.00  0.00    +0.020 A 
ATOM      2  C   UNL     1     -22.449  39.576  20.343  0.00  0.00    +0.013 A 
ATOM      3  C   UNL     1     -22.898  39.279  21.697  0.00  0.00    +0.019 A 
ATOM     38  C   UNL     1     -23.401  37.942  21.975  0.00  0.00    +0.120 A 
ATOM     39  N   UNL     1     -23.444  36.992  20.959  0.00  0.00    -0.263 NA
ATOM     40  C   UNL     1     -23.015  37.267  19.652  0.00  0.00    +0.111 A 
ENDBRANCH   4   3
ENDBRANCH  10   9
BRANCH  12  13
ATOM     13  N   UNL     1     -25.790  47.335  25.419  0.00  0.00    -0.281 N 
ATOM     14  C   UNL     1     -26.039  48.693  25.525  0.00  0.00    +0.248 C 
ATOM     30  O   UNL     1     -25.173  49.556  25.531  0.00  0.00    -0.270 OA
ATOM     31  H   UNL     1     -26.577  46.718  25.622  0.00  0.00    +0.155 HD
BRANCH  14  15
ATOM     15  C   UNL     1     -27.452  49.161  25.656  0.00  0.00    +0.037 A 
ATOM     16  C   UNL     1     -27.947  49.742  26.907  0.00  0.00    +0.013 A 
ATOM     17  C   UNL     1     -29.320  50.170  27.013  0.00  0.00    +0.005 A 
ATOM     18  C   UNL     1     -30.207  50.019  25.862  0.00  0.00    -0.033 A 
ATOM     28  C   UNL     1     -29.689  49.444  24.632  0.00  0.00    +0.005 A 
ATOM     29  C   UNL     1     -28.344  49.022  24.525  0.00  0.00    +0.013 A 
BRANCH  18  19
ATOM     19  C   UNL     1     -31.692  50.428  25.892  0.00  0.00    +0.119 C 
BRANCH  19  20
ATOM     20  N   UNL     1     -32.702  49.331  25.969  0.00  0.00    -0.302 NA
ATOM     21  C   UNL     1     -32.169  48.111  26.726  0.00  0.00    +0.066 C 
ATOM     22  C   UNL     1     -33.247  46.982  26.817  0.00  0.00    -0.064 C 
ATOM     23  N   UNL     1     -33.692  46.592  25.406  0.00  0.00    +0.379 N 
ATOM     24  C   UNL     1     -34.663  45.490  25.486  0.00  0.00    -0.096 C 
ATOM     25  H   UNL     1     -32.796  46.215  24.861  0.00  0.00    -0.082 HD
ATOM     26  C   UNL     1     -34.221  47.799  24.645  0.00  0.00    -0.064 C 
ATOM     27  C   UNL     1     -33.153  48.927  24.587  0.00  0.00    +0.066 C 
ENDBRANCH  19  20
ENDBRANCH  18  19
ENDBRANCH  14  15
ENDBRANCH  12  13
TORSDOF 6
ENDMDL
MODEL 5
REMARK VINA RESULT:      -8.3      4.475     12.669
REMARK  Name = C:\Users\Docking\Desktop\test protocol\1iep_ligandH.pdb
REMARK  8 active torsions:
REMARK  status: ('A' for Active; 'I' for Inactive)
REMARK    1  A    between atoms: _5  and  _11
REMARK    2  A    between atoms: _19  and  _21
REMARK    3  A    between atoms: _22  and  _66
REMARK    4  A    between atoms: _27  and  _30
REMARK    5  A    between atoms: _32  and  _33
REMARK    6  A    between atoms: _38  and  _43
REMARK    7  A    between atoms: _43  and  _46
REMARK    8  A    between atoms: _53  and  _55
REMARK                            x       y       z     vdW  Elec       q    Type
REMARK                         _______ _______ _______ _____ _____    ______ ____
ROOT
ATOM     10  C   UNL     1     -21.836  40.442  23.632  0.00  0.00    +0.038 A 
ATOM     11  C   UNL     1     -21.337  39.581  24.643  0.00  0.00    +0.047 A 
ATOM     12  C   UNL     1     -20.149  39.927  25.408  0.00  0.00    +0.035 A 
ATOM     32  C   UNL     1     -19.495  41.160  25.119  0.00  0.00    +0.024 A 
ATOM     33  C   UNL     1     -19.988  42.047  24.094  0.00  0.00    +0.007 A 
ATOM     34  C   UNL     1     -21.158  41.709  23.335  0.00  0.00    -0.029 A 
ATOM     35  C   UNL     1     -21.637  42.695  22.244  0.00  0.00    +0.045 C 
ENDROOT
BRANCH  10   9
ATOM      4  C   UNL     1     -24.009  38.295  19.931  0.00  0.00    +0.077 A 
ATOM      5  C   UNL     1     -22.758  37.925  19.334  0.00  0.00    +0.048 A 
ATOM      6  C   UNL     1     -21.578  38.314  20.008  0.00  0.00    +0.116 A 
ATOM      7  N   UNL     1     -21.656  39.018  21.190  0.00  0.00    -0.223 NA
ATOM      8  C   UNL     1     -22.879  39.359  21.737  0.00  0.00    +0.220 A 
ATOM      9  N   UNL     1     -22.981  40.060  22.929  0.00  0.00    -0.283 N 
ATOM     36  H   UNL     1     -23.901  40.299  23.296  0.00  0.00    +0.155 HD
ATOM     37  N   UNL     1     -24.020  39.002  21.112  0.00  0.00    -0.214 NA
BRANCH   4   3
ATOM      1  C   UNL     1     -27.002  37.914  17.441  0.00  0.00    +0.020 A 
ATOM      2  C   UNL     1     -25.701  38.264  17.962  0.00  0.00    +0.013 A 
ATOM      3  C   UNL     1     -25.342  37.954  19.340  0.00  0.00    +0.019 A 
ATOM     38  C   UNL     1     -26.330  37.282  20.171  0.00  0.00    +0.120 A 
ATOM     39  N   UNL     1     -27.576  36.958  19.643  0.00  0.00    -0.263 NA
ATOM     40  C   UNL     1     -27.933  37.253  18.318  0.00  0.00    +0.111 A 
ENDBRANCH   4   3
ENDBRANCH  10   9
BRANCH  12  13
ATOM     13  N   UNL     1     -19.592  39.088  26.440  0.00  0.00    -0.281 N 
ATOM     14  C   UNL     1     -20.086  38.865  27.715  0.00  0.00    +0.248 C 
ATOM     30  O   UNL     1     -20.973  39.523  28.237  0.00  0.00    -0.270 OA
ATOM     31  H   UNL     1     -18.729  38.600  26.202  0.00  0.00    +0.155 HD
BRANCH  14  15
ATOM     15  C   UNL     1     -19.500  37.760  28.533  0.00  0.00    +0.037 A 
ATOM     16  C   UNL     1     -20.297  36.589  28.911  0.00  0.00    +0.013 A 
ATOM     17  C   UNL     1     -19.712  35.545  29.715  0.00  0.00    +0.005 A 
ATOM     18  C   UNL     1     -18.321  35.667  30.145  0.00  0.00    -0.033 A 
ATOM     28  C   UNL     1     -17.553  36.836  29.751  0.00  0.00    +0.005 A 
ATOM     29  C   UNL     1     -18.123  37.862  28.964  0.00  0.00    +0.013 A 
BRANCH  18  19
ATOM     19  C   UNL     1     -17.622  34.612  31.022  0.00  0.00    +0.119 C 
BRANCH  19  20
ATOM     20  N   UNL     1     -17.380  33.269  30.415  0.00  0.00    -0.302 NA
ATOM     21  C   UNL     1     -16.121  32.603  30.977  0.00  0.00    +0.066 C 
ATOM     22  C   UNL     1     -15.894  31.190  30.347  0.00  0.00    -0.064 C 
ATOM     23  N   UNL     1     -15.804  31.322  28.826  0.00  0.00    +0.379 N 
ATOM     24  C   UNL     1     -15.534  30.003  28.234  0.00  0.00    -0.096 C 
ATOM     25  H   UNL     1     -14.935  31.981  28.594  0.00  0.00    -0.082 HD
ATOM     26  C   UNL     1     -17.051  31.986  28.258  0.00  0.00    -0.064 C 
ATOM     27  C   UNL     1     -17.283  33.377  28.913  0.00  0.00    +0.066 C 
ENDBRANCH  19  20
ENDBRANCH  18  19
ENDBRANCH  14  15
ENDBRANCH  12  13
TORSDOF 6
ENDMDL
