MODEL 1
REMARK VINA RESULT:      -8.3      0.000      0.000
REMARK  Name = C:\Users\Docking\Desktop\test protocol\1iep_ligandH.pdb
REMARK  8 active torsions:
REMARK  status: ('A' for Active; 'I' for Inactive)
REMARK    1  A    between atoms: _5  and  _11
REMARK    2  A    between atoms: _19  and  _21
REMARK    3  A    between atoms: _22  and  _66
REMARK    4  A    between atoms: _27  and  _30
REMARK    5  A    between atoms: _32  and  _33
REMARK    6  A    between atoms: _38  and  _43
REMARK    7  A    between atoms: _43  and  _46
REMARK    8  A    between atoms: _53  and  _55
REMARK                            x       y       z     vdW  Elec       q    Type
REMARK                         _______ _______ _______ _____ _____    ______ ____
ROOT
ATOM     10  C   UNL     1      77.218  86.434  43.087  0.00  0.00    +0.038 A 
ATOM     11  C   UNL     1      76.688  86.333  41.775  0.00  0.00    +0.047 A 
ATOM     12  C   UNL     1      75.938  87.428  41.180  0.00  0.00    +0.035 A 
ATOM     32  C   UNL     1      75.749  88.614  41.949  0.00  0.00    +0.024 A 
ATOM     33  C   UNL     1      76.280  88.733  43.284  0.00  0.00    +0.007 A 
ATOM     34  C   UNL     1      77.018  87.655  43.877  0.00  0.00    -0.029 A 
ATOM     35  C   UNL     1      77.559  87.836  45.314  0.00  0.00    +0.045 C 
ENDROOT
BRANCH  10   9
ATOM      4  C   UNL     1      81.249  83.885  43.627  0.00  0.00    +0.077 A 
ATOM      5  C   UNL     1      81.992  84.769  42.777  0.00  0.00    +0.048 A 
ATOM      6  C   UNL     1      81.298  85.864  42.214  0.00  0.00    +0.116 A 
ATOM      7  N   UNL     1      79.961  86.051  42.489  0.00  0.00    -0.223 NA
ATOM      8  C   UNL     1      79.273  85.179  43.312  0.00  0.00    +0.220 A 
ATOM      9  N   UNL     1      77.930  85.352  43.608  0.00  0.00    -0.283 N 
ATOM     36  H   UNL     1      77.457  84.682  44.214  0.00  0.00    +0.155 HD
ATOM     37  N   UNL     1      79.913  84.125  43.861  0.00  0.00    -0.214 NA
BRANCH   4   3
ATOM      1  C   UNL     1      82.188  81.183  46.295  0.00  0.00    +0.020 A 
ATOM      2  C   UNL     1      81.590  82.353  45.695  0.00  0.00    +0.013 A 
ATOM      3  C   UNL     1      81.842  82.686  44.299  0.00  0.00    +0.019 A 
ATOM     38  C   UNL     1      82.710  81.805  43.531  0.00  0.00    +0.120 A 
ATOM     39  N   UNL     1      83.273  80.686  44.136  0.00  0.00    -0.263 NA
ATOM     40  C   UNL     1      83.039  80.357  45.479  0.00  0.00    +0.111 A 
ENDBRANCH   4   3
ENDBRANCH  10   9
BRANCH  12  13
ATOM     13  N   UNL     1      75.369  87.380  39.856  0.00  0.00    -0.281 N 
ATOM     14  C   UNL     1      74.432  86.486  39.364  0.00  0.00    +0.248 C 
ATOM     30  O   UNL     1      74.098  85.454  39.928  0.00  0.00    -0.270 OA
ATOM     31  H   UNL     1      75.696  88.091  39.202  0.00  0.00    +0.155 HD
BRANCH  14  15
ATOM     15  C   UNL     1      73.783  86.771  38.048  0.00  0.00    +0.037 A 
ATOM     16  C   UNL     1      73.731  85.758  36.991  0.00  0.00    +0.013 A 
ATOM     17  C   UNL     1      73.114  86.065  35.725  0.00  0.00    +0.005 A 
ATOM     18  C   UNL     1      72.543  87.393  35.510  0.00  0.00    -0.033 A 
ATOM     28  C   UNL     1      72.604  88.377  36.578  0.00  0.00    +0.005 A 
ATOM     29  C   UNL     1      73.209  88.080  37.819  0.00  0.00    +0.013 A 
BRANCH  18  19
ATOM     19  C   UNL     1      71.884  87.815  34.183  0.00  0.00    +0.119 C 
BRANCH  19  20
ATOM     20  N   UNL     1      71.858  86.807  33.082  0.00  0.00    -0.302 NA
ATOM     21  C   UNL     1      73.067  86.940  32.152  0.00  0.00    +0.066 C 
ATOM     22  C   UNL     1      73.036  85.864  31.019  0.00  0.00    -0.064 C 
ATOM     23  N   UNL     1      71.731  85.995  30.231  0.00  0.00    +0.379 N 
ATOM     24  C   UNL     1      71.724  85.022  29.129  0.00  0.00    -0.096 C 
ATOM     25  H   UNL     1      71.708  87.015  29.783  0.00  0.00    -0.082 HD
ATOM     26  C   UNL     1      70.523  85.866  31.148  0.00  0.00    -0.064 C 
ATOM     27  C   UNL     1      70.579  86.921  32.288  0.00  0.00    +0.066 C 
ENDBRANCH  19  20
ENDBRANCH  18  19
ENDBRANCH  14  15
ENDBRANCH  12  13
TORSDOF 6
ENDMDL
MODEL 2
REMARK VINA RESULT:      -8.3      8.542     15.288
REMARK  Name = C:\Users\Docking\Desktop\test protocol\1iep_ligandH.pdb
REMARK  8 active torsions:
REMARK  status: ('A' for Active; 'I' for Inactive)
REMARK    1  A    between atoms: _5  and  _11
REMARK    2  A    between atoms: _19  and  _21
REMARK    3  A    between atoms: _22  and  _66
REMARK    4  A    between atoms: _27  and  _30
REMARK    5  A    between atoms: _32  and  _33
REMARK    6  A    between atoms: _38  and  _43
REMARK    7  A    between atoms: _43  and  _46
REMARK    8  A    between atoms: _53  and  _55
REMARK                            x       y       z     vdW  Elec       q    Type
REMARK                         _______ _______ _______ _____ _____    ______ ____
ROOT
ATOM     10  C   UNL     1      69.218  85.759  29.373  0.00  0.00    +0.038 A 
ATOM     11  C   UNL     1      67.883  86.164  29.117  0.00  0.00    +0.047 A 
ATOM     12  C   UNL     1      67.126  85.604  28.009  0.00  0.00    +0.035 A 
ATOM     32  C   UNL     1      67.758  84.630  27.183  0.00  0.00    +0.024 A 
ATOM     33  C   UNL     1      69.115  84.207  27.428  0.00  0.00    +0.007 A 
ATOM     34  C   UNL     1      69.868  84.758  28.518  0.00  0.00    -0.029 A 
ATOM     35  C   UNL     1      71.321  84.273  28.730  0.00  0.00    +0.045 C 
ENDROOT
BRANCH  10   9
ATOM      4  C   UNL     1      70.355  85.964  34.032  0.00  0.00    +0.077 A 
ATOM      5  C   UNL     1      69.500  84.856  34.350  0.00  0.00    +0.048 A 
ATOM      6  C   UNL     1      68.780  84.267  33.287  0.00  0.00    +0.116 A 
ATOM      7  N   UNL     1      68.912  84.756  32.006  0.00  0.00    -0.223 NA
ATOM      8  C   UNL     1      69.744  85.827  31.733  0.00  0.00    +0.220 A 
ATOM      9  N   UNL     1      69.898  86.330  30.451  0.00  0.00    -0.283 N 
ATOM     36  H   UNL     1      70.516  87.126  30.293  0.00  0.00    +0.155 HD
ATOM     37  N   UNL     1      70.442  86.408  32.731  0.00  0.00    -0.214 NA
BRANCH   4   3
ATOM      1  C   UNL     1      71.982  87.098  37.404  0.00  0.00    +0.020 A 
ATOM      2  C   UNL     1      71.162  86.366  36.466  0.00  0.00    +0.013 A 
ATOM      3  C   UNL     1      71.183  86.691  35.045  0.00  0.00    +0.019 A 
ATOM     38  C   UNL     1      72.053  87.770  34.602  0.00  0.00    +0.120 A 
ATOM     39  N   UNL     1      72.830  88.459  35.528  0.00  0.00    -0.263 NA
ATOM     40  C   UNL     1      72.816  88.156  36.898  0.00  0.00    +0.111 A 
ENDBRANCH   4   3
ENDBRANCH  10   9
BRANCH  12  13
ATOM     13  N   UNL     1      65.770  85.982  27.696  0.00  0.00    -0.281 N 
ATOM     14  C   UNL     1      64.601  85.524  28.280  0.00  0.00    +0.248 C 
ATOM     30  O   UNL     1      64.533  84.554  29.020  0.00  0.00    -0.270 OA
ATOM     31  H   UNL     1      65.659  86.673  26.953  0.00  0.00    +0.155 HD
BRANCH  14  15
ATOM     15  C   UNL     1      63.320  86.237  27.989  0.00  0.00    +0.037 A 
ATOM     16  C   UNL     1      63.299  87.467  27.193  0.00  0.00    +0.013 A 
ATOM     17  C   UNL     1      62.052  88.144  26.941  0.00  0.00    +0.005 A 
ATOM     18  C   UNL     1      60.814  87.592  27.486  0.00  0.00    -0.033 A 
ATOM     28  C   UNL     1      60.863  86.367  28.268  0.00  0.00    +0.005 A 
ATOM     29  C   UNL     1      62.084  85.701  28.517  0.00  0.00    +0.013 A 
BRANCH  18  19
ATOM     19  C   UNL     1      59.441  88.259  27.285  0.00  0.00    +0.119 C 
BRANCH  19  20
ATOM     20  N   UNL     1      59.431  89.670  26.797  0.00  0.00    -0.302 NA
ATOM     21  C   UNL     1      59.420  90.677  27.950  0.00  0.00    +0.066 C 
ATOM     22  C   UNL     1      59.433  92.149  27.422  0.00  0.00    -0.064 C 
ATOM     23  N   UNL     1      58.232  92.367  26.500  0.00  0.00    +0.379 N 
ATOM     24  C   UNL     1      58.209  93.766  26.048  0.00  0.00    -0.096 C 
ATOM     25  H   UNL     1      57.309  92.190  27.101  0.00  0.00    -0.082 HD
ATOM     26  C   UNL     1      58.234  91.368  25.352  0.00  0.00    -0.064 C 
ATOM     27  C   UNL     1      58.251  89.910  25.888  0.00  0.00    +0.066 C 
ENDBRANCH  19  20
ENDBRANCH  18  19
ENDBRANCH  14  15
ENDBRANCH  12  13
TORSDOF 6
ENDMDL
MODEL 3
REMARK VINA RESULT:      -8.2     10.745     12.982
REMARK  Name = C:\Users\Docking\Desktop\test protocol\1iep_ligandH.pdb
REMARK  8 active torsions:
REMARK  status: ('A' for Active; 'I' for Inactive)
REMARK    1  A    between atoms: _5  and  _11
REMARK    2  A    between atoms: _19  and  _21
REMARK    3  A    between atoms: _22  and  _66
REMARK    4  A    between atoms: _27  and  _30
REMARK    5  A    between atoms: _32  and  _33
REMARK    6  A    between atoms: _38  and  _43
REMARK    7  A    between atoms: _43  and  _46
REMARK    8  A    between atoms: _53  and  _55
REMARK                            x       y       z     vdW  Elec       q    Type
REMARK                         _______ _______ _______ _____ _____    ______ ____
ROOT
ATOM     10  C   UNL     1      77.894  87.001  29.842  0.00  0.00    +0.038 A 
ATOM     11  C   UNL     1      76.699  86.528  29.243  0.00  0.00    +0.047 A 
ATOM     12  C   UNL     1      75.403  87.078  29.611  0.00  0.00    +0.035 A 
ATOM     32  C   UNL     1      75.363  88.112  30.592  0.00  0.00    +0.024 A 
ATOM     33  C   UNL     1      76.568  88.604  31.212  0.00  0.00    +0.007 A 
ATOM     34  C   UNL     1      77.848  88.063  30.855  0.00  0.00    -0.029 A 
ATOM     35  C   UNL     1      79.107  88.624  31.556  0.00  0.00    +0.045 C 
ENDROOT
BRANCH  10   9
ATOM      4  C   UNL     1      81.803  86.880  27.061  0.00  0.00    +0.077 A 
ATOM      5  C   UNL     1      81.374  88.021  26.305  0.00  0.00    +0.048 A 
ATOM      6  C   UNL     1      80.137  88.606  26.660  0.00  0.00    +0.116 A 
ATOM      7  N   UNL     1      79.394  88.080  27.695  0.00  0.00    -0.223 NA
ATOM      8  C   UNL     1      79.837  86.977  28.402  0.00  0.00    +0.220 A 
ATOM      9  N   UNL     1      79.110  86.437  29.451  0.00  0.00    -0.283 N 
ATOM     36  H   UNL     1      79.468  85.618  29.943  0.00  0.00    +0.155 HD
ATOM     37  N   UNL     1      81.014  86.400  28.082  0.00  0.00    -0.214 NA
BRANCH   4   3
ATOM      1  C   UNL     1      84.423  84.061  26.356  0.00  0.00    +0.020 A 
ATOM      2  C   UNL     1      83.156  84.714  26.597  0.00  0.00    +0.013 A 
ATOM      3  C   UNL     1      83.088  86.154  26.809  0.00  0.00    +0.019 A 
ATOM     38  C   UNL     1      84.330  86.912  26.770  0.00  0.00    +0.120 A 
ATOM     39  N   UNL     1      85.535  86.256  26.538  0.00  0.00    -0.263 NA
ATOM     40  C   UNL     1      85.613  84.870  26.335  0.00  0.00    +0.111 A 
ENDBRANCH   4   3
ENDBRANCH  10   9
BRANCH  12  13
ATOM     13  N   UNL     1      74.156  86.632  29.043  0.00  0.00    -0.281 N 
ATOM     14  C   UNL     1      73.163  85.881  29.651  0.00  0.00    +0.248 C 
ATOM     30  O   UNL     1      73.294  85.294  30.715  0.00  0.00    -0.270 OA
ATOM     31  H   UNL     1      73.983  86.903  28.075  0.00  0.00    +0.155 HD
BRANCH  14  15
ATOM     15  C   UNL     1      71.838  85.751  28.972  0.00  0.00    +0.037 A 
ATOM     16  C   UNL     1      71.085  86.932  28.543  0.00  0.00    +0.013 A 
ATOM     17  C   UNL     1      69.801  86.779  27.905  0.00  0.00    +0.005 A 
ATOM     18  C   UNL     1      69.263  85.437  27.692  0.00  0.00    -0.033 A 
ATOM     28  C   UNL     1      70.033  84.283  28.123  0.00  0.00    +0.005 A 
ATOM     29  C   UNL     1      71.291  84.429  28.749  0.00  0.00    +0.013 A 
BRANCH  18  19
ATOM     19  C   UNL     1      67.892  85.180  27.039  0.00  0.00    +0.119 C 
BRANCH  19  20
ATOM     20  N   UNL     1      66.696  85.190  27.934  0.00  0.00    -0.302 NA
ATOM     21  C   UNL     1      67.086  85.237  29.414  0.00  0.00    +0.066 C 
ATOM     22  C   UNL     1      65.822  85.270  30.334  0.00  0.00    -0.064 C 
ATOM     23  N   UNL     1      64.950  84.047  30.042  0.00  0.00    +0.379 N 
ATOM     24  C   UNL     1      63.791  84.045  30.947  0.00  0.00    -0.096 C 
ATOM     25  H   UNL     1      65.556  83.139  30.266  0.00  0.00    -0.082 HD
ATOM     26  C   UNL     1      64.560  83.992  28.572  0.00  0.00    -0.064 C 
ATOM     27  C   UNL     1      65.822  83.989  27.665  0.00  0.00    +0.066 C 
ENDBRANCH  19  20
ENDBRANCH  18  19
ENDBRANCH  14  15
ENDBRANCH  12  13
TORSDOF 6
ENDMDL
MODEL 4
REMARK VINA RESULT:      -7.8      3.566     13.051
REMARK  Name = C:\Users\Docking\Desktop\test protocol\1iep_ligandH.pdb
REMARK  8 active torsions:
REMARK  status: ('A' for Active; 'I' for Inactive)
REMARK    1  A    between atoms: _5  and  _11
REMARK    2  A    between atoms: _19  and  _21
REMARK    3  A    between atoms: _22  and  _66
REMARK    4  A    between atoms: _27  and  _30
REMARK    5  A    between atoms: _32  and  _33
REMARK    6  A    between atoms: _38  and  _43
REMARK    7  A    between atoms: _43  and  _46
REMARK    8  A    between atoms: _53  and  _55
REMARK                            x       y       z     vdW  Elec       q    Type
REMARK                         _______ _______ _______ _____ _____    ______ ____
ROOT
ATOM     10  C   UNL     1      75.285  89.351  40.470  0.00  0.00    +0.038 A 
ATOM     11  C   UNL     1      75.635  88.385  41.447  0.00  0.00    +0.047 A 
ATOM     12  C   UNL     1      76.560  88.703  42.523  0.00  0.00    +0.035 A 
ATOM     32  C   UNL     1      77.110  90.017  42.575  0.00  0.00    +0.024 A 
ATOM     33  C   UNL     1      76.766  91.012  41.589  0.00  0.00    +0.007 A 
ATOM     34  C   UNL     1      75.855  90.702  40.524  0.00  0.00    -0.029 A 
ATOM     35  C   UNL     1      75.528  91.806  39.491  0.00  0.00    +0.045 C 
ENDROOT
BRANCH  10   9
ATOM      4  C   UNL     1      73.043  86.076  37.771  0.00  0.00    +0.077 A 
ATOM      5  C   UNL     1      73.731  84.991  38.411  0.00  0.00    +0.048 A 
ATOM      6  C   UNL     1      74.658  85.320  39.425  0.00  0.00    +0.116 A 
ATOM      7  N   UNL     1      74.874  86.637  39.766  0.00  0.00    -0.223 NA
ATOM      8  C   UNL     1      74.196  87.659  39.127  0.00  0.00    +0.220 A 
ATOM      9  N   UNL     1      74.391  88.991  39.459  0.00  0.00    -0.283 N 
ATOM     36  H   UNL     1      73.877  89.716  38.959  0.00  0.00    +0.155 HD
ATOM     37  N   UNL     1      73.306  87.372  38.155  0.00  0.00    -0.214 NA
BRANCH   4   3
ATOM      1  C   UNL     1      71.196  86.218  34.326  0.00  0.00    +0.020 A 
ATOM      2  C   UNL     1      72.204  86.426  35.340  0.00  0.00    +0.013 A 
ATOM      3  C   UNL     1      72.031  85.890  36.684  0.00  0.00    +0.019 A 
ATOM     38  C   UNL     1      70.817  85.140  36.972  0.00  0.00    +0.120 A 
ATOM     39  N   UNL     1      69.863  84.956  35.976  0.00  0.00    -0.263 NA
ATOM     40  C   UNL     1      70.018  85.470  34.679  0.00  0.00    +0.111 A 
ENDBRANCH   4   3
ENDBRANCH  10   9
BRANCH  12  13
ATOM     13  N   UNL     1      76.958  87.761  43.539  0.00  0.00    -0.281 N 
ATOM     14  C   UNL     1      77.569  86.529  43.366  0.00  0.00    +0.248 C 
ATOM     30  O   UNL     1      77.672  85.954  42.293  0.00  0.00    -0.270 OA
ATOM     31  H   UNL     1      76.767  88.035  44.503  0.00  0.00    +0.155 HD
BRANCH  14  15
ATOM     15  C   UNL     1      78.133  85.829  44.560  0.00  0.00    +0.037 A 
ATOM     16  C   UNL     1      78.171  86.477  45.874  0.00  0.00    +0.013 A 
ATOM     17  C   UNL     1      78.736  85.786  47.005  0.00  0.00    +0.005 A 
ATOM     18  C   UNL     1      79.268  84.436  46.828  0.00  0.00    -0.033 A 
ATOM     28  C   UNL     1      79.213  83.815  45.515  0.00  0.00    +0.005 A 
ATOM     29  C   UNL     1      78.660  84.490  44.403  0.00  0.00    +0.013 A 
BRANCH  18  19
ATOM     19  C   UNL     1      79.908  83.632  47.975  0.00  0.00    +0.119 C 
BRANCH  19  20
ATOM     20  N   UNL     1      79.150  83.550  49.259  0.00  0.00    -0.302 NA
ATOM     21  C   UNL     1      79.706  84.508  50.316  0.00  0.00    +0.066 C 
ATOM     22  C   UNL     1      78.888  84.425  51.646  0.00  0.00    -0.064 C 
ATOM     23  N   UNL     1      78.900  82.985  52.160  0.00  0.00    +0.379 N 
ATOM     24  C   UNL     1      78.180  82.914  53.440  0.00  0.00    -0.096 C 
ATOM     25  H   UNL     1      79.961  82.704  52.353  0.00  0.00    -0.082 HD
ATOM     26  C   UNL     1      78.351  82.025  51.113  0.00  0.00    -0.064 C 
ATOM     27  C   UNL     1      79.153  82.137  49.787  0.00  0.00    +0.066 C 
ENDBRANCH  19  20
ENDBRANCH  18  19
ENDBRANCH  14  15
ENDBRANCH  12  13
TORSDOF 6
ENDMDL
MODEL 5
REMARK VINA RESULT:      -7.8      8.769     15.887
REMARK  Name = C:\Users\Docking\Desktop\test protocol\1iep_ligandH.pdb
REMARK  8 active torsions:
REMARK  status: ('A' for Active; 'I' for Inactive)
REMARK    1  A    between atoms: _5  and  _11
REMARK    2  A    between atoms: _19  and  _21
REMARK    3  A    between atoms: _22  and  _66
REMARK    4  A    between atoms: _27  and  _30
REMARK    5  A    between atoms: _32  and  _33
REMARK    6  A    between atoms: _38  and  _43
REMARK    7  A    between atoms: _43  and  _46
REMARK    8  A    between atoms: _53  and  _55
REMARK                            x       y       z     vdW  Elec       q    Type
REMARK                         _______ _______ _______ _____ _____    ______ ____
ROOT
ATOM     10  C   UNL     1      68.277  84.944  29.317  0.00  0.00    +0.038 A 
ATOM     11  C   UNL     1      67.067  85.644  29.076  0.00  0.00    +0.047 A 
ATOM     12  C   UNL     1      66.403  85.574  27.784  0.00  0.00    +0.035 A 
ATOM     32  C   UNL     1      66.997  84.779  26.760  0.00  0.00    +0.024 A 
ATOM     33  C   UNL     1      68.227  84.062  26.989  0.00  0.00    +0.007 A 
ATOM     34  C   UNL     1      68.888  84.129  28.260  0.00  0.00    -0.029 A 
ATOM     35  C   UNL     1      70.208  83.345  28.447  0.00  0.00    +0.045 C 
ENDROOT
BRANCH  10   9
ATOM      4  C   UNL     1      71.231  87.077  32.441  0.00  0.00    +0.077 A 
ATOM      5  C   UNL     1      71.644  88.054  31.475  0.00  0.00    +0.048 A 
ATOM      6  C   UNL     1      71.078  87.968  30.183  0.00  0.00    +0.116 A 
ATOM      7  N   UNL     1      70.167  86.976  29.891  0.00  0.00    -0.223 NA
ATOM      8  C   UNL     1      69.792  86.048  30.846  0.00  0.00    +0.220 A 
ATOM      9  N   UNL     1      68.872  85.047  30.577  0.00  0.00    -0.283 N 
ATOM     36  H   UNL     1      68.627  84.378  31.306  0.00  0.00    +0.155 HD
ATOM     37  N   UNL     1      70.319  86.108  32.087  0.00  0.00    -0.214 NA
BRANCH   4   3
ATOM      1  C   UNL     1      73.146  86.047  35.693  0.00  0.00    +0.020 A 
ATOM      2  C   UNL     1      72.688  86.040  34.323  0.00  0.00    +0.013 A 
ATOM      3  C   UNL     1      71.738  87.038  33.850  0.00  0.00    +0.019 A 
ATOM     38  C   UNL     1      71.267  88.038  34.796  0.00  0.00    +0.120 A 
ATOM     39  N   UNL     1      71.724  88.019  36.110  0.00  0.00    -0.263 NA
ATOM     40  C   UNL     1      72.637  87.062  36.577  0.00  0.00    +0.111 A 
ENDBRANCH   4   3
ENDBRANCH  10   9
BRANCH  12  13
ATOM     13  N   UNL     1      65.177  86.269  27.477  0.00  0.00    -0.281 N 
ATOM     14  C   UNL     1      63.908  86.016  27.972  0.00  0.00    +0.248 C 
ATOM     30  O   UNL     1      63.596  85.012  28.594  0.00  0.00    -0.270 OA
ATOM     31  H   UNL     1      65.254  87.041  26.815  0.00  0.00    +0.155 HD
BRANCH  14  15
ATOM     15  C   UNL     1      62.825  87.018  27.728  0.00  0.00    +0.037 A 
ATOM     16  C   UNL     1      63.084  88.456  27.827  0.00  0.00    +0.013 A 
ATOM     17  C   UNL     1      62.018  89.400  27.604  0.00  0.00    +0.005 A 
ATOM     18  C   UNL     1      60.682  88.907  27.278  0.00  0.00    -0.033 A 
ATOM     28  C   UNL     1      60.454  87.475  27.181  0.00  0.00    +0.005 A 
ATOM     29  C   UNL     1      61.497  86.547  27.400  0.00  0.00    +0.013 A 
BRANCH  18  19
ATOM     19  C   UNL     1      59.480  89.841  27.044  0.00  0.00    +0.119 C 
BRANCH  19  20
ATOM     20  N   UNL     1      59.286  90.374  25.663  0.00  0.00    -0.302 NA
ATOM     21  C   UNL     1      59.575  91.876  25.580  0.00  0.00    +0.066 C 
ATOM     22  C   UNL     1      59.389  92.412  24.124  0.00  0.00    -0.064 C 
ATOM     23  N   UNL     1      57.968  92.107  23.648  0.00  0.00    +0.379 N 
ATOM     24  C   UNL     1      57.772  92.661  22.300  0.00  0.00    -0.096 C 
ATOM     25  H   UNL     1      57.262  92.629  24.335  0.00  0.00    -0.082 HD
ATOM     26  C   UNL     1      57.672  90.616  23.729  0.00  0.00    -0.064 C 
ATOM     27  C   UNL     1      57.888  90.087  25.174  0.00  0.00    +0.066 C 
ENDBRANCH  19  20
ENDBRANCH  18  19
ENDBRANCH  14  15
ENDBRANCH  12  13
TORSDOF 6
ENDMDL
