MODEL 1
REMARK VINA RESULT:      -9.7      0.000      0.000
REMARK  Name = C:\Users\Docking\Desktop\test protocol\1iep_ligandH.pdb
REMARK  8 active torsions:
REMARK  status: ('A' for Active; 'I' for Inactive)
REMARK    1  A    between atoms: _5  and  _11
REMARK    2  A    between atoms: _19  and  _21
REMARK    3  A    between atoms: _22  and  _66
REMARK    4  A    between atoms: _27  and  _30
REMARK    5  A    between atoms: _32  and  _33
REMARK    6  A    between atoms: _38  and  _43
REMARK    7  A    between atoms: _43  and  _46
REMARK    8  A    between atoms: _53  and  _55
REMARK                            x       y       z     vdW  Elec       q    Type
REMARK                         _______ _______ _______ _____ _____    ______ ____
ROOT
ATOM     10  C   UNL     1      49.851  90.892  39.838  0.00  0.00    +0.038 A 
ATOM     11  C   UNL     1      51.069  90.427  40.398  0.00  0.00    +0.047 A 
ATOM     12  C   UNL     1      51.166  89.104  40.994  0.00  0.00    +0.035 A 
ATOM     32  C   UNL     1      50.003  88.279  41.000  0.00  0.00    +0.024 A 
ATOM     33  C   UNL     1      48.758  88.736  40.436  0.00  0.00    +0.007 A 
ATOM     34  C   UNL     1      48.655  90.041  39.849  0.00  0.00    -0.029 A 
ATOM     35  C   UNL     1      47.293  90.481  39.265  0.00  0.00    +0.045 C 
ENDROOT
BRANCH  10   9
ATOM      4  C   UNL     1      50.134  93.886  36.097  0.00  0.00    +0.077 A 
ATOM      5  C   UNL     1      50.403  92.814  35.184  0.00  0.00    +0.048 A 
ATOM      6  C   UNL     1      50.469  91.507  35.718  0.00  0.00    +0.116 A 
ATOM      7  N   UNL     1      50.276  91.300  37.066  0.00  0.00    -0.223 NA
ATOM      8  C   UNL     1      50.019  92.357  37.920  0.00  0.00    +0.220 A 
ATOM      9  N   UNL     1      49.815  92.171  39.279  0.00  0.00    -0.283 N 
ATOM     36  H   UNL     1      49.635  92.978  39.877  0.00  0.00    +0.155 HD
ATOM     37  N   UNL     1      49.954  93.614  37.435  0.00  0.00    -0.214 NA
BRANCH   4   3
ATOM      1  C   UNL     1      49.886  97.143  33.945  0.00  0.00    +0.020 A 
ATOM      2  C   UNL     1      49.986  95.744  34.290  0.00  0.00    +0.013 A 
ATOM      3  C   UNL     1      50.031  95.322  35.684  0.00  0.00    +0.019 A 
ATOM     38  C   UNL     1      49.971  96.349  36.714  0.00  0.00    +0.120 A 
ATOM     39  N   UNL     1      49.876  97.689  36.352  0.00  0.00    -0.263 NA
ATOM     40  C   UNL     1      49.834  98.107  35.013  0.00  0.00    +0.111 A 
ENDBRANCH   4   3
ENDBRANCH  10   9
BRANCH  12  13
ATOM     13  N   UNL     1      52.372  88.581  41.585  0.00  0.00    -0.281 N 
ATOM     14  C   UNL     1      53.331  87.775  40.993  0.00  0.00    +0.248 C 
ATOM     30  O   UNL     1      53.187  87.203  39.923  0.00  0.00    -0.270 OA
ATOM     31  H   UNL     1      52.540  88.836  42.558  0.00  0.00    +0.155 HD
BRANCH  14  15
ATOM     15  C   UNL     1      54.631  87.562  41.698  0.00  0.00    +0.037 A 
ATOM     16  C   UNL     1      55.008  86.244  42.215  0.00  0.00    +0.013 A 
ATOM     17  C   UNL     1      56.261  86.069  42.906  0.00  0.00    +0.005 A 
ATOM     18  C   UNL     1      57.147  87.217  43.084  0.00  0.00    -0.033 A 
ATOM     28  C   UNL     1      56.750  88.513  42.557  0.00  0.00    +0.005 A 
ATOM     29  C   UNL     1      55.523  88.687  41.879  0.00  0.00    +0.013 A 
BRANCH  18  19
ATOM     19  C   UNL     1      58.493  87.128  43.827  0.00  0.00    +0.119 C 
BRANCH  19  20
ATOM     20  N   UNL     1      58.452  87.143  45.320  0.00  0.00    -0.302 NA
ATOM     21  C   UNL     1      58.148  85.758  45.900  0.00  0.00    +0.066 C 
ATOM     22  C   UNL     1      58.131  85.787  47.463  0.00  0.00    -0.064 C 
ATOM     23  N   UNL     1      57.101  86.812  47.940  0.00  0.00    +0.379 N 
ATOM     24  C   UNL     1      57.041  86.800  49.409  0.00  0.00    -0.096 C 
ATOM     25  H   UNL     1      56.103  86.492  47.558  0.00  0.00    -0.082 HD
ATOM     26  C   UNL     1      57.394  88.191  47.366  0.00  0.00    -0.064 C 
ATOM     27  C   UNL     1      57.438  88.145  45.813  0.00  0.00    +0.066 C 
ENDBRANCH  19  20
ENDBRANCH  18  19
ENDBRANCH  14  15
ENDBRANCH  12  13
TORSDOF 6
ENDMDL
MODEL 2
REMARK VINA RESULT:      -9.5      2.151     12.164
REMARK  Name = C:\Users\Docking\Desktop\test protocol\1iep_ligandH.pdb
REMARK  8 active torsions:
REMARK  status: ('A' for Active; 'I' for Inactive)
REMARK    1  A    between atoms: _5  and  _11
REMARK    2  A    between atoms: _19  and  _21
REMARK    3  A    between atoms: _22  and  _66
REMARK    4  A    between atoms: _27  and  _30
REMARK    5  A    between atoms: _32  and  _33
REMARK    6  A    between atoms: _38  and  _43
REMARK    7  A    between atoms: _43  and  _46
REMARK    8  A    between atoms: _53  and  _55
REMARK                            x       y       z     vdW  Elec       q    Type
REMARK                         _______ _______ _______ _____ _____    ______ ____
ROOT
ATOM     10  C   UNL     1      52.666  86.385  41.271  0.00  0.00    +0.038 A 
ATOM     11  C   UNL     1      51.973  87.466  40.670  0.00  0.00    +0.047 A 
ATOM     12  C   UNL     1      51.111  87.260  39.517  0.00  0.00    +0.035 A 
ATOM     32  C   UNL     1      50.974  85.937  39.004  0.00  0.00    +0.024 A 
ATOM     33  C   UNL     1      51.672  84.826  39.602  0.00  0.00    +0.007 A 
ATOM     34  C   UNL     1      52.527  85.024  40.738  0.00  0.00    -0.029 A 
ATOM     35  C   UNL     1      53.255  83.798  41.334  0.00  0.00    +0.045 C 
ENDROOT
BRANCH  10   9
ATOM      4  C   UNL     1      56.944  87.266  43.261  0.00  0.00    +0.077 A 
ATOM      5  C   UNL     1      57.616  87.184  41.996  0.00  0.00    +0.048 A 
ATOM      6  C   UNL     1      56.825  86.906  40.859  0.00  0.00    +0.116 A 
ATOM      7  N   UNL     1      55.465  86.726  40.988  0.00  0.00    -0.223 NA
ATOM      8  C   UNL     1      54.849  86.810  42.223  0.00  0.00    +0.220 A 
ATOM      9  N   UNL     1      53.482  86.640  42.376  0.00  0.00    -0.283 N 
ATOM     36  H   UNL     1      53.066  86.703  43.305  0.00  0.00    +0.155 HD
ATOM     37  N   UNL     1      55.582  87.073  43.325  0.00  0.00    -0.214 NA
BRANCH   4   3
ATOM      1  C   UNL     1      57.976  88.901  46.662  0.00  0.00    +0.020 A 
ATOM      2  C   UNL     1      57.270  88.665  45.424  0.00  0.00    +0.013 A 
ATOM      3  C   UNL     1      57.642  87.556  44.554  0.00  0.00    +0.019 A 
ATOM     38  C   UNL     1      58.741  86.698  44.969  0.00  0.00    +0.120 A 
ATOM     39  N   UNL     1      59.404  86.951  46.166  0.00  0.00    -0.263 NA
ATOM     40  C   UNL     1      59.056  88.016  47.011  0.00  0.00    +0.111 A 
ENDBRANCH   4   3
ENDBRANCH  10   9
BRANCH  12  13
ATOM     13  N   UNL     1      50.388  88.321  38.860  0.00  0.00    -0.281 N 
ATOM     14  C   UNL     1      49.335  89.070  39.358  0.00  0.00    +0.248 C 
ATOM     30  O   UNL     1      48.712  88.796  40.373  0.00  0.00    -0.270 OA
ATOM     31  H   UNL     1      50.690  88.546  37.912  0.00  0.00    +0.155 HD
BRANCH  14  15
ATOM     15  C   UNL     1      48.904  90.293  38.615  0.00  0.00    +0.037 A 
ATOM     16  C   UNL     1      49.875  91.298  38.177  0.00  0.00    +0.013 A 
ATOM     17  C   UNL     1      49.429  92.477  37.476  0.00  0.00    +0.005 A 
ATOM     18  C   UNL     1      48.005  92.655  37.208  0.00  0.00    -0.033 A 
ATOM     28  C   UNL     1      47.063  91.639  37.649  0.00  0.00    +0.005 A 
ATOM     29  C   UNL     1      47.496  90.483  38.337  0.00  0.00    +0.013 A 
BRANCH  18  19
ATOM     19  C   UNL     1      47.438  93.891  36.485  0.00  0.00    +0.119 C 
BRANCH  19  20
ATOM     20  N   UNL     1      48.403  94.967  36.112  0.00  0.00    -0.302 NA
ATOM     21  C   UNL     1      48.507  96.046  37.194  0.00  0.00    +0.066 C 
ATOM     22  C   UNL     1      49.538  97.152  36.797  0.00  0.00    -0.064 C 
ATOM     23  N   UNL     1      49.132  97.767  35.456  0.00  0.00    +0.379 N 
ATOM     24  C   UNL     1      50.067  98.847  35.109  0.00  0.00    -0.096 C 
ATOM     25  H   UNL     1      48.122  98.222  35.585  0.00  0.00    -0.082 HD
ATOM     26  C   UNL     1      49.024  96.701  34.376  0.00  0.00    -0.064 C 
ATOM     27  C   UNL     1      48.019  95.591  34.793  0.00  0.00    +0.066 C 
ENDBRANCH  19  20
ENDBRANCH  18  19
ENDBRANCH  14  15
ENDBRANCH  12  13
TORSDOF 6
ENDMDL
MODEL 3
REMARK VINA RESULT:      -9.0      6.713      9.984
REMARK  Name = C:\Users\Docking\Desktop\test protocol\1iep_ligandH.pdb
REMARK  8 active torsions:
REMARK  status: ('A' for Active; 'I' for Inactive)
REMARK    1  A    between atoms: _5  and  _11
REMARK    2  A    between atoms: _19  and  _21
REMARK    3  A    between atoms: _22  and  _66
REMARK    4  A    between atoms: _27  and  _30
REMARK    5  A    between atoms: _32  and  _33
REMARK    6  A    between atoms: _38  and  _43
REMARK    7  A    between atoms: _43  and  _46
REMARK    8  A    between atoms: _53  and  _55
REMARK                            x       y       z     vdW  Elec       q    Type
REMARK                         _______ _______ _______ _____ _____    ______ ____
ROOT
ATOM     10  C   UNL     1      56.414  85.920  41.923  0.00  0.00    +0.038 A 
ATOM     11  C   UNL     1      56.245  86.076  43.323  0.00  0.00    +0.047 A 
ATOM     12  C   UNL     1      56.841  87.198  44.032  0.00  0.00    +0.035 A 
ATOM     32  C   UNL     1      57.602  88.142  43.284  0.00  0.00    +0.024 A 
ATOM     33  C   UNL     1      57.786  87.998  41.861  0.00  0.00    +0.007 A 
ATOM     34  C   UNL     1      57.202  86.892  41.157  0.00  0.00    -0.029 A 
ATOM     35  C   UNL     1      57.437  86.784  39.632  0.00  0.00    +0.045 C 
ENDROOT
BRANCH  10   9
ATOM      4  C   UNL     1      52.708  83.794  39.736  0.00  0.00    +0.077 A 
ATOM      5  C   UNL     1      51.878  84.954  39.885  0.00  0.00    +0.048 A 
ATOM      6  C   UNL     1      52.440  86.075  40.537  0.00  0.00    +0.116 A 
ATOM      7  N   UNL     1      53.737  86.027  41.001  0.00  0.00    -0.223 NA
ATOM      8  C   UNL     1      54.510  84.891  40.842  0.00  0.00    +0.220 A 
ATOM      9  N   UNL     1      55.819  84.824  41.293  0.00  0.00    -0.283 N 
ATOM     36  H   UNL     1      56.354  83.966  41.164  0.00  0.00    +0.155 HD
ATOM     37  N   UNL     1      53.996  83.808  40.224  0.00  0.00    -0.214 NA
BRANCH   4   3
ATOM      1  C   UNL     1      52.153  80.962  37.095  0.00  0.00    +0.020 A 
ATOM      2  C   UNL     1      52.613  82.194  37.695  0.00  0.00    +0.013 A 
ATOM      3  C   UNL     1      52.258  82.532  39.067  0.00  0.00    +0.019 A 
ATOM     38  C   UNL     1      51.431  81.595  39.812  0.00  0.00    +0.120 A 
ATOM     39  N   UNL     1      51.001  80.418  39.208  0.00  0.00    -0.263 NA
ATOM     40  C   UNL     1      51.335  80.082  37.888  0.00  0.00    +0.111 A 
ENDBRANCH   4   3
ENDBRANCH  10   9
BRANCH  12  13
ATOM     13  N   UNL     1      56.710  87.405  45.453  0.00  0.00    -0.281 N 
ATOM     14  C   UNL     1      57.658  87.179  46.438  0.00  0.00    +0.248 C 
ATOM     30  O   UNL     1      58.697  86.559  46.267  0.00  0.00    -0.270 OA
ATOM     31  H   UNL     1      55.808  87.761  45.772  0.00  0.00    +0.155 HD
BRANCH  14  15
ATOM     15  C   UNL     1      57.408  87.705  47.814  0.00  0.00    +0.037 A 
ATOM     16  C   UNL     1      57.184  86.801  48.944  0.00  0.00    +0.013 A 
ATOM     17  C   UNL     1      56.928  87.335  50.259  0.00  0.00    +0.005 A 
ATOM     18  C   UNL     1      56.898  88.783  50.450  0.00  0.00    -0.033 A 
ATOM     28  C   UNL     1      57.129  89.657  49.312  0.00  0.00    +0.005 A 
ATOM     29  C   UNL     1      57.379  89.137  48.022  0.00  0.00    +0.013 A 
BRANCH  18  19
ATOM     19  C   UNL     1      56.612  89.441  51.813  0.00  0.00    +0.119 C 
BRANCH  19  20
ATOM     20  N   UNL     1      56.002  90.804  51.799  0.00  0.00    -0.302 NA
ATOM     21  C   UNL     1      56.947  91.863  52.372  0.00  0.00    +0.066 C 
ATOM     22  C   UNL     1      56.301  93.286  52.330  0.00  0.00    -0.064 C 
ATOM     23  N   UNL     1      54.980  93.266  53.100  0.00  0.00    +0.379 N 
ATOM     24  C   UNL     1      54.398  94.616  53.112  0.00  0.00    -0.096 C 
ATOM     25  H   UNL     1      55.208  92.987  54.155  0.00  0.00    -0.082 HD
ATOM     26  C   UNL     1      54.034  92.214  52.539  0.00  0.00    -0.064 C 
ATOM     27  C   UNL     1      54.697  90.808  52.558  0.00  0.00    +0.066 C 
ENDBRANCH  19  20
ENDBRANCH  18  19
ENDBRANCH  14  15
ENDBRANCH  12  13
TORSDOF 6
ENDMDL
MODEL 4
REMARK VINA RESULT:      -8.7     18.912     21.253
REMARK  Name = C:\Users\Docking\Desktop\test protocol\1iep_ligandH.pdb
REMARK  8 active torsions:
REMARK  status: ('A' for Active; 'I' for Inactive)
REMARK    1  A    between atoms: _5  and  _11
REMARK    2  A    between atoms: _19  and  _21
REMARK    3  A    between atoms: _22  and  _66
REMARK    4  A    between atoms: _27  and  _30
REMARK    5  A    between atoms: _32  and  _33
REMARK    6  A    between atoms: _38  and  _43
REMARK    7  A    between atoms: _43  and  _46
REMARK    8  A    between atoms: _53  and  _55
REMARK                            x       y       z     vdW  Elec       q    Type
REMARK                         _______ _______ _______ _____ _____    ______ ____
ROOT
ATOM     10  C   UNL     1      45.713 104.515  28.268  0.00  0.00    +0.038 A 
ATOM     11  C   UNL     1      47.097 104.516  27.960  0.00  0.00    +0.047 A 
ATOM     12  C   UNL     1      48.101 104.422  29.008  0.00  0.00    +0.035 A 
ATOM     32  C   UNL     1      47.660 104.325  30.360  0.00  0.00    +0.024 A 
ATOM     33  C   UNL     1      46.257 104.324  30.691  0.00  0.00    +0.007 A 
ATOM     34  C   UNL     1      45.262 104.419  29.662  0.00  0.00    -0.029 A 
ATOM     35  C   UNL     1      43.772 104.419  30.076  0.00  0.00    +0.045 C 
ENDROOT
BRANCH  10   9
ATOM      4  C   UNL     1      43.139 107.047  25.106  0.00  0.00    +0.077 A 
ATOM      5  C   UNL     1      43.654 108.294  25.596  0.00  0.00    +0.048 A 
ATOM      6  C   UNL     1      44.572 108.240  26.668  0.00  0.00    +0.116 A 
ATOM      7  N   UNL     1      44.943 107.024  27.202  0.00  0.00    -0.223 NA
ATOM      8  C   UNL     1      44.427 105.841  26.706  0.00  0.00    +0.220 A 
ATOM      9  N   UNL     1      44.791 104.607  27.223  0.00  0.00    -0.283 N 
ATOM     36  H   UNL     1      44.382 103.757  26.834  0.00  0.00    +0.155 HD
ATOM     37  N   UNL     1      43.546 105.866  25.684  0.00  0.00    -0.214 NA
BRANCH   4   3
ATOM      1  C   UNL     1      39.819 106.838  23.048  0.00  0.00    +0.020 A 
ATOM      2  C   UNL     1      40.719 106.945  24.174  0.00  0.00    +0.013 A 
ATOM      3  C   UNL     1      42.163 106.940  23.976  0.00  0.00    +0.019 A 
ATOM     38  C   UNL     1      42.668 106.826  22.616  0.00  0.00    +0.120 A 
ATOM     39  N   UNL     1      41.778 106.723  21.552  0.00  0.00    -0.263 NA
ATOM     40  C   UNL     1      40.386 106.725  21.730  0.00  0.00    +0.111 A 
ENDBRANCH   4   3
ENDBRANCH  10   9
BRANCH  12  13
ATOM     13  N   UNL     1      49.521 104.427  28.756  0.00  0.00    -0.281 N 
ATOM     14  C   UNL     1      50.299 105.472  28.286  0.00  0.00    +0.248 C 
ATOM     30  O   UNL     1      49.853 106.504  27.806  0.00  0.00    -0.270 OA
ATOM     31  H   UNL     1      50.012 103.553  28.947  0.00  0.00    +0.155 HD
BRANCH  14  15
ATOM     15  C   UNL     1      51.787 105.348  28.345  0.00  0.00    +0.037 A 
ATOM     16  C   UNL     1      52.429 104.189  28.970  0.00  0.00    +0.013 A 
ATOM     17  C   UNL     1      53.867 104.102  29.029  0.00  0.00    +0.005 A 
ATOM     18  C   UNL     1      54.673 105.178  28.457  0.00  0.00    -0.033 A 
ATOM     28  C   UNL     1      54.010 106.314  27.838  0.00  0.00    +0.005 A 
ATOM     29  C   UNL     1      52.602 106.403  27.780  0.00  0.00    +0.013 A 
BRANCH  18  19
ATOM     19  C   UNL     1      56.213 105.179  28.493  0.00  0.00    +0.119 C 
BRANCH  19  20
ATOM     20  N   UNL     1      56.875 106.154  29.410  0.00  0.00    -0.302 NA
ATOM     21  C   UNL     1      58.355 106.349  29.071  0.00  0.00    +0.066 C 
ATOM     22  C   UNL     1      59.026 107.389  30.026  0.00  0.00    -0.064 C 
ATOM     23  N   UNL     1      58.859 106.929  31.475  0.00  0.00    +0.379 N 
ATOM     24  C   UNL     1      59.539 107.875  32.371  0.00  0.00    -0.096 C 
ATOM     25  H   UNL     1      59.367 105.941  31.576  0.00  0.00    -0.082 HD
ATOM     26  C   UNL     1      57.390 106.730  31.820  0.00  0.00    -0.064 C 
ATOM     27  C   UNL     1      56.725 105.717  30.847  0.00  0.00    +0.066 C 
ENDBRANCH  19  20
ENDBRANCH  18  19
ENDBRANCH  14  15
ENDBRANCH  12  13
TORSDOF 6
ENDMDL
MODEL 5
REMARK VINA RESULT:      -8.6      6.035     12.635
REMARK  Name = C:\Users\Docking\Desktop\test protocol\1iep_ligandH.pdb
REMARK  8 active torsions:
REMARK  status: ('A' for Active; 'I' for Inactive)
REMARK    1  A    between atoms: _5  and  _11
REMARK    2  A    between atoms: _19  and  _21
REMARK    3  A    between atoms: _22  and  _66
REMARK    4  A    between atoms: _27  and  _30
REMARK    5  A    between atoms: _32  and  _33
REMARK    6  A    between atoms: _38  and  _43
REMARK    7  A    between atoms: _43  and  _46
REMARK    8  A    between atoms: _53  and  _55
REMARK                            x       y       z     vdW  Elec       q    Type
REMARK                         _______ _______ _______ _____ _____    ______ ____
ROOT
ATOM     10  C   UNL     1      56.375  86.839  36.267  0.00  0.00    +0.038 A 
ATOM     11  C   UNL     1      55.512  87.896  35.880  0.00  0.00    +0.047 A 
ATOM     12  C   UNL     1      56.013  89.249  35.699  0.00  0.00    +0.035 A 
ATOM     32  C   UNL     1      57.401  89.490  35.918  0.00  0.00    +0.024 A 
ATOM     33  C   UNL     1      58.292  88.428  36.312  0.00  0.00    +0.007 A 
ATOM     34  C   UNL     1      57.803  87.092  36.495  0.00  0.00    -0.029 A 
ATOM     35  C   UNL     1      58.803  85.994  36.925  0.00  0.00    +0.045 C 
ENDROOT
BRANCH  10   9
ATOM      4  C   UNL     1      52.940  83.845  37.775  0.00  0.00    +0.077 A 
ATOM      5  C   UNL     1      52.158  84.920  38.315  0.00  0.00    +0.048 A 
ATOM      6  C   UNL     1      52.678  86.227  38.190  0.00  0.00    +0.116 A 
ATOM      7  N   UNL     1      53.891  86.433  37.569  0.00  0.00    -0.223 NA
ATOM      8  C   UNL     1      54.622  85.374  37.062  0.00  0.00    +0.220 A 
ATOM      9  N   UNL     1      55.840  85.559  36.427  0.00  0.00    -0.283 N 
ATOM     36  H   UNL     1      56.352  84.751  36.072  0.00  0.00    +0.155 HD
ATOM     37  N   UNL     1      54.147  84.116  37.170  0.00  0.00    -0.214 NA
BRANCH   4   3
ATOM      1  C   UNL     1      51.307  80.469  38.888  0.00  0.00    +0.020 A 
ATOM      2  C   UNL     1      51.682  81.865  38.885  0.00  0.00    +0.013 A 
ATOM      3  C   UNL     1      52.523  82.408  37.827  0.00  0.00    +0.019 A 
ATOM     38  C   UNL     1      52.972  81.506  36.777  0.00  0.00    +0.120 A 
ATOM     39  N   UNL     1      52.596  80.166  36.807  0.00  0.00    -0.263 NA
ATOM     40  C   UNL     1      51.788  79.632  37.821  0.00  0.00    +0.111 A 
ENDBRANCH   4   3
ENDBRANCH  10   9
BRANCH  12  13
ATOM     13  N   UNL     1      55.183  90.364  35.315  0.00  0.00    -0.281 N 
ATOM     14  C   UNL     1      54.310  90.446  34.242  0.00  0.00    +0.248 C 
ATOM     30  O   UNL     1      54.270  89.644  33.321  0.00  0.00    -0.270 OA
ATOM     31  H   UNL     1      55.246  91.193  35.906  0.00  0.00    +0.155 HD
BRANCH  14  15
ATOM     15  C   UNL     1      53.353  91.592  34.176  0.00  0.00    +0.037 A 
ATOM     16  C   UNL     1      53.033  92.385  35.366  0.00  0.00    +0.013 A 
ATOM     17  C   UNL     1      52.094  93.474  35.278  0.00  0.00    +0.005 A 
ATOM     18  C   UNL     1      51.468  93.778  33.994  0.00  0.00    -0.033 A 
ATOM     28  C   UNL     1      51.807  92.979  32.828  0.00  0.00    +0.005 A 
ATOM     29  C   UNL     1      52.727  91.910  32.911  0.00  0.00    +0.013 A 
BRANCH  18  19
ATOM     19  C   UNL     1      50.438  94.909  33.812  0.00  0.00    +0.119 C 
BRANCH  19  20
ATOM     20  N   UNL     1      49.008  94.583  34.089  0.00  0.00    -0.302 NA
ATOM     21  C   UNL     1      48.456  95.379  35.275  0.00  0.00    +0.066 C 
ATOM     22  C   UNL     1      46.952  95.041  35.537  0.00  0.00    -0.064 C 
ATOM     23  N   UNL     1      46.804  93.538  35.778  0.00  0.00    +0.379 N 
ATOM     24  C   UNL     1      45.400  93.226  36.081  0.00  0.00    -0.096 C 
ATOM     25  H   UNL     1      47.410  93.279  36.676  0.00  0.00    -0.082 HD
ATOM     26  C   UNL     1      47.353  92.739  34.604  0.00  0.00    -0.064 C 
ATOM     27  C   UNL     1      48.839  93.103  34.334  0.00  0.00    +0.066 C 
ENDBRANCH  19  20
ENDBRANCH  18  19
ENDBRANCH  14  15
ENDBRANCH  12  13
TORSDOF 6
ENDMDL
