MODEL 1
REMARK VINA RESULT:      -8.8      0.000      0.000
REMARK  Name = C:\Users\Docking\Desktop\test protocol\1iep_ligandH.pdb
REMARK  8 active torsions:
REMARK  status: ('A' for Active; 'I' for Inactive)
REMARK    1  A    between atoms: _5  and  _11
REMARK    2  A    between atoms: _19  and  _21
REMARK    3  A    between atoms: _22  and  _66
REMARK    4  A    between atoms: _27  and  _30
REMARK    5  A    between atoms: _32  and  _33
REMARK    6  A    between atoms: _38  and  _43
REMARK    7  A    between atoms: _43  and  _46
REMARK    8  A    between atoms: _53  and  _55
REMARK                            x       y       z     vdW  Elec       q    Type
REMARK                         _______ _______ _______ _____ _____    ______ ____
ROOT
ATOM     10  C   UNL     1      17.500  -0.710  17.666  0.00  0.00    +0.038 A 
ATOM     11  C   UNL     1      16.849   0.056  16.666  0.00  0.00    +0.047 A 
ATOM     12  C   UNL     1      16.979  -0.280  15.257  0.00  0.00    +0.035 A 
ATOM     32  C   UNL     1      17.780  -1.405  14.902  0.00  0.00    +0.024 A 
ATOM     33  C   UNL     1      18.450  -2.194  15.905  0.00  0.00    +0.007 A 
ATOM     34  C   UNL     1      18.327  -1.865  17.297  0.00  0.00    -0.029 A 
ATOM     35  C   UNL     1      19.073  -2.742  18.329  0.00  0.00    +0.045 C 
ENDROOT
BRANCH  10   9
ATOM      4  C   UNL     1      14.864  -0.297  21.656  0.00  0.00    +0.077 A 
ATOM      5  C   UNL     1      13.700  -0.834  21.013  0.00  0.00    +0.048 A 
ATOM      6  C   UNL     1      13.819  -1.198  19.653  0.00  0.00    +0.116 A 
ATOM      7  N   UNL     1      15.019  -1.033  18.995  0.00  0.00    -0.223 NA
ATOM      8  C   UNL     1      16.122  -0.510  19.644  0.00  0.00    +0.220 A 
ATOM      9  N   UNL     1      17.340  -0.342  19.004  0.00  0.00    -0.283 N 
ATOM     36  H   UNL     1      18.128   0.053  19.516  0.00  0.00    +0.155 HD
ATOM     37  N   UNL     1      16.033  -0.154  20.943  0.00  0.00    -0.214 NA
BRANCH   4   3
ATOM      1  C   UNL     1      15.914   1.390  25.026  0.00  0.00    +0.020 A 
ATOM      2  C   UNL     1      15.928   1.007  23.633  0.00  0.00    +0.013 A 
ATOM      3  C   UNL     1      14.898   0.130  23.091  0.00  0.00    +0.019 A 
ATOM     38  C   UNL     1      13.858  -0.345  23.992  0.00  0.00    +0.120 A 
ATOM     39  N   UNL     1      13.871   0.040  25.329  0.00  0.00    -0.263 NA
ATOM     40  C   UNL     1      14.859   0.882  25.862  0.00  0.00    +0.111 A 
ENDBRANCH   4   3
ENDBRANCH  10   9
BRANCH  12  13
ATOM     13  N   UNL     1      16.348   0.465  14.196  0.00  0.00    -0.281 N 
ATOM     14  C   UNL     1      15.119   1.105  14.220  0.00  0.00    +0.248 C 
ATOM     30  O   UNL     1      14.277   0.953  15.092  0.00  0.00    -0.270 OA
ATOM     31  H   UNL     1      16.869   0.529  13.322  0.00  0.00    +0.155 HD
BRANCH  14  15
ATOM     15  C   UNL     1      14.770   2.039  13.106  0.00  0.00    +0.037 A 
ATOM     16  C   UNL     1      13.539   2.833  13.137  0.00  0.00    +0.013 A 
ATOM     17  C   UNL     1      13.218   3.713  12.042  0.00  0.00    +0.005 A 
ATOM     18  C   UNL     1      14.131   3.805  10.906  0.00  0.00    -0.033 A 
ATOM     28  C   UNL     1      15.348   3.010  10.903  0.00  0.00    +0.005 A 
ATOM     29  C   UNL     1      15.666   2.146  11.974  0.00  0.00    +0.013 A 
BRANCH  18  19
ATOM     19  C   UNL     1      13.858   4.701   9.684  0.00  0.00    +0.119 C 
BRANCH  19  20
ATOM     20  N   UNL     1      13.912   6.179   9.894  0.00  0.00    -0.302 NA
ATOM     21  C   UNL     1      12.515   6.805   9.936  0.00  0.00    +0.066 C 
ATOM     22  C   UNL     1      12.590   8.347  10.179  0.00  0.00    -0.064 C 
ATOM     23  N   UNL     1      13.440   8.993   9.084  0.00  0.00    +0.379 N 
ATOM     24  C   UNL     1      13.464  10.451   9.277  0.00  0.00    -0.096 C 
ATOM     25  H   UNL     1      12.943   8.789   8.107  0.00  0.00    -0.082 HD
ATOM     26  C   UNL     1      14.830   8.375   9.034  0.00  0.00    -0.064 C 
ATOM     27  C   UNL     1      14.744   6.838   8.821  0.00  0.00    +0.066 C 
ENDBRANCH  19  20
ENDBRANCH  18  19
ENDBRANCH  14  15
ENDBRANCH  12  13
TORSDOF 6
ENDMDL
MODEL 2
REMARK VINA RESULT:      -8.6      1.382      2.138
REMARK  Name = C:\Users\Docking\Desktop\test protocol\1iep_ligandH.pdb
REMARK  8 active torsions:
REMARK  status: ('A' for Active; 'I' for Inactive)
REMARK    1  A    between atoms: _5  and  _11
REMARK    2  A    between atoms: _19  and  _21
REMARK    3  A    between atoms: _22  and  _66
REMARK    4  A    between atoms: _27  and  _30
REMARK    5  A    between atoms: _32  and  _33
REMARK    6  A    between atoms: _38  and  _43
REMARK    7  A    between atoms: _43  and  _46
REMARK    8  A    between atoms: _53  and  _55
REMARK                            x       y       z     vdW  Elec       q    Type
REMARK                         _______ _______ _______ _____ _____    ______ ____
ROOT
ATOM     10  C   UNL     1      15.726  -0.911  18.659  0.00  0.00    +0.038 A 
ATOM     11  C   UNL     1      15.137  -0.095  17.659  0.00  0.00    +0.047 A 
ATOM     12  C   UNL     1      15.812   0.150  16.394  0.00  0.00    +0.035 A 
ATOM     32  C   UNL     1      17.086  -0.453  16.180  0.00  0.00    +0.024 A 
ATOM     33  C   UNL     1      17.700  -1.283  17.186  0.00  0.00    +0.007 A 
ATOM     34  C   UNL     1      17.040  -1.527  18.437  0.00  0.00    -0.029 A 
ATOM     35  C   UNL     1      17.748  -2.421  19.482  0.00  0.00    +0.045 C 
ENDROOT
BRANCH  10   9
ATOM      4  C   UNL     1      14.511   0.386  23.118  0.00  0.00    +0.077 A 
ATOM      5  C   UNL     1      15.348   1.550  23.071  0.00  0.00    +0.048 A 
ATOM      6  C   UNL     1      16.080   1.776  21.884  0.00  0.00    +0.116 A 
ATOM      7  N   UNL     1      15.975   0.896  20.828  0.00  0.00    -0.223 NA
ATOM      8  C   UNL     1      15.160  -0.219  20.907  0.00  0.00    +0.220 A 
ATOM      9  N   UNL     1      15.034  -1.113  19.855  0.00  0.00    -0.283 N 
ATOM     36  H   UNL     1      14.428  -1.927  19.955  0.00  0.00    +0.155 HD
ATOM     37  N   UNL     1      14.452  -0.457  22.031  0.00  0.00    -0.214 NA
BRANCH   4   3
ATOM      1  C   UNL     1      12.985   0.249  26.717  0.00  0.00    +0.020 A 
ATOM      2  C   UNL     1      13.820   0.646  25.607  0.00  0.00    +0.013 A 
ATOM      3  C   UNL     1      13.674   0.013  24.302  0.00  0.00    +0.019 A 
ATOM     38  C   UNL     1      12.665  -1.025  24.153  0.00  0.00    +0.120 A 
ATOM     39  N   UNL     1      11.877  -1.387  25.241  0.00  0.00    -0.263 NA
ATOM     40  C   UNL     1      12.010  -0.786  26.502  0.00  0.00    +0.111 A 
ENDBRANCH   4   3
ENDBRANCH  10   9
BRANCH  12  13
ATOM     13  N   UNL     1      15.267   0.975  15.345  0.00  0.00    -0.281 N 
ATOM     14  C   UNL     1      15.896   1.996  14.651  0.00  0.00    +0.248 C 
ATOM     30  O   UNL     1      16.961   2.498  14.975  0.00  0.00    -0.270 OA
ATOM     31  H   UNL     1      14.300   0.784  15.083  0.00  0.00    +0.155 HD
BRANCH  14  15
ATOM     15  C   UNL     1      15.239   2.547  13.426  0.00  0.00    +0.037 A 
ATOM     16  C   UNL     1      13.788   2.737  13.363  0.00  0.00    +0.013 A 
ATOM     17  C   UNL     1      13.178   3.255  12.164  0.00  0.00    +0.005 A 
ATOM     18  C   UNL     1      14.021   3.588  11.018  0.00  0.00    -0.033 A 
ATOM     28  C   UNL     1      15.458   3.394  11.110  0.00  0.00    +0.005 A 
ATOM     29  C   UNL     1      16.060   2.886  12.283  0.00  0.00    +0.013 A 
BRANCH  18  19
ATOM     19  C   UNL     1      13.454   4.126   9.691  0.00  0.00    +0.119 C 
BRANCH  19  20
ATOM     20  N   UNL     1      13.355   5.608   9.540  0.00  0.00    -0.302 NA
ATOM     21  C   UNL     1      14.669   6.225   9.052  0.00  0.00    +0.066 C 
ATOM     22  C   UNL     1      14.542   7.773   8.879  0.00  0.00    -0.064 C 
ATOM     23  N   UNL     1      14.110   8.399  10.206  0.00  0.00    +0.379 N 
ATOM     24  C   UNL     1      14.045   9.860  10.062  0.00  0.00    -0.096 C 
ATOM     25  H   UNL     1      14.897   8.167  10.961  0.00  0.00    -0.082 HD
ATOM     26  C   UNL     1      12.805   7.789  10.700  0.00  0.00    -0.064 C 
ATOM     27  C   UNL     1      12.934   6.247  10.841  0.00  0.00    +0.066 C 
ENDBRANCH  19  20
ENDBRANCH  18  19
ENDBRANCH  14  15
ENDBRANCH  12  13
TORSDOF 6
ENDMDL
MODEL 3
REMARK VINA RESULT:      -8.5      1.752      2.765
REMARK  Name = C:\Users\Docking\Desktop\test protocol\1iep_ligandH.pdb
REMARK  8 active torsions:
REMARK  status: ('A' for Active; 'I' for Inactive)
REMARK    1  A    between atoms: _5  and  _11
REMARK    2  A    between atoms: _19  and  _21
REMARK    3  A    between atoms: _22  and  _66
REMARK    4  A    between atoms: _27  and  _30
REMARK    5  A    between atoms: _32  and  _33
REMARK    6  A    between atoms: _38  and  _43
REMARK    7  A    between atoms: _43  and  _46
REMARK    8  A    between atoms: _53  and  _55
REMARK                            x       y       z     vdW  Elec       q    Type
REMARK                         _______ _______ _______ _____ _____    ______ ____
ROOT
ATOM     10  C   UNL     1      16.371  -1.516  19.081  0.00  0.00    +0.038 A 
ATOM     11  C   UNL     1      15.983  -0.733  17.964  0.00  0.00    +0.047 A 
ATOM     12  C   UNL     1      16.865  -0.566  16.820  0.00  0.00    +0.035 A 
ATOM     32  C   UNL     1      18.135  -1.213  16.845  0.00  0.00    +0.024 A 
ATOM     33  C   UNL     1      18.546  -2.011  17.973  0.00  0.00    +0.007 A 
ATOM     34  C   UNL     1      17.681  -2.178  19.106  0.00  0.00    -0.029 A 
ATOM     35  C   UNL     1      18.177  -3.041  20.290  0.00  0.00    +0.045 C 
ENDROOT
BRANCH  10   9
ATOM      4  C   UNL     1      14.368   0.103  23.131  0.00  0.00    +0.077 A 
ATOM      5  C   UNL     1      15.174   1.289  23.126  0.00  0.00    +0.048 A 
ATOM      6  C   UNL     1      16.098   1.442  22.067  0.00  0.00    +0.116 A 
ATOM      7  N   UNL     1      16.198   0.473  21.092  0.00  0.00    -0.223 NA
ATOM      8  C   UNL     1      15.406  -0.660  21.128  0.00  0.00    +0.220 A 
ATOM      9  N   UNL     1      15.485  -1.643  20.153  0.00  0.00    -0.283 N 
ATOM     36  H   UNL     1      14.889  -2.468  20.220  0.00  0.00    +0.155 HD
ATOM     37  N   UNL     1      14.518  -0.830  22.129  0.00  0.00    -0.214 NA
BRANCH   4   3
ATOM      1  C   UNL     1      11.213  -1.288  24.979  0.00  0.00    +0.020 A 
ATOM      2  C   UNL     1      12.171  -1.026  23.929  0.00  0.00    +0.013 A 
ATOM      3  C   UNL     1      13.345  -0.200  24.182  0.00  0.00    +0.019 A 
ATOM     38  C   UNL     1      13.522   0.349  25.518  0.00  0.00    +0.120 A 
ATOM     39  N   UNL     1      12.582   0.081  26.508  0.00  0.00    -0.263 NA
ATOM     40  C   UNL     1      11.448  -0.711  26.276  0.00  0.00    +0.111 A 
ENDBRANCH   4   3
ENDBRANCH  10   9
BRANCH  12  13
ATOM     13  N   UNL     1      16.528   0.224  15.661  0.00  0.00    -0.281 N 
ATOM     14  C   UNL     1      15.277   0.425  15.102  0.00  0.00    +0.248 C 
ATOM     30  O   UNL     1      14.280  -0.220  15.390  0.00  0.00    -0.270 OA
ATOM     31  H   UNL     1      17.307   0.691  15.197  0.00  0.00    +0.155 HD
BRANCH  14  15
ATOM     15  C   UNL     1      15.113   1.487  14.063  0.00  0.00    +0.037 A 
ATOM     16  C   UNL     1      13.855   2.225  13.922  0.00  0.00    +0.013 A 
ATOM     17  C   UNL     1      13.717   3.232  12.900  0.00  0.00    +0.005 A 
ATOM     18  C   UNL     1      14.843   3.508  12.011  0.00  0.00    -0.033 A 
ATOM     28  C   UNL     1      16.081   2.765  12.176  0.00  0.00    +0.005 A 
ATOM     29  C   UNL     1      16.219   1.776  13.176  0.00  0.00    +0.013 A 
BRANCH  18  19
ATOM     19  C   UNL     1      14.778   4.551  10.879  0.00  0.00    +0.119 C 
BRANCH  19  20
ATOM     20  N   UNL     1      13.465   4.732  10.191  0.00  0.00    -0.302 NA
ATOM     21  C   UNL     1      13.113   3.538   9.300  0.00  0.00    +0.066 C 
ATOM     22  C   UNL     1      11.726   3.735   8.606  0.00  0.00    -0.064 C 
ATOM     23  N   UNL     1      11.746   5.030   7.792  0.00  0.00    +0.379 N 
ATOM     24  C   UNL     1      10.463   5.188   7.092  0.00  0.00    -0.096 C 
ATOM     25  H   UNL     1      12.544   4.931   7.020  0.00  0.00    -0.082 HD
ATOM     26  C   UNL     1      12.098   6.222   8.670  0.00  0.00    -0.064 C 
ATOM     27  C   UNL     1      13.464   6.004   9.378  0.00  0.00    +0.066 C 
ENDBRANCH  19  20
ENDBRANCH  18  19
ENDBRANCH  14  15
ENDBRANCH  12  13
TORSDOF 6
ENDMDL
MODEL 4
REMARK VINA RESULT:      -8.4      6.713     11.952
REMARK  Name = C:\Users\Docking\Desktop\test protocol\1iep_ligandH.pdb
REMARK  8 active torsions:
REMARK  status: ('A' for Active; 'I' for Inactive)
REMARK    1  A    between atoms: _5  and  _11
REMARK    2  A    between atoms: _19  and  _21
REMARK    3  A    between atoms: _22  and  _66
REMARK    4  A    between atoms: _27  and  _30
REMARK    5  A    between atoms: _32  and  _33
REMARK    6  A    between atoms: _38  and  _43
REMARK    7  A    between atoms: _43  and  _46
REMARK    8  A    between atoms: _53  and  _55
REMARK                            x       y       z     vdW  Elec       q    Type
REMARK                         _______ _______ _______ _____ _____    ______ ____
ROOT
ATOM     10  C   UNL     1      14.386   7.537   9.149  0.00  0.00    +0.038 A 
ATOM     11  C   UNL     1      15.038   7.329   7.907  0.00  0.00    +0.047 A 
ATOM     12  C   UNL     1      14.720   8.145   6.745  0.00  0.00    +0.035 A 
ATOM     32  C   UNL     1      13.735   9.165   6.885  0.00  0.00    +0.024 A 
ATOM     33  C   UNL     1      13.061   9.389   8.140  0.00  0.00    +0.007 A 
ATOM     34  C   UNL     1      13.369   8.586   9.289  0.00  0.00    -0.029 A 
ATOM     35  C   UNL     1      12.611   8.866  10.608  0.00  0.00    +0.045 C 
ENDROOT
BRANCH  10   9
ATOM      4  C   UNL     1      13.732   3.668  11.914  0.00  0.00    +0.077 A 
ATOM      5  C   UNL     1      12.592   3.244  11.154  0.00  0.00    +0.048 A 
ATOM      6  C   UNL     1      12.202   4.053  10.063  0.00  0.00    +0.116 A 
ATOM      7  N   UNL     1      12.908   5.199   9.764  0.00  0.00    -0.223 NA
ATOM      8  C   UNL     1      14.001   5.580  10.519  0.00  0.00    +0.220 A 
ATOM      9  N   UNL     1      14.730   6.724  10.232  0.00  0.00    -0.283 N 
ATOM     36  H   UNL     1      15.526   6.975  10.818  0.00  0.00    +0.155 HD
ATOM     37  N   UNL     1      14.393   4.825  11.567  0.00  0.00    -0.214 NA
BRANCH   4   3
ATOM      1  C   UNL     1      14.121   1.116  14.853  0.00  0.00    +0.020 A 
ATOM      2  C   UNL     1      13.558   1.807  13.716  0.00  0.00    +0.013 A 
ATOM      3  C   UNL     1      14.268   2.918  13.094  0.00  0.00    +0.019 A 
ATOM     38  C   UNL     1      15.555   3.306  13.650  0.00  0.00    +0.120 A 
ATOM     39  N   UNL     1      16.071   2.623  14.747  0.00  0.00    -0.263 NA
ATOM     40  C   UNL     1      15.396   1.554  15.355  0.00  0.00    +0.111 A 
ENDBRANCH   4   3
ENDBRANCH  10   9
BRANCH  12  13
ATOM     13  N   UNL     1      15.343   7.976   5.456  0.00  0.00    -0.281 N 
ATOM     14  C   UNL     1      14.826   7.346   4.336  0.00  0.00    +0.248 C 
ATOM     30  O   UNL     1      13.827   6.642   4.339  0.00  0.00    -0.270 OA
ATOM     31  H   UNL     1      16.280   8.368   5.357  0.00  0.00    +0.155 HD
BRANCH  14  15
ATOM     15  C   UNL     1      15.527   7.510   3.026  0.00  0.00    +0.037 A 
ATOM     16  C   UNL     1      14.784   7.801   1.798  0.00  0.00    +0.013 A 
ATOM     17  C   UNL     1      15.483   7.938   0.545  0.00  0.00    +0.005 A 
ATOM     18  C   UNL     1      16.936   7.785   0.515  0.00  0.00    -0.033 A 
ATOM     28  C   UNL     1      17.649   7.502   1.750  0.00  0.00    +0.005 A 
ATOM     29  C   UNL     1      16.966   7.366   2.979  0.00  0.00    +0.013 A 
BRANCH  18  19
ATOM     19  C   UNL     1      17.762   7.894  -0.780  0.00  0.00    +0.119 C 
BRANCH  19  20
ATOM     20  N   UNL     1      18.673   9.070  -0.914  0.00  0.00    -0.302 NA
ATOM     21  C   UNL     1      18.018  10.363  -0.420  0.00  0.00    +0.066 C 
ATOM     22  C   UNL     1      18.992  11.578  -0.546  0.00  0.00    -0.064 C 
ATOM     23  N   UNL     1      19.440  11.721  -2.001  0.00  0.00    +0.379 N 
ATOM     24  C   UNL     1      20.311  12.898  -2.134  0.00  0.00    -0.096 C 
ATOM     25  H   UNL     1      18.530  11.902  -2.619  0.00  0.00    -0.082 HD
ATOM     26  C   UNL     1      20.090  10.438  -2.502  0.00  0.00    -0.064 C 
ATOM     27  C   UNL     1      19.124   9.231  -2.345  0.00  0.00    +0.066 C 
ENDBRANCH  19  20
ENDBRANCH  18  19
ENDBRANCH  14  15
ENDBRANCH  12  13
TORSDOF 6
ENDMDL
MODEL 5
REMARK VINA RESULT:      -8.3      2.312     12.306
REMARK  Name = C:\Users\Docking\Desktop\test protocol\1iep_ligandH.pdb
REMARK  8 active torsions:
REMARK  status: ('A' for Active; 'I' for Inactive)
REMARK    1  A    between atoms: _5  and  _11
REMARK    2  A    between atoms: _19  and  _21
REMARK    3  A    between atoms: _22  and  _66
REMARK    4  A    between atoms: _27  and  _30
REMARK    5  A    between atoms: _32  and  _33
REMARK    6  A    between atoms: _38  and  _43
REMARK    7  A    between atoms: _43  and  _46
REMARK    8  A    between atoms: _53  and  _55
REMARK                            x       y       z     vdW  Elec       q    Type
REMARK                         _______ _______ _______ _____ _____    ______ ____
ROOT
ATOM     10  C   UNL     1      16.187   2.414  11.631  0.00  0.00    +0.038 A 
ATOM     11  C   UNL     1      15.661   1.941  12.860  0.00  0.00    +0.047 A 
ATOM     12  C   UNL     1      16.532   1.652  13.989  0.00  0.00    +0.035 A 
ATOM     32  C   UNL     1      17.933   1.858  13.832  0.00  0.00    +0.024 A 
ATOM     33  C   UNL     1      18.485   2.337  12.589  0.00  0.00    +0.007 A 
ATOM     34  C   UNL     1      17.631   2.622  11.471  0.00  0.00    -0.029 A 
ATOM     35  C   UNL     1      18.278   3.127  10.160  0.00  0.00    +0.045 C 
ENDROOT
BRANCH  10   9
ATOM      4  C   UNL     1      13.015   5.215   9.365  0.00  0.00    +0.077 A 
ATOM      5  C   UNL     1      13.102   6.231  10.374  0.00  0.00    +0.048 A 
ATOM      6  C   UNL     1      13.969   5.990  11.464  0.00  0.00    +0.116 A 
ATOM      7  N   UNL     1      14.691   4.818  11.529  0.00  0.00    -0.223 NA
ATOM      8  C   UNL     1      14.583   3.859  10.539  0.00  0.00    +0.220 A 
ATOM      9  N   UNL     1      15.305   2.676  10.580  0.00  0.00    -0.283 N 
ATOM     36  H   UNL     1      15.192   1.990   9.834  0.00  0.00    +0.155 HD
ATOM     37  N   UNL     1      13.760   4.064   9.489  0.00  0.00    -0.214 NA
BRANCH   4   3
ATOM      1  C   UNL     1      10.161   4.636   6.754  0.00  0.00    +0.020 A 
ATOM      2  C   UNL     1      10.968   4.491   7.944  0.00  0.00    +0.013 A 
ATOM      3  C   UNL     1      12.146   5.324   8.151  0.00  0.00    +0.019 A 
ATOM     38  C   UNL     1      12.483   6.302   7.128  0.00  0.00    +0.120 A 
ATOM     39  N   UNL     1      11.688   6.418   5.992  0.00  0.00    -0.263 NA
ATOM     40  C   UNL     1      10.553   5.621   5.780  0.00  0.00    +0.111 A 
ENDBRANCH   4   3
ENDBRANCH  10   9
BRANCH  12  13
ATOM     13  N   UNL     1      16.056   1.162  15.259  0.00  0.00    -0.281 N 
ATOM     14  C   UNL     1      16.108  -0.134  15.746  0.00  0.00    +0.248 C 
ATOM     30  O   UNL     1      16.380  -1.115  15.070  0.00  0.00    -0.270 OA
ATOM     31  H   UNL     1      15.630   1.855  15.875  0.00  0.00    +0.155 HD
BRANCH  14  15
ATOM     15  C   UNL     1      15.798  -0.377  17.188  0.00  0.00    +0.037 A 
ATOM     16  C   UNL     1      16.847  -0.760  18.136  0.00  0.00    +0.013 A 
ATOM     17  C   UNL     1      16.518  -1.005  19.518  0.00  0.00    +0.005 A 
ATOM     18  C   UNL     1      15.133  -0.866  19.960  0.00  0.00    -0.033 A 
ATOM     28  C   UNL     1      14.113  -0.479  18.999  0.00  0.00    +0.005 A 
ATOM     29  C   UNL     1      14.431  -0.239  17.644  0.00  0.00    +0.013 A 
BRANCH  18  19
ATOM     19  C   UNL     1      14.688  -1.128  21.411  0.00  0.00    +0.119 C 
BRANCH  19  20
ATOM     20  N   UNL     1      14.395   0.063  22.262  0.00  0.00    -0.302 NA
ATOM     21  C   UNL     1      15.398   1.197  22.028  0.00  0.00    +0.066 C 
ATOM     22  C   UNL     1      15.063   2.443  22.911  0.00  0.00    -0.064 C 
ATOM     23  N   UNL     1      15.045   2.032  24.384  0.00  0.00    +0.379 N 
ATOM     24  C   UNL     1      14.788   3.214  25.220  0.00  0.00    -0.096 C 
ATOM     25  H   UNL     1      16.060   1.650  24.641  0.00  0.00    -0.082 HD
ATOM     26  C   UNL     1      14.052   0.903  24.625  0.00  0.00    -0.064 C 
ATOM     27  C   UNL     1      14.376  -0.320  23.722  0.00  0.00    +0.066 C 
ENDBRANCH  19  20
ENDBRANCH  18  19
ENDBRANCH  14  15
ENDBRANCH  12  13
TORSDOF 6
ENDMDL
