MODEL 1
REMARK VINA RESULT:      -8.0      0.000      0.000
REMARK  Name = C:\Users\Docking\Desktop\test protocol\1iep_ligandH.pdb
REMARK  8 active torsions:
REMARK  status: ('A' for Active; 'I' for Inactive)
REMARK    1  A    between atoms: _5  and  _11
REMARK    2  A    between atoms: _19  and  _21
REMARK    3  A    between atoms: _22  and  _66
REMARK    4  A    between atoms: _27  and  _30
REMARK    5  A    between atoms: _32  and  _33
REMARK    6  A    between atoms: _38  and  _43
REMARK    7  A    between atoms: _43  and  _46
REMARK    8  A    between atoms: _53  and  _55
REMARK                            x       y       z     vdW  Elec       q    Type
REMARK                         _______ _______ _______ _____ _____    ______ ____
ROOT
ATOM     10  C   UNL     1     -13.558  -5.949  10.681  0.00  0.00    +0.038 A 
ATOM     11  C   UNL     1     -13.656  -4.542  10.535  0.00  0.00    +0.047 A 
ATOM     12  C   UNL     1     -13.312  -3.646  11.628  0.00  0.00    +0.035 A 
ATOM     32  C   UNL     1     -12.869  -4.218  12.856  0.00  0.00    +0.024 A 
ATOM     33  C   UNL     1     -12.765  -5.646  13.023  0.00  0.00    +0.007 A 
ATOM     34  C   UNL     1     -13.105  -6.535  11.949  0.00  0.00    -0.029 A 
ATOM     35  C   UNL     1     -12.981  -8.058  12.185  0.00  0.00    +0.045 C 
ENDROOT
BRANCH  10   9
ATOM      4  C   UNL     1     -16.780  -8.273   7.987  0.00  0.00    +0.077 A 
ATOM      5  C   UNL     1     -17.869  -7.853   8.822  0.00  0.00    +0.048 A 
ATOM      6  C   UNL     1     -17.556  -7.046   9.939  0.00  0.00    +0.116 A 
ATOM      7  N   UNL     1     -16.249  -6.691  10.192  0.00  0.00    -0.223 NA
ATOM      8  C   UNL     1     -15.223  -7.114   9.368  0.00  0.00    +0.220 A 
ATOM      9  N   UNL     1     -13.902  -6.762   9.599  0.00  0.00    -0.283 N 
ATOM     36  H   UNL     1     -13.173  -7.101   8.972  0.00  0.00    +0.155 HD
ATOM     37  N   UNL     1     -15.495  -7.887   8.296  0.00  0.00    -0.214 NA
BRANCH   4   3
ATOM      1  C   UNL     1     -18.357 -10.436   5.135  0.00  0.00    +0.020 A 
ATOM      2  C   UNL     1     -18.247  -9.616   6.319  0.00  0.00    +0.013 A 
ATOM      3  C   UNL     1     -16.950  -9.126   6.769  0.00  0.00    +0.019 A 
ATOM     38  C   UNL     1     -15.774  -9.486   5.990  0.00  0.00    +0.120 A 
ATOM     39  N   UNL     1     -15.910 -10.279   4.855  0.00  0.00    -0.263 NA
ATOM     40  C   UNL     1     -17.153 -10.757   4.414  0.00  0.00    +0.111 A 
ENDBRANCH   4   3
ENDBRANCH  10   9
BRANCH  12  13
ATOM     13  N   UNL     1     -13.399  -2.209  11.541  0.00  0.00    -0.281 N 
ATOM     14  C   UNL     1     -12.360  -1.294  11.503  0.00  0.00    +0.248 C 
ATOM     30  O   UNL     1     -11.194  -1.560  11.755  0.00  0.00    -0.270 OA
ATOM     31  H   UNL     1     -14.341  -1.820  11.502  0.00  0.00    +0.155 HD
BRANCH  14  15
ATOM     15  C   UNL     1     -12.662   0.126  11.148  0.00  0.00    +0.037 A 
ATOM     16  C   UNL     1     -13.998   0.693  11.349  0.00  0.00    +0.013 A 
ATOM     17  C   UNL     1     -14.266   2.061  10.982  0.00  0.00    +0.005 A 
ATOM     18  C   UNL     1     -13.194   2.873  10.411  0.00  0.00    -0.033 A 
ATOM     28  C   UNL     1     -11.877   2.287  10.227  0.00  0.00    +0.005 A 
ATOM     29  C   UNL     1     -11.610   0.946  10.584  0.00  0.00    +0.013 A 
BRANCH  18  19
ATOM     19  C   UNL     1     -13.396   4.335   9.971  0.00  0.00    +0.119 C 
BRANCH  19  20
ATOM     20  N   UNL     1     -12.973   4.696   8.585  0.00  0.00    -0.302 NA
ATOM     21  C   UNL     1     -12.974   6.211   8.361  0.00  0.00    +0.066 C 
ATOM     22  C   UNL     1     -12.508   6.573   6.913  0.00  0.00    -0.064 C 
ATOM     23  N   UNL     1     -13.415   5.875   5.899  0.00  0.00    +0.379 N 
ATOM     24  C   UNL     1     -13.015   6.259   4.537  0.00  0.00    -0.096 C 
ATOM     25  H   UNL     1     -14.454   6.245   6.064  0.00  0.00    -0.082 HD
ATOM     26  C   UNL     1     -13.422   4.368   6.116  0.00  0.00    -0.064 C 
ATOM     27  C   UNL     1     -13.859   4.021   7.567  0.00  0.00    +0.066 C 
ENDBRANCH  19  20
ENDBRANCH  18  19
ENDBRANCH  14  15
ENDBRANCH  12  13
TORSDOF 6
ENDMDL
MODEL 2
REMARK VINA RESULT:      -7.8     14.570     22.741
REMARK  Name = C:\Users\Docking\Desktop\test protocol\1iep_ligandH.pdb
REMARK  8 active torsions:
REMARK  status: ('A' for Active; 'I' for Inactive)
REMARK    1  A    between atoms: _5  and  _11
REMARK    2  A    between atoms: _19  and  _21
REMARK    3  A    between atoms: _22  and  _66
REMARK    4  A    between atoms: _27  and  _30
REMARK    5  A    between atoms: _32  and  _33
REMARK    6  A    between atoms: _38  and  _43
REMARK    7  A    between atoms: _43  and  _46
REMARK    8  A    between atoms: _53  and  _55
REMARK                            x       y       z     vdW  Elec       q    Type
REMARK                         _______ _______ _______ _____ _____    ______ ____
ROOT
ATOM     10  C   UNL     1       1.754  13.628  10.515  0.00  0.00    +0.038 A 
ATOM     11  C   UNL     1       1.247  12.304  10.553  0.00  0.00    +0.047 A 
ATOM     12  C   UNL     1       1.831  11.299  11.429  0.00  0.00    +0.035 A 
ATOM     32  C   UNL     1       2.929  11.679  12.255  0.00  0.00    +0.024 A 
ATOM     33  C   UNL     1       3.457  13.020  12.228  0.00  0.00    +0.007 A 
ATOM     34  C   UNL     1       2.887  14.014  11.365  0.00  0.00    -0.029 A 
ATOM     35  C   UNL     1       3.499  15.435  11.373  0.00  0.00    +0.045 C 
ENDROOT
BRANCH  10   9
ATOM      4  C   UNL     1      -1.870  16.516   9.266  0.00  0.00    +0.077 A 
ATOM      5  C   UNL     1      -2.649  16.131  10.409  0.00  0.00    +0.048 A 
ATOM      6  C   UNL     1      -2.083  15.182  11.289  0.00  0.00    +0.116 A 
ATOM      7  N   UNL     1      -0.831  14.663  11.037  0.00  0.00    -0.223 NA
ATOM      8  C   UNL     1      -0.108  15.054   9.925  0.00  0.00    +0.220 A 
ATOM      9  N   UNL     1       1.155  14.552   9.656  0.00  0.00    -0.283 N 
ATOM     36  H   UNL     1       1.654  14.860   8.821  0.00  0.00    +0.155 HD
ATOM     37  N   UNL     1      -0.627  15.958   9.068  0.00  0.00    -0.214 NA
BRANCH   4   3
ATOM      1  C   UNL     1      -2.659  19.868   7.412  0.00  0.00    +0.020 A 
ATOM      2  C   UNL     1      -2.199  18.950   8.428  0.00  0.00    +0.013 A 
ATOM      3  C   UNL     1      -2.330  17.510   8.246  0.00  0.00    +0.019 A 
ATOM     38  C   UNL     1      -2.935  17.028   7.014  0.00  0.00    +0.120 A 
ATOM     39  N   UNL     1      -3.370  17.935   6.053  0.00  0.00    -0.263 NA
ATOM     40  C   UNL     1      -3.251  19.323   6.218  0.00  0.00    +0.111 A 
ENDBRANCH   4   3
ENDBRANCH  10   9
BRANCH  12  13
ATOM     13  N   UNL     1       1.364   9.937  11.504  0.00  0.00    -0.281 N 
ATOM     14  C   UNL     1       0.054   9.485  11.516  0.00  0.00    +0.248 C 
ATOM     30  O   UNL     1      -0.922  10.201  11.679  0.00  0.00    -0.270 OA
ATOM     31  H   UNL     1       2.086   9.219  11.555  0.00  0.00    +0.155 HD
BRANCH  14  15
ATOM     15  C   UNL     1      -0.207   8.025  11.334  0.00  0.00    +0.037 A 
ATOM     16  C   UNL     1       0.696   7.183  10.546  0.00  0.00    +0.013 A 
ATOM     17  C   UNL     1       0.412   5.781  10.372  0.00  0.00    +0.005 A 
ATOM     18  C   UNL     1      -0.783   5.211  10.991  0.00  0.00    -0.033 A 
ATOM     28  C   UNL     1      -1.660   6.068  11.772  0.00  0.00    +0.005 A 
ATOM     29  C   UNL     1      -1.384   7.443  11.944  0.00  0.00    +0.013 A 
BRANCH  18  19
ATOM     19  C   UNL     1      -1.177   3.729  10.841  0.00  0.00    +0.119 C 
BRANCH  19  20
ATOM     20  N   UNL     1      -1.484   2.974  12.091  0.00  0.00    -0.302 NA
ATOM     21  C   UNL     1      -0.214   2.558  12.839  0.00  0.00    +0.066 C 
ATOM     22  C   UNL     1      -0.555   1.788  14.156  0.00  0.00    -0.064 C 
ATOM     23  N   UNL     1      -1.411   0.566  13.822  0.00  0.00    +0.379 N 
ATOM     24  C   UNL     1      -1.685  -0.192  15.052  0.00  0.00    -0.096 C 
ATOM     25  H   UNL     1      -0.815  -0.090  13.146  0.00  0.00    -0.082 HD
ATOM     26  C   UNL     1      -2.675   0.970  13.076  0.00  0.00    -0.064 C 
ATOM     27  C   UNL     1      -2.326   1.759  11.784  0.00  0.00    +0.066 C 
ENDBRANCH  19  20
ENDBRANCH  18  19
ENDBRANCH  14  15
ENDBRANCH  12  13
TORSDOF 6
ENDMDL
MODEL 3
REMARK VINA RESULT:      -7.7     22.494     27.933
REMARK  Name = C:\Users\Docking\Desktop\test protocol\1iep_ligandH.pdb
REMARK  8 active torsions:
REMARK  status: ('A' for Active; 'I' for Inactive)
REMARK    1  A    between atoms: _5  and  _11
REMARK    2  A    between atoms: _19  and  _21
REMARK    3  A    between atoms: _22  and  _66
REMARK    4  A    between atoms: _27  and  _30
REMARK    5  A    between atoms: _32  and  _33
REMARK    6  A    between atoms: _38  and  _43
REMARK    7  A    between atoms: _43  and  _46
REMARK    8  A    between atoms: _53  and  _55
REMARK                            x       y       z     vdW  Elec       q    Type
REMARK                         _______ _______ _______ _____ _____    ______ ____
ROOT
ATOM     10  C   UNL     1      -9.629   0.665 -16.187  0.00  0.00    +0.038 A 
ATOM     11  C   UNL     1      -9.100  -0.643 -16.044  0.00  0.00    +0.047 A 
ATOM     12  C   UNL     1      -8.680  -1.416 -17.203  0.00  0.00    +0.035 A 
ATOM     32  C   UNL     1      -8.810  -0.823 -18.493  0.00  0.00    +0.024 A 
ATOM     33  C   UNL     1      -9.346   0.506 -18.656  0.00  0.00    +0.007 A 
ATOM     34  C   UNL     1      -9.764   1.271 -17.517  0.00  0.00    -0.029 A 
ATOM     35  C   UNL     1     -10.338   2.688 -17.751  0.00  0.00    +0.045 C 
ENDROOT
BRANCH  10   9
ATOM      4  C   UNL     1     -12.878   1.889 -12.873  0.00  0.00    +0.077 A 
ATOM      5  C   UNL     1     -13.898   1.094 -13.495  0.00  0.00    +0.048 A 
ATOM      6  C   UNL     1     -13.548   0.392 -14.670  0.00  0.00    +0.116 A 
ATOM      7  N   UNL     1     -12.269   0.484 -15.176  0.00  0.00    -0.223 NA
ATOM      8  C   UNL     1     -11.310   1.261 -14.552  0.00  0.00    +0.220 A 
ATOM      9  N   UNL     1     -10.016   1.361 -15.039  0.00  0.00    -0.283 N 
ATOM     36  H   UNL     1      -9.339   1.950 -14.555  0.00  0.00    +0.155 HD
ATOM     37  N   UNL     1     -11.620   1.942 -13.430  0.00  0.00    -0.214 NA
BRANCH   4   3
ATOM      1  C   UNL     1     -14.222   3.109  -9.408  0.00  0.00    +0.020 A 
ATOM      2  C   UNL     1     -14.053   2.304 -10.596  0.00  0.00    +0.013 A 
ATOM      3  C   UNL     1     -13.093   2.686 -11.624  0.00  0.00    +0.019 A 
ATOM     38  C   UNL     1     -12.314   3.897 -11.418  0.00  0.00    +0.120 A 
ATOM     39  N   UNL     1     -12.499   4.653 -10.265  0.00  0.00    -0.263 NA
ATOM     40  C   UNL     1     -13.421   4.296  -9.269  0.00  0.00    +0.111 A 
ENDBRANCH   4   3
ENDBRANCH  10   9
BRANCH  12  13
ATOM     13  N   UNL     1      -8.144  -2.752 -17.121  0.00  0.00    -0.281 N 
ATOM     14  C   UNL     1      -8.840  -3.950 -17.117  0.00  0.00    +0.248 C 
ATOM     30  O   UNL     1     -10.049  -4.046 -16.967  0.00  0.00    -0.270 OA
ATOM     31  H   UNL     1      -7.129  -2.823 -17.059  0.00  0.00    +0.155 HD
BRANCH  14  15
ATOM     15  C   UNL     1      -8.081  -5.226 -17.289  0.00  0.00    +0.037 A 
ATOM     16  C   UNL     1      -7.158  -5.415 -18.411  0.00  0.00    +0.013 A 
ATOM     17  C   UNL     1      -6.451  -6.662 -18.563  0.00  0.00    +0.005 A 
ATOM     18  C   UNL     1      -6.665  -7.730 -17.590  0.00  0.00    -0.033 A 
ATOM     28  C   UNL     1      -7.583  -7.514 -16.484  0.00  0.00    +0.005 A 
ATOM     29  C   UNL     1      -8.278  -6.293 -16.331  0.00  0.00    +0.013 A 
BRANCH  18  19
ATOM     19  C   UNL     1      -5.970  -9.101 -17.686  0.00  0.00    +0.119 C 
BRANCH  19  20
ATOM     20  N   UNL     1      -4.606  -9.220 -17.089  0.00  0.00    -0.302 NA
ATOM     21  C   UNL     1      -3.511  -9.242 -18.159  0.00  0.00    +0.066 C 
ATOM     22  C   UNL     1      -2.090  -9.344 -17.516  0.00  0.00    -0.064 C 
ATOM     23  N   UNL     1      -2.017 -10.596 -16.641  0.00  0.00    +0.379 N 
ATOM     24  C   UNL     1      -0.664 -10.726 -16.081  0.00  0.00    -0.096 C 
ATOM     25  H   UNL     1      -2.198 -11.478 -17.298  0.00  0.00    -0.082 HD
ATOM     26  C   UNL     1      -3.105 -10.583 -15.576  0.00  0.00    -0.064 C 
ATOM     27  C   UNL     1      -4.511 -10.452 -16.224  0.00  0.00    +0.066 C 
ENDBRANCH  19  20
ENDBRANCH  18  19
ENDBRANCH  14  15
ENDBRANCH  12  13
TORSDOF 6
ENDMDL
MODEL 4
REMARK VINA RESULT:      -7.7     14.843     22.912
REMARK  Name = C:\Users\Docking\Desktop\test protocol\1iep_ligandH.pdb
REMARK  8 active torsions:
REMARK  status: ('A' for Active; 'I' for Inactive)
REMARK    1  A    between atoms: _5  and  _11
REMARK    2  A    between atoms: _19  and  _21
REMARK    3  A    between atoms: _22  and  _66
REMARK    4  A    between atoms: _27  and  _30
REMARK    5  A    between atoms: _32  and  _33
REMARK    6  A    between atoms: _38  and  _43
REMARK    7  A    between atoms: _43  and  _46
REMARK    8  A    between atoms: _53  and  _55
REMARK                            x       y       z     vdW  Elec       q    Type
REMARK                         _______ _______ _______ _____ _____    ______ ____
ROOT
ATOM     10  C   UNL     1       1.673  13.989  10.599  0.00  0.00    +0.038 A 
ATOM     11  C   UNL     1       1.334  12.613  10.559  0.00  0.00    +0.047 A 
ATOM     12  C   UNL     1       1.943  11.661  11.475  0.00  0.00    +0.035 A 
ATOM     32  C   UNL     1       2.892  12.146  12.421  0.00  0.00    +0.024 A 
ATOM     33  C   UNL     1       3.249  13.542  12.475  0.00  0.00    +0.007 A 
ATOM     34  C   UNL     1       2.654  14.485  11.572  0.00  0.00    -0.029 A 
ATOM     35  C   UNL     1       3.080  15.968  11.671  0.00  0.00    +0.045 C 
ENDROOT
BRANCH  10   9
ATOM      4  C   UNL     1      -2.133  16.445   9.012  0.00  0.00    +0.077 A 
ATOM      5  C   UNL     1      -2.974  15.931  10.054  0.00  0.00    +0.048 A 
ATOM      6  C   UNL     1      -2.390  15.031  10.974  0.00  0.00    +0.116 A 
ATOM      7  N   UNL     1      -1.063  14.680  10.852  0.00  0.00    -0.223 NA
ATOM      8  C   UNL     1      -0.281  15.193   9.834  0.00  0.00    +0.220 A 
ATOM      9  N   UNL     1       1.058  14.859   9.696  0.00  0.00    -0.283 N 
ATOM     36  H   UNL     1       1.599  15.253   8.927  0.00  0.00    +0.155 HD
ATOM     37  N   UNL     1      -0.815  16.053   8.942  0.00  0.00    -0.214 NA
BRANCH   4   3
ATOM      1  C   UNL     1      -2.540  19.639   6.790  0.00  0.00    +0.020 A 
ATOM      2  C   UNL     1      -2.051  18.749   7.817  0.00  0.00    +0.013 A 
ATOM      3  C   UNL     1      -2.603  17.408   7.966  0.00  0.00    +0.019 A 
ATOM     38  C   UNL     1      -3.656  16.995   7.051  0.00  0.00    +0.120 A 
ATOM     39  N   UNL     1      -4.108  17.874   6.072  0.00  0.00    -0.263 NA
ATOM     40  C   UNL     1      -3.586  19.168   5.921  0.00  0.00    +0.111 A 
ENDBRANCH   4   3
ENDBRANCH  10   9
BRANCH  12  13
ATOM     13  N   UNL     1       1.643  10.250  11.476  0.00  0.00    -0.281 N 
ATOM     14  C   UNL     1       2.052   9.292  10.562  0.00  0.00    +0.248 C 
ATOM     30  O   UNL     1       2.563   9.542   9.481  0.00  0.00    -0.270 OA
ATOM     31  H   UNL     1       1.059   9.918  12.243  0.00  0.00    +0.155 HD
BRANCH  14  15
ATOM     15  C   UNL     1       1.849   7.848  10.891  0.00  0.00    +0.037 A 
ATOM     16  C   UNL     1       2.508   7.233  12.046  0.00  0.00    +0.013 A 
ATOM     17  C   UNL     1       2.309   5.833  12.331  0.00  0.00    +0.005 A 
ATOM     18  C   UNL     1       1.446   5.041  11.458  0.00  0.00    -0.033 A 
ATOM     28  C   UNL     1       0.801   5.678  10.323  0.00  0.00    +0.005 A 
ATOM     29  C   UNL     1       0.994   7.049  10.040  0.00  0.00    +0.013 A 
BRANCH  18  19
ATOM     19  C   UNL     1       1.194   3.537  11.674  0.00  0.00    +0.119 C 
BRANCH  19  20
ATOM     20  N   UNL     1       0.092   2.908  10.886  0.00  0.00    -0.302 NA
ATOM     21  C   UNL     1      -1.254   2.995  11.611  0.00  0.00    +0.066 C 
ATOM     22  C   UNL     1      -2.400   2.353  10.763  0.00  0.00    -0.064 C 
ATOM     23  N   UNL     1      -2.045   0.898  10.451  0.00  0.00    +0.379 N 
ATOM     24  C   UNL     1      -3.147   0.274   9.703  0.00  0.00    -0.096 C 
ATOM     25  H   UNL     1      -1.947   0.358  11.421  0.00  0.00    -0.082 HD
ATOM     26  C   UNL     1      -0.707   0.802   9.732  0.00  0.00    -0.064 C 
ATOM     27  C   UNL     1       0.419   1.469  10.570  0.00  0.00    +0.066 C 
ENDBRANCH  19  20
ENDBRANCH  18  19
ENDBRANCH  14  15
ENDBRANCH  12  13
TORSDOF 6
ENDMDL
MODEL 5
REMARK VINA RESULT:      -7.6     20.339     24.557
REMARK  Name = C:\Users\Docking\Desktop\test protocol\1iep_ligandH.pdb
REMARK  8 active torsions:
REMARK  status: ('A' for Active; 'I' for Inactive)
REMARK    1  A    between atoms: _5  and  _11
REMARK    2  A    between atoms: _19  and  _21
REMARK    3  A    between atoms: _22  and  _66
REMARK    4  A    between atoms: _27  and  _30
REMARK    5  A    between atoms: _32  and  _33
REMARK    6  A    between atoms: _38  and  _43
REMARK    7  A    between atoms: _43  and  _46
REMARK    8  A    between atoms: _53  and  _55
REMARK                            x       y       z     vdW  Elec       q    Type
REMARK                         _______ _______ _______ _____ _____    ______ ____
ROOT
ATOM     10  C   UNL     1     -14.694   5.168  -8.685  0.00  0.00    +0.038 A 
ATOM     11  C   UNL     1     -13.898   4.189  -9.333  0.00  0.00    +0.047 A 
ATOM     12  C   UNL     1     -14.498   3.004  -9.925  0.00  0.00    +0.035 A 
ATOM     32  C   UNL     1     -15.912   2.848  -9.841  0.00  0.00    +0.024 A 
ATOM     33  C   UNL     1     -16.736   3.832  -9.184  0.00  0.00    +0.007 A 
ATOM     34  C   UNL     1     -16.150   5.003  -8.596  0.00  0.00    -0.029 A 
ATOM     35  C   UNL     1     -17.081   6.022  -7.900  0.00  0.00    +0.045 C 
ENDROOT
BRANCH  10   9
ATOM      4  C   UNL     1     -12.541   9.439  -9.086  0.00  0.00    +0.077 A 
ATOM      5  C   UNL     1     -12.653   9.427 -10.516  0.00  0.00    +0.048 A 
ATOM      6  C   UNL     1     -13.265   8.300 -11.110  0.00  0.00    +0.116 A 
ATOM      7  N   UNL     1     -13.727   7.268 -10.322  0.00  0.00    -0.223 NA
ATOM      8  C   UNL     1     -13.601   7.310  -8.946  0.00  0.00    +0.220 A 
ATOM      9  N   UNL     1     -14.066   6.287  -8.134  0.00  0.00    -0.283 N 
ATOM     36  H   UNL     1     -13.948   6.352  -7.123  0.00  0.00    +0.155 HD
ATOM     37  N   UNL     1     -13.019   8.375  -8.355  0.00  0.00    -0.214 NA
BRANCH   4   3
ATOM      1  C   UNL     1     -10.069  12.214  -7.864  0.00  0.00    +0.020 A 
ATOM      2  C   UNL     1     -10.622  11.131  -8.644  0.00  0.00    +0.013 A 
ATOM      3  C   UNL     1     -11.922  10.561  -8.311  0.00  0.00    +0.019 A 
ATOM     38  C   UNL     1     -12.642  11.114  -7.175  0.00  0.00    +0.120 A 
ATOM     39  N   UNL     1     -12.084  12.156  -6.441  0.00  0.00    -0.263 NA
ATOM     40  C   UNL     1     -10.834  12.712  -6.750  0.00  0.00    +0.111 A 
ENDBRANCH   4   3
ENDBRANCH  10   9
BRANCH  12  13
ATOM     13  N   UNL     1     -13.740   1.972 -10.589  0.00  0.00    -0.281 N 
ATOM     14  C   UNL     1     -13.304   1.948 -11.904  0.00  0.00    +0.248 C 
ATOM     30  O   UNL     1     -13.686   2.718 -12.773  0.00  0.00    -0.270 OA
ATOM     31  H   UNL     1     -13.495   1.161 -10.021  0.00  0.00    +0.155 HD
BRANCH  14  15
ATOM     15  C   UNL     1     -12.312   0.910 -12.317  0.00  0.00    +0.037 A 
ATOM     16  C   UNL     1     -12.699  -0.496 -12.462  0.00  0.00    +0.013 A 
ATOM     17  C   UNL     1     -11.718  -1.480 -12.845  0.00  0.00    +0.005 A 
ATOM     18  C   UNL     1     -10.340  -1.061 -13.088  0.00  0.00    -0.033 A 
ATOM     28  C   UNL     1      -9.984   0.341 -12.942  0.00  0.00    +0.005 A 
ATOM     29  C   UNL     1     -10.943   1.308 -12.565  0.00  0.00    +0.013 A 
BRANCH  18  19
ATOM     19  C   UNL     1      -9.222  -2.046 -13.480  0.00  0.00    +0.119 C 
BRANCH  19  20
ATOM     20  N   UNL     1      -9.092  -2.392 -14.927  0.00  0.00    -0.302 NA
ATOM     21  C   UNL     1      -9.112  -3.906 -15.160  0.00  0.00    +0.066 C 
ATOM     22  C   UNL     1      -8.998  -4.249 -16.681  0.00  0.00    -0.064 C 
ATOM     23  N   UNL     1      -7.718  -3.631 -17.245  0.00  0.00    +0.379 N 
ATOM     24  C   UNL     1      -7.578  -4.000 -18.661  0.00  0.00    -0.096 C 
ATOM     25  H   UNL     1      -6.857  -4.074 -16.693  0.00  0.00    -0.082 HD
ATOM     26  C   UNL     1      -7.688  -2.126 -17.015  0.00  0.00    -0.064 C 
ATOM     27  C   UNL     1      -7.832  -1.795 -15.504  0.00  0.00    +0.066 C 
ENDBRANCH  19  20
ENDBRANCH  18  19
ENDBRANCH  14  15
ENDBRANCH  12  13
TORSDOF 6
ENDMDL
