MODEL 1
REMARK VINA RESULT:      -8.2      0.000      0.000
REMARK  Name = C:\Users\Docking\Desktop\test protocol\1iep_ligandH.pdb
REMARK  8 active torsions:
REMARK  status: ('A' for Active; 'I' for Inactive)
REMARK    1  A    between atoms: _5  and  _11
REMARK    2  A    between atoms: _19  and  _21
REMARK    3  A    between atoms: _22  and  _66
REMARK    4  A    between atoms: _27  and  _30
REMARK    5  A    between atoms: _32  and  _33
REMARK    6  A    between atoms: _38  and  _43
REMARK    7  A    between atoms: _43  and  _46
REMARK    8  A    between atoms: _53  and  _55
REMARK                            x       y       z     vdW  Elec       q    Type
REMARK                         _______ _______ _______ _____ _____    ______ ____
ROOT
ATOM     10  C   UNL     1       7.020  18.080  13.674  0.00  0.00    +0.038 A 
ATOM     11  C   UNL     1       7.710  17.726  12.487  0.00  0.00    +0.047 A 
ATOM     12  C   UNL     1       7.454  16.462  11.815  0.00  0.00    +0.035 A 
ATOM     32  C   UNL     1       6.485  15.581  12.380  0.00  0.00    +0.024 A 
ATOM     33  C   UNL     1       5.775  15.924  13.586  0.00  0.00    +0.007 A 
ATOM     34  C   UNL     1       6.026  17.169  14.255  0.00  0.00    -0.029 A 
ATOM     35  C   UNL     1       5.239  17.482  15.549  0.00  0.00    +0.045 C 
ENDROOT
BRANCH  10   9
ATOM      4  C   UNL     1       9.756  20.912  16.418  0.00  0.00    +0.077 A 
ATOM      5  C   UNL     1      10.680  19.851  16.695  0.00  0.00    +0.048 A 
ATOM      6  C   UNL     1      10.412  18.589  16.118  0.00  0.00    +0.116 A 
ATOM      7  N   UNL     1       9.299  18.414  15.325  0.00  0.00    -0.223 NA
ATOM      8  C   UNL     1       8.427  19.458  15.079  0.00  0.00    +0.220 A 
ATOM      9  N   UNL     1       7.305  19.307  14.277  0.00  0.00    -0.283 N 
ATOM     36  H   UNL     1       6.683  20.100  14.126  0.00  0.00    +0.155 HD
ATOM     37  N   UNL     1       8.660  20.672  15.619  0.00  0.00    -0.214 NA
BRANCH   4   3
ATOM      1  C   UNL     1       9.019  24.357  18.118  0.00  0.00    +0.020 A 
ATOM      2  C   UNL     1       8.823  23.016  17.620  0.00  0.00    +0.013 A 
ATOM      3  C   UNL     1       9.905  22.303  16.952  0.00  0.00    +0.019 A 
ATOM     38  C   UNL     1      11.184  22.982  16.805  0.00  0.00    +0.120 A 
ATOM     39  N   UNL     1      11.343  24.275  17.294  0.00  0.00    -0.263 NA
ATOM     40  C   UNL     1      10.308  24.971  17.936  0.00  0.00    +0.111 A 
ENDBRANCH   4   3
ENDBRANCH  10   9
BRANCH  12  13
ATOM     13  N   UNL     1       8.130  16.045  10.612  0.00  0.00    -0.281 N 
ATOM     14  C   UNL     1       8.038  16.603   9.347  0.00  0.00    +0.248 C 
ATOM     30  O   UNL     1       7.192  17.418   9.011  0.00  0.00    -0.270 OA
ATOM     31  H   UNL     1       8.752  15.242  10.703  0.00  0.00    +0.155 HD
BRANCH  14  15
ATOM     15  C   UNL     1       9.020  16.185   8.300  0.00  0.00    +0.037 A 
ATOM     16  C   UNL     1       9.091  14.796   7.837  0.00  0.00    +0.013 A 
ATOM     17  C   UNL     1      10.059  14.416   6.839  0.00  0.00    +0.005 A 
ATOM     18  C   UNL     1      10.962  15.427   6.295  0.00  0.00    -0.033 A 
ATOM     28  C   UNL     1      10.866  16.798   6.769  0.00  0.00    +0.005 A 
ATOM     29  C   UNL     1       9.920  17.174   7.748  0.00  0.00    +0.013 A 
BRANCH  18  19
ATOM     19  C   UNL     1      12.040  15.107   5.242  0.00  0.00    +0.119 C 
BRANCH  19  20
ATOM     20  N   UNL     1      12.103  13.704   4.734  0.00  0.00    -0.302 NA
ATOM     21  C   UNL     1      13.366  12.978   5.207  0.00  0.00    +0.066 C 
ATOM     22  C   UNL     1      13.406  11.505   4.685  0.00  0.00    -0.064 C 
ATOM     23  N   UNL     1      13.322  11.506   3.158  0.00  0.00    +0.379 N 
ATOM     24  C   UNL     1      13.417  10.126   2.661  0.00  0.00    -0.096 C 
ATOM     25  H   UNL     1      14.204  12.067   2.771  0.00  0.00    -0.082 HD
ATOM     26  C   UNL     1      12.070  12.228   2.679  0.00  0.00    -0.064 C 
ATOM     27  C   UNL     1      12.026  13.681   3.227  0.00  0.00    +0.066 C 
ENDBRANCH  19  20
ENDBRANCH  18  19
ENDBRANCH  14  15
ENDBRANCH  12  13
TORSDOF 6
ENDMDL
MODEL 2
REMARK VINA RESULT:      -8.1      5.437      8.966
REMARK  Name = C:\Users\Docking\Desktop\test protocol\1iep_ligandH.pdb
REMARK  8 active torsions:
REMARK  status: ('A' for Active; 'I' for Inactive)
REMARK    1  A    between atoms: _5  and  _11
REMARK    2  A    between atoms: _19  and  _21
REMARK    3  A    between atoms: _22  and  _66
REMARK    4  A    between atoms: _27  and  _30
REMARK    5  A    between atoms: _32  and  _33
REMARK    6  A    between atoms: _38  and  _43
REMARK    7  A    between atoms: _43  and  _46
REMARK    8  A    between atoms: _53  and  _55
REMARK                            x       y       z     vdW  Elec       q    Type
REMARK                         _______ _______ _______ _____ _____    ______ ____
ROOT
ATOM     10  C   UNL     1      11.039  24.392  17.185  0.00  0.00    +0.038 A 
ATOM     11  C   UNL     1      10.693  23.276  16.381  0.00  0.00    +0.047 A 
ATOM     12  C   UNL     1      10.366  21.990  16.979  0.00  0.00    +0.035 A 
ATOM     32  C   UNL     1      10.400  21.878  18.399  0.00  0.00    +0.024 A 
ATOM     33  C   UNL     1      10.751  23.002  19.232  0.00  0.00    +0.007 A 
ATOM     34  C   UNL     1      11.076  24.271  18.648  0.00  0.00    -0.029 A 
ATOM     35  C   UNL     1      11.451  25.440  19.588  0.00  0.00    +0.045 C 
ENDROOT
BRANCH  10   9
ATOM      4  C   UNL     1      14.169  27.619  15.506  0.00  0.00    +0.077 A 
ATOM      5  C   UNL     1      15.294  26.840  15.938  0.00  0.00    +0.048 A 
ATOM      6  C   UNL     1      15.024  25.619  16.594  0.00  0.00    +0.116 A 
ATOM      7  N   UNL     1      13.722  25.216  16.798  0.00  0.00    -0.223 NA
ATOM      8  C   UNL     1      12.660  25.992  16.371  0.00  0.00    +0.220 A 
ATOM      9  N   UNL     1      11.343  25.602  16.559  0.00  0.00    -0.283 N 
ATOM     36  H   UNL     1      10.588  26.206  16.235  0.00  0.00    +0.155 HD
ATOM     37  N   UNL     1      12.892  27.163  15.743  0.00  0.00    -0.214 NA
BRANCH   4   3
ATOM      1  C   UNL     1      14.874  31.385  14.715  0.00  0.00    +0.020 A 
ATOM      2  C   UNL     1      14.774  30.143  15.447  0.00  0.00    +0.013 A 
ATOM      3  C   UNL     1      14.292  28.931  14.796  0.00  0.00    +0.019 A 
ATOM     38  C   UNL     1      13.918  29.010  13.391  0.00  0.00    +0.120 A 
ATOM     39  N   UNL     1      14.024  30.220  12.713  0.00  0.00    -0.263 NA
ATOM     40  C   UNL     1      14.484  31.393  13.330  0.00  0.00    +0.111 A 
ENDBRANCH   4   3
ENDBRANCH  10   9
BRANCH  12  13
ATOM     13  N   UNL     1      10.016  20.820  16.213  0.00  0.00    -0.281 N 
ATOM     14  C   UNL     1       8.770  20.227  16.086  0.00  0.00    +0.248 C 
ATOM     30  O   UNL     1       7.804  20.491  16.787  0.00  0.00    -0.270 OA
ATOM     31  H   UNL     1      10.778  20.374  15.703  0.00  0.00    +0.155 HD
BRANCH  14  15
ATOM     15  C   UNL     1       8.572  19.179  15.039  0.00  0.00    +0.037 A 
ATOM     16  C   UNL     1       9.617  18.196  14.741  0.00  0.00    +0.013 A 
ATOM     17  C   UNL     1       9.407  17.207  13.714  0.00  0.00    +0.005 A 
ATOM     18  C   UNL     1       8.145  17.195  12.978  0.00  0.00    -0.033 A 
ATOM     28  C   UNL     1       7.124  18.179  13.297  0.00  0.00    +0.005 A 
ATOM     29  C   UNL     1       7.327  19.151  14.303  0.00  0.00    +0.013 A 
BRANCH  18  19
ATOM     19  C   UNL     1       7.843  16.189  11.851  0.00  0.00    +0.119 C 
BRANCH  19  20
ATOM     20  N   UNL     1       6.439  15.695  11.734  0.00  0.00    -0.302 NA
ATOM     21  C   UNL     1       6.177  14.489  12.640  0.00  0.00    +0.066 C 
ATOM     22  C   UNL     1       4.697  13.999  12.522  0.00  0.00    -0.064 C 
ATOM     23  N   UNL     1       4.391  13.657  11.063  0.00  0.00    +0.379 N 
ATOM     24  C   UNL     1       3.019  13.140  10.957  0.00  0.00    -0.096 C 
ATOM     25  H   UNL     1       5.085  12.840  10.754  0.00  0.00    -0.082 HD
ATOM     26  C   UNL     1       4.652  14.850  10.154  0.00  0.00    -0.064 C 
ATOM     27  C   UNL     1       6.117  15.347  10.301  0.00  0.00    +0.066 C 
ENDBRANCH  19  20
ENDBRANCH  18  19
ENDBRANCH  14  15
ENDBRANCH  12  13
TORSDOF 6
ENDMDL
MODEL 3
REMARK VINA RESULT:      -8.1      5.374     12.586
REMARK  Name = C:\Users\Docking\Desktop\test protocol\1iep_ligandH.pdb
REMARK  8 active torsions:
REMARK  status: ('A' for Active; 'I' for Inactive)
REMARK    1  A    between atoms: _5  and  _11
REMARK    2  A    between atoms: _19  and  _21
REMARK    3  A    between atoms: _22  and  _66
REMARK    4  A    between atoms: _27  and  _30
REMARK    5  A    between atoms: _32  and  _33
REMARK    6  A    between atoms: _38  and  _43
REMARK    7  A    between atoms: _43  and  _46
REMARK    8  A    between atoms: _53  and  _55
REMARK                            x       y       z     vdW  Elec       q    Type
REMARK                         _______ _______ _______ _____ _____    ______ ____
ROOT
ATOM     10  C   UNL     1       6.951  20.498  16.082  0.00  0.00    +0.038 A 
ATOM     11  C   UNL     1       7.994  21.448  15.929  0.00  0.00    +0.047 A 
ATOM     12  C   UNL     1       8.548  22.149  17.076  0.00  0.00    +0.035 A 
ATOM     32  C   UNL     1       8.018  21.857  18.367  0.00  0.00    +0.024 A 
ATOM     33  C   UNL     1       6.958  20.896  18.541  0.00  0.00    +0.007 A 
ATOM     34  C   UNL     1       6.405  20.203  17.413  0.00  0.00    -0.029 A 
ATOM     35  C   UNL     1       5.265  19.187  17.658  0.00  0.00    +0.045 C 
ENDROOT
BRANCH  10   9
ATOM      4  C   UNL     1       7.097  17.001  12.798  0.00  0.00    +0.077 A 
ATOM      5  C   UNL     1       8.274  16.423  13.380  0.00  0.00    +0.048 A 
ATOM      6  C   UNL     1       8.815  17.061  14.519  0.00  0.00    +0.116 A 
ATOM      7  N   UNL     1       8.215  18.191  15.030  0.00  0.00    -0.223 NA
ATOM      8  C   UNL     1       7.081  18.723  14.444  0.00  0.00    +0.220 A 
ATOM      9  N   UNL     1       6.456  19.854  14.946  0.00  0.00    -0.283 N 
ATOM     36  H   UNL     1       5.626  20.220  14.481  0.00  0.00    +0.155 HD
ATOM     37  N   UNL     1       6.546  18.134  13.355  0.00  0.00    -0.214 NA
BRANCH   4   3
ATOM      1  C   UNL     1       6.088  16.214   9.102  0.00  0.00    +0.020 A 
ATOM      2  C   UNL     1       6.788  16.784  10.230  0.00  0.00    +0.013 A 
ATOM      3  C   UNL     1       6.406  16.441  11.594  0.00  0.00    +0.019 A 
ATOM     38  C   UNL     1       5.303  15.511  11.784  0.00  0.00    +0.120 A 
ATOM     39  N   UNL     1       4.646  14.979  10.678  0.00  0.00    -0.263 NA
ATOM     40  C   UNL     1       5.004  15.303   9.361  0.00  0.00    +0.111 A 
ENDBRANCH   4   3
ENDBRANCH  10   9
BRANCH  12  13
ATOM     13  N   UNL     1       9.602  23.129  16.981  0.00  0.00    -0.281 N 
ATOM     14  C   UNL     1      10.961  22.906  16.836  0.00  0.00    +0.248 C 
ATOM     30  O   UNL     1      11.503  21.820  16.981  0.00  0.00    -0.270 OA
ATOM     31  H   UNL     1       9.310  24.105  17.025  0.00  0.00    +0.155 HD
BRANCH  14  15
ATOM     15  C   UNL     1      11.849  24.058  16.494  0.00  0.00    +0.037 A 
ATOM     16  C   UNL     1      12.756  24.004  15.344  0.00  0.00    +0.013 A 
ATOM     17  C   UNL     1      13.614  25.123  15.047  0.00  0.00    +0.005 A 
ATOM     18  C   UNL     1      13.568  26.308  15.900  0.00  0.00    -0.033 A 
ATOM     28  C   UNL     1      12.656  26.337  17.031  0.00  0.00    +0.005 A 
ATOM     29  C   UNL     1      11.814  25.242  17.327  0.00  0.00    +0.013 A 
BRANCH  18  19
ATOM     19  C   UNL     1      14.464  27.540  15.670  0.00  0.00    +0.119 C 
BRANCH  19  20
ATOM     20  N   UNL     1      13.843  28.720  14.998  0.00  0.00    -0.302 NA
ATOM     21  C   UNL     1      13.961  28.641  13.474  0.00  0.00    +0.066 C 
ATOM     22  C   UNL     1      13.286  29.873  12.786  0.00  0.00    -0.064 C 
ATOM     23  N   UNL     1      13.924  31.160  13.313  0.00  0.00    +0.379 N 
ATOM     24  C   UNL     1      13.332  32.317  12.625  0.00  0.00    -0.096 C 
ATOM     25  H   UNL     1      15.008  31.130  13.054  0.00  0.00    -0.082 HD
ATOM     26  C   UNL     1      13.813  31.245  14.828  0.00  0.00    -0.064 C 
ATOM     27  C   UNL     1      14.460  30.002  15.501  0.00  0.00    +0.066 C 
ENDBRANCH  19  20
ENDBRANCH  18  19
ENDBRANCH  14  15
ENDBRANCH  12  13
TORSDOF 6
ENDMDL
MODEL 4
REMARK VINA RESULT:      -8.0      2.186     13.010
REMARK  Name = C:\Users\Docking\Desktop\test protocol\1iep_ligandH.pdb
REMARK  8 active torsions:
REMARK  status: ('A' for Active; 'I' for Inactive)
REMARK    1  A    between atoms: _5  and  _11
REMARK    2  A    between atoms: _19  and  _21
REMARK    3  A    between atoms: _22  and  _66
REMARK    4  A    between atoms: _27  and  _30
REMARK    5  A    between atoms: _32  and  _33
REMARK    6  A    between atoms: _38  and  _43
REMARK    7  A    between atoms: _43  and  _46
REMARK    8  A    between atoms: _53  and  _55
REMARK                            x       y       z     vdW  Elec       q    Type
REMARK                         _______ _______ _______ _____ _____    ______ ____
ROOT
ATOM     10  C   UNL     1       7.817  16.262  11.708  0.00  0.00    +0.038 A 
ATOM     11  C   UNL     1       8.334  17.316  12.504  0.00  0.00    +0.047 A 
ATOM     12  C   UNL     1       7.455  18.156  13.303  0.00  0.00    +0.035 A 
ATOM     32  C   UNL     1       6.055  17.892  13.270  0.00  0.00    +0.024 A 
ATOM     33  C   UNL     1       5.512  16.826  12.465  0.00  0.00    +0.007 A 
ATOM     34  C   UNL     1       6.374  15.996  11.672  0.00  0.00    -0.029 A 
ATOM     35  C   UNL     1       5.737  14.872  10.823  0.00  0.00    +0.045 C 
ENDROOT
BRANCH  10   9
ATOM      4  C   UNL     1      10.453  15.448   7.780  0.00  0.00    +0.077 A 
ATOM      5  C   UNL     1      10.000  16.656   7.153  0.00  0.00    +0.048 A 
ATOM      6  C   UNL     1       9.083  17.455   7.872  0.00  0.00    +0.116 A 
ATOM      7  N   UNL     1       8.658  17.066   9.124  0.00  0.00    -0.223 NA
ATOM      8  C   UNL     1       9.114  15.894   9.699  0.00  0.00    +0.220 A 
ATOM      9  N   UNL     1       8.707  15.487  10.960  0.00  0.00    -0.283 N 
ATOM     36  H   UNL     1       9.061  14.612  11.346  0.00  0.00    +0.155 HD
ATOM     37  N   UNL     1       9.989  15.112   9.032  0.00  0.00    -0.214 NA
BRANCH   4   3
ATOM      1  C   UNL     1      12.297  13.163   5.195  0.00  0.00    +0.020 A 
ATOM      2  C   UNL     1      11.332  14.081   5.756  0.00  0.00    +0.013 A 
ATOM      3  C   UNL     1      11.425  14.500   7.149  0.00  0.00    +0.019 A 
ATOM     38  C   UNL     1      12.515  13.968   7.953  0.00  0.00    +0.120 A 
ATOM     39  N   UNL     1      13.428  13.085   7.386  0.00  0.00    -0.263 NA
ATOM     40  C   UNL     1      13.348  12.673   6.047  0.00  0.00    +0.111 A 
ENDBRANCH   4   3
ENDBRANCH  10   9
BRANCH  12  13
ATOM     13  N   UNL     1       7.922  19.245  14.125  0.00  0.00    -0.281 N 
ATOM     14  C   UNL     1       8.551  19.173  15.357  0.00  0.00    +0.248 C 
ATOM     30  O   UNL     1       8.618  18.163  16.041  0.00  0.00    -0.270 OA
ATOM     31  H   UNL     1       7.769  20.182  13.753  0.00  0.00    +0.155 HD
BRANCH  14  15
ATOM     15  C   UNL     1       9.186  20.406  15.916  0.00  0.00    +0.037 A 
ATOM     16  C   UNL     1      10.270  20.323  16.899  0.00  0.00    +0.013 A 
ATOM     17  C   UNL     1      10.853  21.528  17.434  0.00  0.00    +0.005 A 
ATOM     18  C   UNL     1      10.355  22.826  16.986  0.00  0.00    -0.033 A 
ATOM     28  C   UNL     1       9.283  22.878  16.006  0.00  0.00    +0.005 A 
ATOM     29  C   UNL     1       8.708  21.700  15.480  0.00  0.00    +0.013 A 
BRANCH  18  19
ATOM     19  C   UNL     1      10.904  24.162  17.520  0.00  0.00    +0.119 C 
BRANCH  19  20
ATOM     20  N   UNL     1      10.550  24.536  18.922  0.00  0.00    -0.302 NA
ATOM     21  C   UNL     1       9.057  24.349  19.207  0.00  0.00    +0.066 C 
ATOM     22  C   UNL     1       8.708  24.723  20.684  0.00  0.00    -0.064 C 
ATOM     23  N   UNL     1       9.135  26.166  20.956  0.00  0.00    +0.379 N 
ATOM     24  C   UNL     1       8.755  26.540  22.327  0.00  0.00    -0.096 C 
ATOM     25  H   UNL     1       8.568  26.824  20.257  0.00  0.00    -0.082 HD
ATOM     26  C   UNL     1      10.617  26.361  20.673  0.00  0.00    -0.064 C 
ATOM     27  C   UNL     1      10.959  25.959  19.211  0.00  0.00    +0.066 C 
ENDBRANCH  19  20
ENDBRANCH  18  19
ENDBRANCH  14  15
ENDBRANCH  12  13
TORSDOF 6
ENDMDL
MODEL 5
REMARK VINA RESULT:      -8.0      5.475      8.442
REMARK  Name = C:\Users\Docking\Desktop\test protocol\1iep_ligandH.pdb
REMARK  8 active torsions:
REMARK  status: ('A' for Active; 'I' for Inactive)
REMARK    1  A    between atoms: _5  and  _11
REMARK    2  A    between atoms: _19  and  _21
REMARK    3  A    between atoms: _22  and  _66
REMARK    4  A    between atoms: _27  and  _30
REMARK    5  A    between atoms: _32  and  _33
REMARK    6  A    between atoms: _38  and  _43
REMARK    7  A    between atoms: _43  and  _46
REMARK    8  A    between atoms: _53  and  _55
REMARK                            x       y       z     vdW  Elec       q    Type
REMARK                         _______ _______ _______ _____ _____    ______ ____
ROOT
ATOM     10  C   UNL     1       9.007  15.277   8.971  0.00  0.00    +0.038 A 
ATOM     11  C   UNL     1       9.503  14.543   7.863  0.00  0.00    +0.047 A 
ATOM     12  C   UNL     1      10.191  15.206   6.767  0.00  0.00    +0.035 A 
ATOM     32  C   UNL     1      10.359  16.620   6.832  0.00  0.00    +0.024 A 
ATOM     33  C   UNL     1       9.861  17.383   7.950  0.00  0.00    +0.007 A 
ATOM     34  C   UNL     1       9.179  16.734   9.033  0.00  0.00    -0.029 A 
ATOM     35  C   UNL     1       8.661  17.602  10.203  0.00  0.00    +0.045 C 
ENDROOT
BRANCH  10   9
ATOM      4  C   UNL     1       5.029  13.833  11.234  0.00  0.00    +0.077 A 
ATOM      5  C   UNL     1       4.180  14.531  10.312  0.00  0.00    +0.048 A 
ATOM      6  C   UNL     1       4.807  15.256   9.274  0.00  0.00    +0.116 A 
ATOM      7  N   UNL     1       6.181  15.274   9.175  0.00  0.00    -0.223 NA
ATOM      8  C   UNL     1       6.971  14.591  10.081  0.00  0.00    +0.220 A 
ATOM      9  N   UNL     1       8.355  14.589   9.996  0.00  0.00    -0.283 N 
ATOM     36  H   UNL     1       8.902  14.079  10.688  0.00  0.00    +0.155 HD
ATOM     37  N   UNL     1       6.396  13.892  11.083  0.00  0.00    -0.214 NA
BRANCH   4   3
ATOM      1  C   UNL     1       2.798  11.533  13.478  0.00  0.00    +0.020 A 
ATOM      2  C   UNL     1       3.247  12.304  12.342  0.00  0.00    +0.013 A 
ATOM      3  C   UNL     1       4.516  13.020  12.382  0.00  0.00    +0.019 A 
ATOM     38  C   UNL     1       5.313  12.934  13.597  0.00  0.00    +0.120 A 
ATOM     39  N   UNL     1       4.855  12.185  14.676  0.00  0.00    -0.263 NA
ATOM     40  C   UNL     1       3.634  11.493  14.649  0.00  0.00    +0.111 A 
ENDBRANCH   4   3
ENDBRANCH  10   9
BRANCH  12  13
ATOM     13  N   UNL     1      10.708  14.514   5.613  0.00  0.00    -0.281 N 
ATOM     14  C   UNL     1      11.880  13.783   5.513  0.00  0.00    +0.248 C 
ATOM     30  O   UNL     1      12.773  13.791   6.347  0.00  0.00    -0.270 OA
ATOM     31  H   UNL     1      10.141  14.569   4.766  0.00  0.00    +0.155 HD
BRANCH  14  15
ATOM     15  C   UNL     1      12.099  12.930   4.305  0.00  0.00    +0.037 A 
ATOM     16  C   UNL     1      12.532  13.511   3.032  0.00  0.00    +0.013 A 
ATOM     17  C   UNL     1      12.719  12.668   1.878  0.00  0.00    +0.005 A 
ATOM     18  C   UNL     1      12.473  11.233   1.993  0.00  0.00    -0.033 A 
ATOM     28  C   UNL     1      12.049  10.681   3.269  0.00  0.00    +0.005 A 
ATOM     29  C   UNL     1      11.864  11.505   4.402  0.00  0.00    +0.013 A 
BRANCH  18  19
ATOM     19  C   UNL     1      12.627  10.261   0.808  0.00  0.00    +0.119 C 
BRANCH  19  20
ATOM     20  N   UNL     1      11.417  10.009  -0.031  0.00  0.00    -0.302 NA
ATOM     21  C   UNL     1      10.910   8.571   0.109  0.00  0.00    +0.066 C 
ATOM     22  C   UNL     1       9.632   8.331  -0.757  0.00  0.00    -0.064 C 
ATOM     23  N   UNL     1       9.942   8.655  -2.220  0.00  0.00    +0.379 N 
ATOM     24  C   UNL     1       8.758   8.375  -3.046  0.00  0.00    -0.096 C 
ATOM     25  H   UNL     1      10.756   7.970  -2.552  0.00  0.00    -0.082 HD
ATOM     26  C   UNL     1      10.449  10.082  -2.368  0.00  0.00    -0.064 C 
ATOM     27  C   UNL     1      11.703  10.319  -1.480  0.00  0.00    +0.066 C 
ENDBRANCH  19  20
ENDBRANCH  18  19
ENDBRANCH  14  15
ENDBRANCH  12  13
TORSDOF 6
ENDMDL
