MODEL 1
REMARK VINA RESULT:      -9.1      0.000      0.000
REMARK  Name = C:\Users\Docking\Desktop\test protocol\1iep_ligandH.pdb
REMARK  8 active torsions:
REMARK  status: ('A' for Active; 'I' for Inactive)
REMARK    1  A    between atoms: _5  and  _11
REMARK    2  A    between atoms: _19  and  _21
REMARK    3  A    between atoms: _22  and  _66
REMARK    4  A    between atoms: _27  and  _30
REMARK    5  A    between atoms: _32  and  _33
REMARK    6  A    between atoms: _38  and  _43
REMARK    7  A    between atoms: _43  and  _46
REMARK    8  A    between atoms: _53  and  _55
REMARK                            x       y       z     vdW  Elec       q    Type
REMARK                         _______ _______ _______ _____ _____    ______ ____
ROOT
ATOM     10  C   UNL     1      51.104  43.167  58.051  0.00  0.00    +0.038 A 
ATOM     11  C   UNL     1      50.857  44.097  57.009  0.00  0.00    +0.047 A 
ATOM     12  C   UNL     1      51.303  43.839  55.649  0.00  0.00    +0.035 A 
ATOM     32  C   UNL     1      51.997  42.623  55.385  0.00  0.00    +0.024 A 
ATOM     33  C   UNL     1      52.259  41.667  56.432  0.00  0.00    +0.007 A 
ATOM     34  C   UNL     1      51.823  41.917  57.776  0.00  0.00    -0.029 A 
ATOM     35  C   UNL     1      52.136  40.860  58.860  0.00  0.00    +0.045 C 
ENDROOT
BRANCH  10   9
ATOM      4  C   UNL     1      47.760  43.068  61.493  0.00  0.00    +0.077 A 
ATOM      5  C   UNL     1      46.823  42.388  60.645  0.00  0.00    +0.048 A 
ATOM      6  C   UNL     1      47.239  42.089  59.328  0.00  0.00    +0.116 A 
ATOM      7  N   UNL     1      48.499  42.447  58.902  0.00  0.00    -0.223 NA
ATOM      8  C   UNL     1      49.378  43.103  59.744  0.00  0.00    +0.220 A 
ATOM      9  N   UNL     1      50.653  43.465  59.339  0.00  0.00    -0.283 N 
ATOM     36  H   UNL     1      51.268  43.955  59.988  0.00  0.00    +0.155 HD
ATOM     37  N   UNL     1      49.004  43.401  61.006  0.00  0.00    -0.214 NA
BRANCH   4   3
ATOM      1  C   UNL     1      47.109  45.150  64.739  0.00  0.00    +0.020 A 
ATOM      2  C   UNL     1      47.392  44.835  63.358  0.00  0.00    +0.013 A 
ATOM      3  C   UNL     1      47.470  43.450  62.911  0.00  0.00    +0.019 A 
ATOM     38  C   UNL     1      47.254  42.399  63.894  0.00  0.00    +0.120 A 
ATOM     39  N   UNL     1      46.984  42.733  65.218  0.00  0.00    -0.263 NA
ATOM     40  C   UNL     1      46.908  44.062  65.660  0.00  0.00    +0.111 A 
ENDBRANCH   4   3
ENDBRANCH  10   9
BRANCH  12  13
ATOM     13  N   UNL     1      51.088  44.750  54.552  0.00  0.00    -0.281 N 
ATOM     14  C   UNL     1      51.351  46.109  54.509  0.00  0.00    +0.248 C 
ATOM     30  O   UNL     1      51.615  46.793  55.487  0.00  0.00    -0.270 OA
ATOM     31  H   UNL     1      50.693  44.343  53.704  0.00  0.00    +0.155 HD
BRANCH  14  15
ATOM     15  C   UNL     1      51.299  46.814  53.192  0.00  0.00    +0.037 A 
ATOM     16  C   UNL     1      51.112  48.265  53.113  0.00  0.00    +0.013 A 
ATOM     17  C   UNL     1      51.049  48.917  51.829  0.00  0.00    +0.005 A 
ATOM     18  C   UNL     1      51.175  48.117  50.613  0.00  0.00    -0.033 A 
ATOM     28  C   UNL     1      51.365  46.680  50.720  0.00  0.00    +0.005 A 
ATOM     29  C   UNL     1      51.427  46.038  51.977  0.00  0.00    +0.013 A 
BRANCH  18  19
ATOM     19  C   UNL     1      51.098  48.726  49.200  0.00  0.00    +0.119 C 
BRANCH  19  20
ATOM     20  N   UNL     1      51.289  47.799  48.045  0.00  0.00    -0.302 NA
ATOM     21  C   UNL     1      52.762  47.442  47.832  0.00  0.00    +0.066 C 
ATOM     22  C   UNL     1      52.941  46.453  46.634  0.00  0.00    -0.064 C 
ATOM     23  N   UNL     1      52.347  47.077  45.369  0.00  0.00    +0.379 N 
ATOM     24  C   UNL     1      52.565  46.175  44.229  0.00  0.00    -0.096 C 
ATOM     25  H   UNL     1      52.903  48.021  45.165  0.00  0.00    -0.082 HD
ATOM     26  C   UNL     1      50.883  47.438  45.573  0.00  0.00    -0.064 C 
ATOM     27  C   UNL     1      50.713  48.397  46.784  0.00  0.00    +0.066 C 
ENDBRANCH  19  20
ENDBRANCH  18  19
ENDBRANCH  14  15
ENDBRANCH  12  13
TORSDOF 6
ENDMDL
MODEL 2
REMARK VINA RESULT:      -8.8      2.027     13.506
REMARK  Name = C:\Users\Docking\Desktop\test protocol\1iep_ligandH.pdb
REMARK  8 active torsions:
REMARK  status: ('A' for Active; 'I' for Inactive)
REMARK    1  A    between atoms: _5  and  _11
REMARK    2  A    between atoms: _19  and  _21
REMARK    3  A    between atoms: _22  and  _66
REMARK    4  A    between atoms: _27  and  _30
REMARK    5  A    between atoms: _32  and  _33
REMARK    6  A    between atoms: _38  and  _43
REMARK    7  A    between atoms: _43  and  _46
REMARK    8  A    between atoms: _53  and  _55
REMARK                            x       y       z     vdW  Elec       q    Type
REMARK                         _______ _______ _______ _____ _____    ______ ____
ROOT
ATOM     10  C   UNL     1      52.327  46.062  54.430  0.00  0.00    +0.038 A 
ATOM     11  C   UNL     1      51.267  45.629  55.266  0.00  0.00    +0.047 A 
ATOM     12  C   UNL     1      51.356  45.745  56.714  0.00  0.00    +0.035 A 
ATOM     32  C   UNL     1      52.538  46.309  57.275  0.00  0.00    +0.024 A 
ATOM     33  C   UNL     1      53.626  46.752  56.439  0.00  0.00    +0.007 A 
ATOM     34  C   UNL     1      53.546  46.638  55.011  0.00  0.00    -0.029 A 
ATOM     35  C   UNL     1      54.745  47.124  54.165  0.00  0.00    +0.045 C 
ENDROOT
BRANCH  10   9
ATOM      4  C   UNL     1      51.336  47.837  50.082  0.00  0.00    +0.077 A 
ATOM      5  C   UNL     1      51.042  49.136  50.614  0.00  0.00    +0.048 A 
ATOM      6  C   UNL     1      51.152  49.304  52.013  0.00  0.00    +0.116 A 
ATOM      7  N   UNL     1      51.528  48.245  52.810  0.00  0.00    -0.223 NA
ATOM      8  C   UNL     1      51.802  47.004  52.265  0.00  0.00    +0.220 A 
ATOM      9  N   UNL     1      52.189  45.927  53.046  0.00  0.00    -0.283 N 
ATOM     36  H   UNL     1      52.375  45.026  52.607  0.00  0.00    +0.155 HD
ATOM     37  N   UNL     1      51.703  46.818  50.932  0.00  0.00    -0.214 NA
BRANCH   4   3
ATOM      1  C   UNL     1      51.370  45.881  46.695  0.00  0.00    +0.020 A 
ATOM      2  C   UNL     1      51.445  46.150  48.112  0.00  0.00    +0.013 A 
ATOM      3  C   UNL     1      51.268  47.503  48.624  0.00  0.00    +0.019 A 
ATOM     38  C   UNL     1      51.015  48.570  47.667  0.00  0.00    +0.120 A 
ATOM     39  N   UNL     1      50.949  48.281  46.308  0.00  0.00    -0.263 NA
ATOM     40  C   UNL     1      51.119  46.983  45.804  0.00  0.00    +0.111 A 
ENDBRANCH   4   3
ENDBRANCH  10   9
BRANCH  12  13
ATOM     13  N   UNL     1      50.314  45.316  57.614  0.00  0.00    -0.281 N 
ATOM     14  C   UNL     1      49.768  44.050  57.743  0.00  0.00    +0.248 C 
ATOM     30  O   UNL     1      49.944  43.137  56.949  0.00  0.00    -0.270 OA
ATOM     31  H   UNL     1      49.934  46.034  58.232  0.00  0.00    +0.155 HD
BRANCH  14  15
ATOM     15  C   UNL     1      48.886  43.759  58.914  0.00  0.00    +0.037 A 
ATOM     16  C   UNL     1      47.710  42.896  58.784  0.00  0.00    +0.013 A 
ATOM     17  C   UNL     1      46.866  42.646  59.926  0.00  0.00    +0.005 A 
ATOM     18  C   UNL     1      47.198  43.260  61.210  0.00  0.00    -0.033 A 
ATOM     28  C   UNL     1      48.374  44.108  61.312  0.00  0.00    +0.005 A 
ATOM     29  C   UNL     1      49.203  44.356  60.194  0.00  0.00    +0.013 A 
BRANCH  18  19
ATOM     19  C   UNL     1      46.343  43.065  62.476  0.00  0.00    +0.119 C 
BRANCH  19  20
ATOM     20  N   UNL     1      47.057  43.054  63.788  0.00  0.00    -0.302 NA
ATOM     21  C   UNL     1      46.744  41.795  64.601  0.00  0.00    +0.066 C 
ATOM     22  C   UNL     1      47.516  41.790  65.961  0.00  0.00    -0.064 C 
ATOM     23  N   UNL     1      47.159  43.049  66.752  0.00  0.00    +0.379 N 
ATOM     24  C   UNL     1      47.838  43.018  68.056  0.00  0.00    -0.096 C 
ATOM     25  H   UNL     1      46.060  43.028  66.943  0.00  0.00    -0.082 HD
ATOM     26  C   UNL     1      47.464  44.305  65.949  0.00  0.00    -0.064 C 
ATOM     27  C   UNL     1      46.715  44.287  64.588  0.00  0.00    +0.066 C 
ENDBRANCH  19  20
ENDBRANCH  18  19
ENDBRANCH  14  15
ENDBRANCH  12  13
TORSDOF 6
ENDMDL
MODEL 3
REMARK VINA RESULT:      -8.6     23.101     26.515
REMARK  Name = C:\Users\Docking\Desktop\test protocol\1iep_ligandH.pdb
REMARK  8 active torsions:
REMARK  status: ('A' for Active; 'I' for Inactive)
REMARK    1  A    between atoms: _5  and  _11
REMARK    2  A    between atoms: _19  and  _21
REMARK    3  A    between atoms: _22  and  _66
REMARK    4  A    between atoms: _27  and  _30
REMARK    5  A    between atoms: _32  and  _33
REMARK    6  A    between atoms: _38  and  _43
REMARK    7  A    between atoms: _43  and  _46
REMARK    8  A    between atoms: _53  and  _55
REMARK                            x       y       z     vdW  Elec       q    Type
REMARK                         _______ _______ _______ _____ _____    ______ ____
ROOT
ATOM     10  C   UNL     1      28.475  48.282  45.993  0.00  0.00    +0.038 A 
ATOM     11  C   UNL     1      28.160  47.205  46.860  0.00  0.00    +0.047 A 
ATOM     12  C   UNL     1      26.869  46.538  46.793  0.00  0.00    +0.035 A 
ATOM     32  C   UNL     1      25.923  46.992  45.829  0.00  0.00    +0.024 A 
ATOM     33  C   UNL     1      26.226  48.087  44.941  0.00  0.00    +0.007 A 
ATOM     34  C   UNL     1      27.497  48.751  45.004  0.00  0.00    -0.029 A 
ATOM     35  C   UNL     1      27.765  49.923  44.032  0.00  0.00    +0.045 C 
ENDROOT
BRANCH  10   9
ATOM      4  C   UNL     1      31.523  51.373  48.042  0.00  0.00    +0.077 A 
ATOM      5  C   UNL     1      30.523  51.844  48.957  0.00  0.00    +0.048 A 
ATOM      6  C   UNL     1      29.236  51.269  48.863  0.00  0.00    +0.116 A 
ATOM      7  N   UNL     1      28.978  50.298  47.921  0.00  0.00    -0.223 NA
ATOM      8  C   UNL     1      29.964  49.868  47.052  0.00  0.00    +0.220 A 
ATOM      9  N   UNL     1      29.730  48.886  46.101  0.00  0.00    -0.283 N 
ATOM     36  H   UNL     1      30.482  48.602  45.474  0.00  0.00    +0.155 HD
ATOM     37  N   UNL     1      31.202  50.402  47.120  0.00  0.00    -0.214 NA
BRANCH   4   3
ATOM      1  C   UNL     1      35.243  52.015  47.019  0.00  0.00    +0.020 A 
ATOM      2  C   UNL     1      33.895  51.496  46.995  0.00  0.00    +0.013 A 
ATOM      3  C   UNL     1      32.931  51.880  48.019  0.00  0.00    +0.019 A 
ATOM     38  C   UNL     1      33.367  52.799  49.060  0.00  0.00    +0.120 A 
ATOM     39  N   UNL     1      34.672  53.281  49.058  0.00  0.00    -0.263 NA
ATOM     40  C   UNL     1      35.609  52.917  48.079  0.00  0.00    +0.111 A 
ENDBRANCH   4   3
ENDBRANCH  10   9
BRANCH  12  13
ATOM     13  N   UNL     1      26.490  45.443  47.652  0.00  0.00    -0.281 N 
ATOM     14  C   UNL     1      25.983  45.508  48.940  0.00  0.00    +0.248 C 
ATOM     30  O   UNL     1      25.978  46.516  49.631  0.00  0.00    -0.270 OA
ATOM     31  H   UNL     1      26.611  44.508  47.264  0.00  0.00    +0.155 HD
BRANCH  14  15
ATOM     15  C   UNL     1      25.411  44.271  49.553  0.00  0.00    +0.037 A 
ATOM     16  C   UNL     1      24.206  44.322  50.385  0.00  0.00    +0.013 A 
ATOM     17  C   UNL     1      23.685  43.116  50.979  0.00  0.00    +0.005 A 
ATOM     18  C   UNL     1      24.370  41.848  50.742  0.00  0.00    -0.033 A 
ATOM     28  C   UNL     1      25.561  41.825  49.908  0.00  0.00    +0.005 A 
ATOM     29  C   UNL     1      26.075  43.005  49.326  0.00  0.00    +0.013 A 
BRANCH  18  19
ATOM     19  C   UNL     1      23.897  40.515  51.352  0.00  0.00    +0.119 C 
BRANCH  19  20
ATOM     20  N   UNL     1      23.777  39.345  50.432  0.00  0.00    -0.302 NA
ATOM     21  C   UNL     1      22.423  39.313  49.718  0.00  0.00    +0.066 C 
ATOM     22  C   UNL     1      22.324  38.095  48.742  0.00  0.00    -0.064 C 
ATOM     23  N   UNL     1      22.556  36.800  49.522  0.00  0.00    +0.379 N 
ATOM     24  C   UNL     1      22.406  35.650  48.618  0.00  0.00    -0.096 C 
ATOM     25  H   UNL     1      21.760  36.726  50.299  0.00  0.00    -0.082 HD
ATOM     26  C   UNL     1      23.899  36.825  50.237  0.00  0.00    -0.064 C 
ATOM     27  C   UNL     1      23.999  38.055  51.182  0.00  0.00    +0.066 C 
ENDBRANCH  19  20
ENDBRANCH  18  19
ENDBRANCH  14  15
ENDBRANCH  12  13
TORSDOF 6
ENDMDL
MODEL 4
REMARK VINA RESULT:      -8.6      2.194     13.224
REMARK  Name = C:\Users\Docking\Desktop\test protocol\1iep_ligandH.pdb
REMARK  8 active torsions:
REMARK  status: ('A' for Active; 'I' for Inactive)
REMARK    1  A    between atoms: _5  and  _11
REMARK    2  A    between atoms: _19  and  _21
REMARK    3  A    between atoms: _22  and  _66
REMARK    4  A    between atoms: _27  and  _30
REMARK    5  A    between atoms: _32  and  _33
REMARK    6  A    between atoms: _38  and  _43
REMARK    7  A    between atoms: _43  and  _46
REMARK    8  A    between atoms: _53  and  _55
REMARK                            x       y       z     vdW  Elec       q    Type
REMARK                         _______ _______ _______ _____ _____    ______ ____
ROOT
ATOM     10  C   UNL     1      52.324  46.241  53.947  0.00  0.00    +0.038 A 
ATOM     11  C   UNL     1      51.298  45.819  54.829  0.00  0.00    +0.047 A 
ATOM     12  C   UNL     1      51.433  45.973  56.269  0.00  0.00    +0.035 A 
ATOM     32  C   UNL     1      52.626  46.564  56.777  0.00  0.00    +0.024 A 
ATOM     33  C   UNL     1      53.681  46.998  55.894  0.00  0.00    +0.007 A 
ATOM     34  C   UNL     1      53.554  46.847  54.473  0.00  0.00    -0.029 A 
ATOM     35  C   UNL     1      54.718  47.324  53.574  0.00  0.00    +0.045 C 
ENDROOT
BRANCH  10   9
ATOM      4  C   UNL     1      51.259  47.916  49.576  0.00  0.00    +0.077 A 
ATOM      5  C   UNL     1      51.020  49.239  50.077  0.00  0.00    +0.048 A 
ATOM      6  C   UNL     1      51.175  49.445  51.466  0.00  0.00    +0.116 A 
ATOM      7  N   UNL     1      51.543  48.399  52.284  0.00  0.00    -0.223 NA
ATOM      8  C   UNL     1      51.764  47.135  51.769  0.00  0.00    +0.220 A 
ATOM      9  N   UNL     1      52.142  46.070  52.573  0.00  0.00    -0.283 N 
ATOM     36  H   UNL     1      52.288  45.151  52.156  0.00  0.00    +0.155 HD
ATOM     37  N   UNL     1      51.621  46.912  50.446  0.00  0.00    -0.214 NA
BRANCH   4   3
ATOM      1  C   UNL     1      50.559  48.051  45.730  0.00  0.00    +0.020 A 
ATOM      2  C   UNL     1      50.655  48.463  47.112  0.00  0.00    +0.013 A 
ATOM      3  C   UNL     1      51.139  47.541  48.132  0.00  0.00    +0.019 A 
ATOM     38  C   UNL     1      51.522  46.200  47.718  0.00  0.00    +0.120 A 
ATOM     39  N   UNL     1      51.417  45.831  46.380  0.00  0.00    -0.263 NA
ATOM     40  C   UNL     1      50.951  46.709  45.390  0.00  0.00    +0.111 A 
ENDBRANCH   4   3
ENDBRANCH  10   9
BRANCH  12  13
ATOM     13  N   UNL     1      50.428  45.555  57.215  0.00  0.00    -0.281 N 
ATOM     14  C   UNL     1      50.060  44.262  57.552  0.00  0.00    +0.248 C 
ATOM     30  O   UNL     1      50.394  43.265  56.930  0.00  0.00    -0.270 OA
ATOM     31  H   UNL     1      49.926  46.303  57.694  0.00  0.00    +0.155 HD
BRANCH  14  15
ATOM     15  C   UNL     1      49.182  44.048  58.742  0.00  0.00    +0.037 A 
ATOM     16  C   UNL     1      49.594  44.486  60.078  0.00  0.00    +0.013 A 
ATOM     17  C   UNL     1      48.736  44.252  61.213  0.00  0.00    +0.005 A 
ATOM     18  C   UNL     1      47.455  43.577  61.015  0.00  0.00    -0.033 A 
ATOM     28  C   UNL     1      47.069  43.159  59.678  0.00  0.00    +0.005 A 
ATOM     29  C   UNL     1      47.908  43.385  58.564  0.00  0.00    +0.013 A 
BRANCH  18  19
ATOM     19  C   UNL     1      46.486  43.267  62.171  0.00  0.00    +0.119 C 
BRANCH  19  20
ATOM     20  N   UNL     1      46.834  42.125  63.067  0.00  0.00    -0.302 NA
ATOM     21  C   UNL     1      47.753  42.555  64.214  0.00  0.00    +0.066 C 
ATOM     22  C   UNL     1      48.089  41.352  65.155  0.00  0.00    -0.064 C 
ATOM     23  N   UNL     1      48.732  40.232  64.336  0.00  0.00    +0.379 N 
ATOM     24  C   UNL     1      49.102  39.123  65.228  0.00  0.00    -0.096 C 
ATOM     25  H   UNL     1      49.671  40.635  63.891  0.00  0.00    -0.082 HD
ATOM     26  C   UNL     1      47.826  39.800  63.192  0.00  0.00    -0.064 C 
ATOM     27  C   UNL     1      47.474  41.009  62.280  0.00  0.00    +0.066 C 
ENDBRANCH  19  20
ENDBRANCH  18  19
ENDBRANCH  14  15
ENDBRANCH  12  13
TORSDOF 6
ENDMDL
MODEL 5
REMARK VINA RESULT:      -8.5     23.173     26.464
REMARK  Name = C:\Users\Docking\Desktop\test protocol\1iep_ligandH.pdb
REMARK  8 active torsions:
REMARK  status: ('A' for Active; 'I' for Inactive)
REMARK    1  A    between atoms: _5  and  _11
REMARK    2  A    between atoms: _19  and  _21
REMARK    3  A    between atoms: _22  and  _66
REMARK    4  A    between atoms: _27  and  _30
REMARK    5  A    between atoms: _32  and  _33
REMARK    6  A    between atoms: _38  and  _43
REMARK    7  A    between atoms: _43  and  _46
REMARK    8  A    between atoms: _53  and  _55
REMARK                            x       y       z     vdW  Elec       q    Type
REMARK                         _______ _______ _______ _____ _____    ______ ____
ROOT
ATOM     10  C   UNL     1      28.069  48.876  46.348  0.00  0.00    +0.038 A 
ATOM     11  C   UNL     1      27.736  47.869  47.289  0.00  0.00    +0.047 A 
ATOM     12  C   UNL     1      27.057  46.649  46.878  0.00  0.00    +0.035 A 
ATOM     32  C   UNL     1      26.737  46.487  45.499  0.00  0.00    +0.024 A 
ATOM     33  C   UNL     1      27.068  47.501  44.528  0.00  0.00    +0.007 A 
ATOM     34  C   UNL     1      27.734  48.707  44.929  0.00  0.00    -0.029 A 
ATOM     35  C   UNL     1      28.059  49.763  43.847  0.00  0.00    +0.045 C 
ENDROOT
BRANCH  10   9
ATOM      4  C   UNL     1      31.823  51.113  48.333  0.00  0.00    +0.077 A 
ATOM      5  C   UNL     1      32.537  49.882  48.514  0.00  0.00    +0.048 A 
ATOM      6  C   UNL     1      31.900  48.694  48.089  0.00  0.00    +0.116 A 
ATOM      7  N   UNL     1      30.643  48.746  47.526  0.00  0.00    -0.223 NA
ATOM      8  C   UNL     1      29.982  49.950  47.368  0.00  0.00    +0.220 A 
ATOM      9  N   UNL     1      28.720  50.027  46.798  0.00  0.00    -0.283 N 
ATOM     36  H   UNL     1      28.263  50.933  46.706  0.00  0.00    +0.155 HD
ATOM     37  N   UNL     1      30.568  51.098  47.767  0.00  0.00    -0.214 NA
BRANCH   4   3
ATOM      1  C   UNL     1      32.308  54.572  50.095  0.00  0.00    +0.020 A 
ATOM      2  C   UNL     1      31.745  53.287  49.750  0.00  0.00    +0.013 A 
ATOM      3  C   UNL     1      32.365  52.451  48.729  0.00  0.00    +0.019 A 
ATOM     38  C   UNL     1      33.564  52.949  48.072  0.00  0.00    +0.120 A 
ATOM     39  N   UNL     1      34.083  54.191  48.424  0.00  0.00    -0.263 NA
ATOM     40  C   UNL     1      33.494  55.004  49.404  0.00  0.00    +0.111 A 
ENDBRANCH   4   3
ENDBRANCH  10   9
BRANCH  12  13
ATOM     13  N   UNL     1      26.686  45.596  47.790  0.00  0.00    -0.281 N 
ATOM     14  C   UNL     1      25.600  45.557  48.649  0.00  0.00    +0.248 C 
ATOM     30  O   UNL     1      24.898  46.520  48.920  0.00  0.00    -0.270 OA
ATOM     31  H   UNL     1      27.298  44.780  47.803  0.00  0.00    +0.155 HD
BRANCH  14  15
ATOM     15  C   UNL     1      25.253  44.265  49.315  0.00  0.00    +0.037 A 
ATOM     16  C   UNL     1      26.067  43.063  49.115  0.00  0.00    +0.013 A 
ATOM     17  C   UNL     1      25.700  41.826  49.756  0.00  0.00    +0.005 A 
ATOM     18  C   UNL     1      24.511  41.783  50.604  0.00  0.00    -0.033 A 
ATOM     28  C   UNL     1      23.724  42.991  50.789  0.00  0.00    +0.005 A 
ATOM     29  C   UNL     1      24.080  44.206  50.162  0.00  0.00    +0.013 A 
BRANCH  18  19
ATOM     19  C   UNL     1      24.032  40.501  51.310  0.00  0.00    +0.119 C 
BRANCH  19  20
ATOM     20  N   UNL     1      23.929  39.263  50.482  0.00  0.00    -0.302 NA
ATOM     21  C   UNL     1      22.633  39.224  49.667  0.00  0.00    +0.066 C 
ATOM     22  C   UNL     1      22.551  37.932  48.789  0.00  0.00    -0.064 C 
ATOM     23  N   UNL     1      22.663  36.700  49.688  0.00  0.00    +0.379 N 
ATOM     24  C   UNL     1      22.528  35.484  48.873  0.00  0.00    -0.096 C 
ATOM     25  H   UNL     1      21.808  36.724  50.403  0.00  0.00    -0.082 HD
ATOM     26  C   UNL     1      23.947  36.732  50.504  0.00  0.00    -0.064 C 
ATOM     27  C   UNL     1      24.032  38.033  51.350  0.00  0.00    +0.066 C 
ENDBRANCH  19  20
ENDBRANCH  18  19
ENDBRANCH  14  15
ENDBRANCH  12  13
TORSDOF 6
ENDMDL
