MODEL 1
REMARK VINA RESULT:     -11.5      0.000      0.000
REMARK  Name = C:\Users\Docking\Desktop\test protocol\1iep_ligandH.pdb
REMARK  8 active torsions:
REMARK  status: ('A' for Active; 'I' for Inactive)
REMARK    1  A    between atoms: _5  and  _11
REMARK    2  A    between atoms: _19  and  _21
REMARK    3  A    between atoms: _22  and  _66
REMARK    4  A    between atoms: _27  and  _30
REMARK    5  A    between atoms: _32  and  _33
REMARK    6  A    between atoms: _38  and  _43
REMARK    7  A    between atoms: _43  and  _46
REMARK    8  A    between atoms: _53  and  _55
REMARK                            x       y       z     vdW  Elec       q    Type
REMARK                         _______ _______ _______ _____ _____    ______ ____
ROOT
ATOM     10  C   UNL     1     117.314  31.138  79.660  0.00  0.00    +0.038 A 
ATOM     11  C   UNL     1     115.900  31.035  79.618  0.00  0.00    +0.047 A 
ATOM     12  C   UNL     1     115.227  29.783  79.926  0.00  0.00    +0.035 A 
ATOM     32  C   UNL     1     116.025  28.655  80.277  0.00  0.00    +0.024 A 
ATOM     33  C   UNL     1     117.464  28.742  80.325  0.00  0.00    +0.007 A 
ATOM     34  C   UNL     1     118.133  29.974  80.019  0.00  0.00    -0.029 A 
ATOM     35  C   UNL     1     119.678  30.007  80.079  0.00  0.00    +0.045 C 
ENDROOT
BRANCH  10   9
ATOM      4  C   UNL     1     119.288  35.321  80.942  0.00  0.00    +0.077 A 
ATOM      5  C   UNL     1     119.095  35.052  82.338  0.00  0.00    +0.048 A 
ATOM      6  C   UNL     1     118.478  33.828  82.684  0.00  0.00    +0.116 A 
ATOM      7  N   UNL     1     118.087  32.948  81.699  0.00  0.00    -0.223 NA
ATOM      8  C   UNL     1     118.286  33.239  80.362  0.00  0.00    +0.220 A 
ATOM      9  N   UNL     1     117.908  32.365  79.355  0.00  0.00    -0.283 N 
ATOM     36  H   UNL     1     118.065  32.620  78.380  0.00  0.00    +0.155 HD
ATOM     37  N   UNL     1     118.872  34.401  80.006  0.00  0.00    -0.214 NA
BRANCH   4   3
ATOM      1  C   UNL     1     121.208  38.722  80.721  0.00  0.00    +0.020 A 
ATOM      2  C   UNL     1     120.605  37.532  81.277  0.00  0.00    +0.013 A 
ATOM      3  C   UNL     1     119.928  36.569  80.419  0.00  0.00    +0.019 A 
ATOM     38  C   UNL     1     119.879  36.840  78.990  0.00  0.00    +0.120 A 
ATOM     39  N   UNL     1     120.467  37.995  78.483  0.00  0.00    -0.263 NA
ATOM     40  C   UNL     1     121.120  38.930  79.300  0.00  0.00    +0.111 A 
ENDBRANCH   4   3
ENDBRANCH  10   9
BRANCH  12  13
ATOM     13  N   UNL     1     113.795  29.616  79.892  0.00  0.00    -0.281 N 
ATOM     14  C   UNL     1     112.849  30.211  80.710  0.00  0.00    +0.248 C 
ATOM     30  O   UNL     1     113.107  30.815  81.740  0.00  0.00    -0.270 OA
ATOM     31  H   UNL     1     113.436  28.983  79.177  0.00  0.00    +0.155 HD
BRANCH  14  15
ATOM     15  C   UNL     1     111.405  30.107  80.338  0.00  0.00    +0.037 A 
ATOM     16  C   UNL     1     110.992  29.876  78.951  0.00  0.00    +0.013 A 
ATOM     17  C   UNL     1     109.592  29.797  78.617  0.00  0.00    +0.005 A 
ATOM     18  C   UNL     1     108.594  29.947  79.673  0.00  0.00    -0.033 A 
ATOM     28  C   UNL     1     109.031  30.170  81.041  0.00  0.00    +0.005 A 
ATOM     29  C   UNL     1     110.403  30.249  81.372  0.00  0.00    +0.013 A 
BRANCH  18  19
ATOM     19  C   UNL     1     107.078  29.898  79.404  0.00  0.00    +0.119 C 
BRANCH  19  20
ATOM     20  N   UNL     1     106.287  31.123  79.724  0.00  0.00    -0.302 NA
ATOM     21  C   UNL     1     104.809  30.964  79.357  0.00  0.00    +0.066 C 
ATOM     22  C   UNL     1     103.992  32.247  79.719  0.00  0.00    -0.064 C 
ATOM     23  N   UNL     1     104.601  33.455  79.005  0.00  0.00    +0.379 N 
ATOM     24  C   UNL     1     103.800  34.653  79.297  0.00  0.00    -0.096 C 
ATOM     25  H   UNL     1     104.538  33.266  77.908  0.00  0.00    -0.082 HD
ATOM     26  C   UNL     1     106.071  33.618  79.362  0.00  0.00    -0.064 C 
ATOM     27  C   UNL     1     106.869  32.328  79.025  0.00  0.00    +0.066 C 
ENDBRANCH  19  20
ENDBRANCH  18  19
ENDBRANCH  14  15
ENDBRANCH  12  13
TORSDOF 6
ENDMDL
MODEL 2
REMARK VINA RESULT:     -11.3      3.400     12.272
REMARK  Name = C:\Users\Docking\Desktop\test protocol\1iep_ligandH.pdb
REMARK  8 active torsions:
REMARK  status: ('A' for Active; 'I' for Inactive)
REMARK    1  A    between atoms: _5  and  _11
REMARK    2  A    between atoms: _19  and  _21
REMARK    3  A    between atoms: _22  and  _66
REMARK    4  A    between atoms: _27  and  _30
REMARK    5  A    between atoms: _32  and  _33
REMARK    6  A    between atoms: _38  and  _43
REMARK    7  A    between atoms: _43  and  _46
REMARK    8  A    between atoms: _53  and  _55
REMARK                            x       y       z     vdW  Elec       q    Type
REMARK                         _______ _______ _______ _____ _____    ______ ____
ROOT
ATOM     10  C   UNL     1     114.977  28.944  80.338  0.00  0.00    +0.038 A 
ATOM     11  C   UNL     1     115.467  30.240  80.640  0.00  0.00    +0.047 A 
ATOM     12  C   UNL     1     116.531  30.845  79.853  0.00  0.00    +0.035 A 
ATOM     32  C   UNL     1     117.070  30.102  78.763  0.00  0.00    +0.024 A 
ATOM     33  C   UNL     1     116.585  28.782  78.443  0.00  0.00    +0.007 A 
ATOM     34  C   UNL     1     115.538  28.180  79.217  0.00  0.00    -0.029 A 
ATOM     35  C   UNL     1     115.061  26.760  78.833  0.00  0.00    +0.045 C 
ENDROOT
BRANCH  10   9
ATOM      4  C   UNL     1     110.341  28.126  81.271  0.00  0.00    +0.077 A 
ATOM      5  C   UNL     1     109.918  28.842  80.103  0.00  0.00    +0.048 A 
ATOM      6  C   UNL     1     110.925  29.412  79.292  0.00  0.00    +0.116 A 
ATOM      7  N   UNL     1     112.252  29.270  79.633  0.00  0.00    -0.223 NA
ATOM      8  C   UNL     1     112.626  28.574  80.769  0.00  0.00    +0.220 A 
ATOM      9  N   UNL     1     113.955  28.412  81.127  0.00  0.00    -0.283 N 
ATOM     36  H   UNL     1     114.189  27.898  81.976  0.00  0.00    +0.155 HD
ATOM     37  N   UNL     1     111.683  28.022  81.560  0.00  0.00    -0.214 NA
BRANCH   4   3
ATOM      1  C   UNL     1     107.466  27.504  83.851  0.00  0.00    +0.020 A 
ATOM      2  C   UNL     1     108.353  28.191  82.940  0.00  0.00    +0.013 A 
ATOM      3  C   UNL     1     109.396  27.464  82.226  0.00  0.00    +0.019 A 
ATOM     38  C   UNL     1     109.514  26.033  82.457  0.00  0.00    +0.120 A 
ATOM     39  N   UNL     1     108.647  25.399  83.341  0.00  0.00    -0.263 NA
ATOM     40  C   UNL     1     107.641  26.088  84.035  0.00  0.00    +0.111 A 
ENDBRANCH   4   3
ENDBRANCH  10   9
BRANCH  12  13
ATOM     13  N   UNL     1     117.074  32.154  80.117  0.00  0.00    -0.281 N 
ATOM     14  C   UNL     1     118.069  32.497  81.018  0.00  0.00    +0.248 C 
ATOM     30  O   UNL     1     118.496  31.756  81.892  0.00  0.00    -0.270 OA
ATOM     31  H   UNL     1     116.677  32.921  79.574  0.00  0.00    +0.155 HD
BRANCH  14  15
ATOM     15  C   UNL     1     118.665  33.866  80.949  0.00  0.00    +0.037 A 
ATOM     16  C   UNL     1     118.859  34.546  79.665  0.00  0.00    +0.013 A 
ATOM     17  C   UNL     1     119.452  35.859  79.625  0.00  0.00    +0.005 A 
ATOM     18  C   UNL     1     119.856  36.501  80.874  0.00  0.00    -0.033 A 
ATOM     28  C   UNL     1     119.648  35.806  82.133  0.00  0.00    +0.005 A 
ATOM     29  C   UNL     1     119.067  34.518  82.176  0.00  0.00    +0.013 A 
BRANCH  18  19
ATOM     19  C   UNL     1     120.516  37.892  80.923  0.00  0.00    +0.119 C 
BRANCH  19  20
ATOM     20  N   UNL     1     120.539  38.683  79.658  0.00  0.00    -0.302 NA
ATOM     21  C   UNL     1     121.568  38.143  78.661  0.00  0.00    +0.066 C 
ATOM     22  C   UNL     1     121.563  38.970  77.333  0.00  0.00    -0.064 C 
ATOM     23  N   UNL     1     121.836  40.441  77.651  0.00  0.00    +0.379 N 
ATOM     24  C   UNL     1     121.890  41.211  76.399  0.00  0.00    -0.096 C 
ATOM     25  H   UNL     1     122.841  40.502  78.129  0.00  0.00    -0.082 HD
ATOM     26  C   UNL     1     120.819  40.985  78.643  0.00  0.00    -0.064 C 
ATOM     27  C   UNL     1     120.812  40.139  79.947  0.00  0.00    +0.066 C 
ENDBRANCH  19  20
ENDBRANCH  18  19
ENDBRANCH  14  15
ENDBRANCH  12  13
TORSDOF 6
ENDMDL
MODEL 3
REMARK VINA RESULT:     -11.0      6.373     13.514
REMARK  Name = C:\Users\Docking\Desktop\test protocol\1iep_ligandH.pdb
REMARK  8 active torsions:
REMARK  status: ('A' for Active; 'I' for Inactive)
REMARK    1  A    between atoms: _5  and  _11
REMARK    2  A    between atoms: _19  and  _21
REMARK    3  A    between atoms: _22  and  _66
REMARK    4  A    between atoms: _27  and  _30
REMARK    5  A    between atoms: _32  and  _33
REMARK    6  A    between atoms: _38  and  _43
REMARK    7  A    between atoms: _43  and  _46
REMARK    8  A    between atoms: _53  and  _55
REMARK                            x       y       z     vdW  Elec       q    Type
REMARK                         _______ _______ _______ _____ _____    ______ ____
ROOT
ATOM     10  C   UNL     1     118.186  33.396  80.556  0.00  0.00    +0.038 A 
ATOM     11  C   UNL     1     118.747  34.458  79.802  0.00  0.00    +0.047 A 
ATOM     12  C   UNL     1     119.530  35.504  80.443  0.00  0.00    +0.035 A 
ATOM     32  C   UNL     1     119.724  35.434  81.853  0.00  0.00    +0.024 A 
ATOM     33  C   UNL     1     119.160  34.362  82.635  0.00  0.00    +0.007 A 
ATOM     34  C   UNL     1     118.385  33.329  82.009  0.00  0.00    -0.029 A 
ATOM     35  C   UNL     1     117.799  32.207  82.897  0.00  0.00    +0.045 C 
ENDROOT
BRANCH  10   9
ATOM      4  C   UNL     1     117.694  29.016  78.655  0.00  0.00    +0.077 A 
ATOM      5  C   UNL     1     119.040  28.653  78.995  0.00  0.00    +0.048 A 
ATOM      6  C   UNL     1     119.828  29.624  79.652  0.00  0.00    +0.116 A 
ATOM      7  N   UNL     1     119.299  30.863  79.943  0.00  0.00    -0.223 NA
ATOM      8  C   UNL     1     117.998  31.181  79.600  0.00  0.00    +0.220 A 
ATOM      9  N   UNL     1     117.443  32.419  79.889  0.00  0.00    -0.283 N 
ATOM     36  H   UNL     1     116.482  32.617  79.613  0.00  0.00    +0.155 HD
ATOM     37  N   UNL     1     117.225  30.272  78.970  0.00  0.00    -0.214 NA
BRANCH   4   3
ATOM      1  C   UNL     1     115.679  25.837  77.589  0.00  0.00    +0.020 A 
ATOM      2  C   UNL     1     116.620  26.681  78.288  0.00  0.00    +0.013 A 
ATOM      3  C   UNL     1     116.737  28.097  77.962  0.00  0.00    +0.019 A 
ATOM     38  C   UNL     1     115.879  28.632  76.915  0.00  0.00    +0.120 A 
ATOM     39  N   UNL     1     114.983  27.795  76.257  0.00  0.00    -0.263 NA
ATOM     40  C   UNL     1     114.863  26.430  76.562  0.00  0.00    +0.111 A 
ENDBRANCH   4   3
ENDBRANCH  10   9
BRANCH  12  13
ATOM     13  N   UNL     1     120.117  36.611  79.731  0.00  0.00    -0.281 N 
ATOM     14  C   UNL     1     120.059  37.957  80.053  0.00  0.00    +0.248 C 
ATOM     30  O   UNL     1     119.309  38.436  80.890  0.00  0.00    -0.270 OA
ATOM     31  H   UNL     1     120.639  36.374  78.887  0.00  0.00    +0.155 HD
BRANCH  14  15
ATOM     15  C   UNL     1     120.953  38.912  79.329  0.00  0.00    +0.037 A 
ATOM     16  C   UNL     1     121.242  40.242  79.871  0.00  0.00    +0.013 A 
ATOM     17  C   UNL     1     122.095  41.150  79.145  0.00  0.00    +0.005 A 
ATOM     18  C   UNL     1     122.666  40.728  77.868  0.00  0.00    -0.033 A 
ATOM     28  C   UNL     1     122.367  39.401  77.356  0.00  0.00    +0.005 A 
ATOM     29  C   UNL     1     121.531  38.509  78.065  0.00  0.00    +0.013 A 
BRANCH  18  19
ATOM     19  C   UNL     1     123.569  41.639  77.015  0.00  0.00    +0.119 C 
BRANCH  19  20
ATOM     20  N   UNL     1     122.978  42.918  76.520  0.00  0.00    -0.302 NA
ATOM     21  C   UNL     1     123.391  43.221  75.077  0.00  0.00    +0.066 C 
ATOM     22  C   UNL     1     122.746  44.551  74.568  0.00  0.00    -0.064 C 
ATOM     23  N   UNL     1     123.146  45.698  75.498  0.00  0.00    +0.379 N 
ATOM     24  C   UNL     1     122.589  46.959  74.989  0.00  0.00    -0.096 C 
ATOM     25  H   UNL     1     124.257  45.783  75.470  0.00  0.00    -0.082 HD
ATOM     26  C   UNL     1     122.742  45.403  76.936  0.00  0.00    -0.064 C 
ATOM     27  C   UNL     1     123.364  44.065  77.422  0.00  0.00    +0.066 C 
ENDBRANCH  19  20
ENDBRANCH  18  19
ENDBRANCH  14  15
ENDBRANCH  12  13
TORSDOF 6
ENDMDL
MODEL 4
REMARK VINA RESULT:     -10.9      2.024      2.504
REMARK  Name = C:\Users\Docking\Desktop\test protocol\1iep_ligandH.pdb
REMARK  8 active torsions:
REMARK  status: ('A' for Active; 'I' for Inactive)
REMARK    1  A    between atoms: _5  and  _11
REMARK    2  A    between atoms: _19  and  _21
REMARK    3  A    between atoms: _22  and  _66
REMARK    4  A    between atoms: _27  and  _30
REMARK    5  A    between atoms: _32  and  _33
REMARK    6  A    between atoms: _38  and  _43
REMARK    7  A    between atoms: _43  and  _46
REMARK    8  A    between atoms: _53  and  _55
REMARK                            x       y       z     vdW  Elec       q    Type
REMARK                         _______ _______ _______ _____ _____    ______ ____
ROOT
ATOM     10  C   UNL     1     117.958  31.801  79.953  0.00  0.00    +0.038 A 
ATOM     11  C   UNL     1     116.566  31.593  80.133  0.00  0.00    +0.047 A 
ATOM     12  C   UNL     1     116.055  30.335  80.655  0.00  0.00    +0.035 A 
ATOM     32  C   UNL     1     116.990  29.311  80.986  0.00  0.00    +0.024 A 
ATOM     33  C   UNL     1     118.407  29.505  80.808  0.00  0.00    +0.007 A 
ATOM     34  C   UNL     1     118.917  30.743  80.291  0.00  0.00    -0.029 A 
ATOM     35  C   UNL     1     120.446  30.893  80.115  0.00  0.00    +0.045 C 
ENDROOT
BRANCH  10   9
ATOM      4  C   UNL     1     119.573  36.283  80.535  0.00  0.00    +0.077 A 
ATOM      5  C   UNL     1     119.520  36.180  81.964  0.00  0.00    +0.048 A 
ATOM      6  C   UNL     1     119.064  34.959  82.510  0.00  0.00    +0.116 A 
ATOM      7  N   UNL     1     118.692  33.925  81.679  0.00  0.00    -0.223 NA
ATOM      8  C   UNL     1     118.755  34.058  80.304  0.00  0.00    +0.220 A 
ATOM      9  N   UNL     1     118.393  33.028  79.448  0.00  0.00    -0.283 N 
ATOM     36  H   UNL     1     118.446  33.168  78.440  0.00  0.00    +0.155 HD
ATOM     37  N   UNL     1     119.185  35.214  79.758  0.00  0.00    -0.214 NA
BRANCH   4   3
ATOM      1  C   UNL     1     120.522  38.807  77.701  0.00  0.00    +0.020 A 
ATOM      2  C   UNL     1     120.066  37.602  78.354  0.00  0.00    +0.013 A 
ATOM      3  C   UNL     1     120.036  37.507  79.808  0.00  0.00    +0.019 A 
ATOM     38  C   UNL     1     120.477  38.660  80.578  0.00  0.00    +0.120 A 
ATOM     39  N   UNL     1     120.912  39.808  79.923  0.00  0.00    -0.263 NA
ATOM     40  C   UNL     1     120.946  39.909  78.524  0.00  0.00    +0.111 A 
ENDBRANCH   4   3
ENDBRANCH  10   9
BRANCH  12  13
ATOM     13  N   UNL     1     114.653  30.063  80.852  0.00  0.00    -0.281 N 
ATOM     14  C   UNL     1     113.827  29.254  80.089  0.00  0.00    +0.248 C 
ATOM     30  O   UNL     1     114.121  28.806  78.991  0.00  0.00    -0.270 OA
ATOM     31  H   UNL     1     114.216  30.523  81.651  0.00  0.00    +0.155 HD
BRANCH  14  15
ATOM     15  C   UNL     1     112.473  28.902  80.617  0.00  0.00    +0.037 A 
ATOM     16  C   UNL     1     112.009  27.513  80.653  0.00  0.00    +0.013 A 
ATOM     17  C   UNL     1     110.692  27.203  81.151  0.00  0.00    +0.005 A 
ATOM     18  C   UNL     1     109.830  28.286  81.618  0.00  0.00    -0.033 A 
ATOM     28  C   UNL     1     110.318  29.655  81.576  0.00  0.00    +0.005 A 
ATOM     29  C   UNL     1     111.608  29.962  81.088  0.00  0.00    +0.013 A 
BRANCH  18  19
ATOM     19  C   UNL     1     108.403  28.050  82.146  0.00  0.00    +0.119 C 
BRANCH  19  20
ATOM     20  N   UNL     1     107.305  28.854  81.531  0.00  0.00    -0.302 NA
ATOM     21  C   UNL     1     105.992  28.725  82.309  0.00  0.00    +0.066 C 
ATOM     22  C   UNL     1     104.861  29.590  81.665  0.00  0.00    -0.064 C 
ATOM     23  N   UNL     1     104.669  29.171  80.207  0.00  0.00    +0.379 N 
ATOM     24  C   UNL     1     103.567  29.942  79.615  0.00  0.00    -0.096 C 
ATOM     25  H   UNL     1     104.372  28.096  80.200  0.00  0.00    -0.082 HD
ATOM     26  C   UNL     1     105.970  29.294  79.426  0.00  0.00    -0.064 C 
ATOM     27  C   UNL     1     107.096  28.454  80.092  0.00  0.00    +0.066 C 
ENDBRANCH  19  20
ENDBRANCH  18  19
ENDBRANCH  14  15
ENDBRANCH  12  13
TORSDOF 6
ENDMDL
MODEL 5
REMARK VINA RESULT:     -10.8      7.113     12.819
REMARK  Name = C:\Users\Docking\Desktop\test protocol\1iep_ligandH.pdb
REMARK  8 active torsions:
REMARK  status: ('A' for Active; 'I' for Inactive)
REMARK    1  A    between atoms: _5  and  _11
REMARK    2  A    between atoms: _19  and  _21
REMARK    3  A    between atoms: _22  and  _66
REMARK    4  A    between atoms: _27  and  _30
REMARK    5  A    between atoms: _32  and  _33
REMARK    6  A    between atoms: _38  and  _43
REMARK    7  A    between atoms: _43  and  _46
REMARK    8  A    between atoms: _53  and  _55
REMARK                            x       y       z     vdW  Elec       q    Type
REMARK                         _______ _______ _______ _____ _____    ______ ____
ROOT
ATOM     10  C   UNL     1     124.193  41.215  76.081  0.00  0.00    +0.038 A 
ATOM     11  C   UNL     1     123.624  40.558  77.201  0.00  0.00    +0.047 A 
ATOM     12  C   UNL     1     122.958  39.272  77.061  0.00  0.00    +0.035 A 
ATOM     32  C   UNL     1     122.894  38.682  75.765  0.00  0.00    +0.024 A 
ATOM     33  C   UNL     1     123.467  39.337  74.615  0.00  0.00    +0.007 A 
ATOM     34  C   UNL     1     124.122  40.607  74.747  0.00  0.00    -0.029 A 
ATOM     35  C   UNL     1     124.713  41.267  73.479  0.00  0.00    +0.045 C 
ENDROOT
BRANCH  10   9
ATOM      4  C   UNL     1     124.089  45.994  76.522  0.00  0.00    +0.077 A 
ATOM      5  C   UNL     1     122.669  46.040  76.325  0.00  0.00    +0.048 A 
ATOM      6  C   UNL     1     122.003  44.812  76.107  0.00  0.00    +0.116 A 
ATOM      7  N   UNL     1     122.716  43.633  76.089  0.00  0.00    -0.223 NA
ATOM      8  C   UNL     1     124.085  43.624  76.280  0.00  0.00    +0.220 A 
ATOM      9  N   UNL     1     124.820  42.448  76.274  0.00  0.00    -0.283 N 
ATOM     36  H   UNL     1     125.830  42.484  76.411  0.00  0.00    +0.155 HD
ATOM     37  N   UNL     1     124.744  44.783  76.489  0.00  0.00    -0.214 NA
BRANCH   4   3
ATOM      1  C   UNL     1     125.352  49.692  76.685  0.00  0.00    +0.020 A 
ATOM      2  C   UNL     1     124.499  48.555  76.427  0.00  0.00    +0.013 A 
ATOM      3  C   UNL     1     124.932  47.206  76.767  0.00  0.00    +0.019 A 
ATOM     38  C   UNL     1     126.245  47.041  77.374  0.00  0.00    +0.120 A 
ATOM     39  N   UNL     1     127.045  48.154  77.609  0.00  0.00    -0.263 NA
ATOM     40  C   UNL     1     126.639  49.457  77.284  0.00  0.00    +0.111 A 
ENDBRANCH   4   3
ENDBRANCH  10   9
BRANCH  12  13
ATOM     13  N   UNL     1     122.354  38.561  78.161  0.00  0.00    -0.281 N 
ATOM     14  C   UNL     1     121.121  38.790  78.748  0.00  0.00    +0.248 C 
ATOM     30  O   UNL     1     120.437  39.784  78.554  0.00  0.00    -0.270 OA
ATOM     31  H   UNL     1     122.903  37.796  78.554  0.00  0.00    +0.155 HD
BRANCH  14  15
ATOM     15  C   UNL     1     120.574  37.775  79.699  0.00  0.00    +0.037 A 
ATOM     16  C   UNL     1     120.818  37.875  81.140  0.00  0.00    +0.013 A 
ATOM     17  C   UNL     1     120.293  36.873  82.034  0.00  0.00    +0.005 A 
ATOM     18  C   UNL     1     119.518  35.761  81.488  0.00  0.00    -0.033 A 
ATOM     28  C   UNL     1     119.287  35.689  80.055  0.00  0.00    +0.005 A 
ATOM     29  C   UNL     1     119.800  36.669  79.176  0.00  0.00    +0.013 A 
BRANCH  18  19
ATOM     19  C   UNL     1     118.939  34.636  82.365  0.00  0.00    +0.119 C 
BRANCH  19  20
ATOM     20  N   UNL     1     118.473  33.399  81.669  0.00  0.00    -0.302 NA
ATOM     21  C   UNL     1     117.817  32.409  82.636  0.00  0.00    +0.066 C 
ATOM     22  C   UNL     1     117.316  31.130  81.889  0.00  0.00    -0.064 C 
ATOM     23  N   UNL     1     118.490  30.476  81.159  0.00  0.00    +0.379 N 
ATOM     24  C   UNL     1     118.034  29.242  80.503  0.00  0.00    -0.096 C 
ATOM     25  H   UNL     1     119.248  30.192  81.925  0.00  0.00    -0.082 HD
ATOM     26  C   UNL     1     119.150  31.455  80.197  0.00  0.00    -0.064 C 
ATOM     27  C   UNL     1     119.618  32.734  80.945  0.00  0.00    +0.066 C 
ENDBRANCH  19  20
ENDBRANCH  18  19
ENDBRANCH  14  15
ENDBRANCH  12  13
TORSDOF 6
ENDMDL
