MODEL 1
REMARK VINA RESULT:     -11.4      0.000      0.000
REMARK  Name = C:\Users\Docking\Desktop\test protocol\1iep_ligandH.pdb
REMARK  8 active torsions:
REMARK  status: ('A' for Active; 'I' for Inactive)
REMARK    1  A    between atoms: _5  and  _11
REMARK    2  A    between atoms: _19  and  _21
REMARK    3  A    between atoms: _22  and  _66
REMARK    4  A    between atoms: _27  and  _30
REMARK    5  A    between atoms: _32  and  _33
REMARK    6  A    between atoms: _38  and  _43
REMARK    7  A    between atoms: _43  and  _46
REMARK    8  A    between atoms: _53  and  _55
REMARK                            x       y       z     vdW  Elec       q    Type
REMARK                         _______ _______ _______ _____ _____    ______ ____
ROOT
ATOM     10  C   UNL     1      41.325  53.754  17.775  0.00  0.00    +0.038 A 
ATOM     11  C   UNL     1      42.249  52.886  17.137  0.00  0.00    +0.047 A 
ATOM     12  C   UNL     1      43.554  53.362  16.707  0.00  0.00    +0.035 A 
ATOM     32  C   UNL     1      43.888  54.727  16.945  0.00  0.00    +0.024 A 
ATOM     33  C   UNL     1      42.962  55.623  17.591  0.00  0.00    +0.007 A 
ATOM     34  C   UNL     1      41.671  55.160  18.015  0.00  0.00    -0.029 A 
ATOM     35  C   UNL     1      40.715  56.166  18.697  0.00  0.00    +0.045 C 
ENDROOT
BRANCH  10   9
ATOM      4  C   UNL     1      38.304  52.064  21.099  0.00  0.00    +0.077 A 
ATOM      5  C   UNL     1      39.287  52.181  22.137  0.00  0.00    +0.048 A 
ATOM      6  C   UNL     1      40.560  52.674  21.773  0.00  0.00    +0.116 A 
ATOM      7  N   UNL     1      40.819  53.021  20.465  0.00  0.00    -0.223 NA
ATOM      8  C   UNL     1      39.849  52.894  19.488  0.00  0.00    +0.220 A 
ATOM      9  N   UNL     1      40.086  53.244  18.167  0.00  0.00    -0.283 N 
ATOM     36  H   UNL     1      39.346  53.128  17.475  0.00  0.00    +0.155 HD
ATOM     37  N   UNL     1      38.626  52.424  19.810  0.00  0.00    -0.214 NA
BRANCH   4   3
ATOM      1  C   UNL     1      34.990  50.904  22.823  0.00  0.00    +0.020 A 
ATOM      2  C   UNL     1      36.340  51.391  22.657  0.00  0.00    +0.013 A 
ATOM      3  C   UNL     1      36.912  51.563  21.328  0.00  0.00    +0.019 A 
ATOM     38  C   UNL     1      36.084  51.230  20.177  0.00  0.00    +0.120 A 
ATOM     39  N   UNL     1      34.788  50.762  20.368  0.00  0.00    -0.263 NA
ATOM     40  C   UNL     1      34.228  50.591  21.642  0.00  0.00    +0.111 A 
ENDBRANCH   4   3
ENDBRANCH  10   9
BRANCH  12  13
ATOM     13  N   UNL     1      44.530  52.530  16.047  0.00  0.00    -0.281 N 
ATOM     14  C   UNL     1      45.049  51.320  16.479  0.00  0.00    +0.248 C 
ATOM     30  O   UNL     1      44.911  50.872  17.607  0.00  0.00    -0.270 OA
ATOM     31  H   UNL     1      44.880  52.874  15.153  0.00  0.00    +0.155 HD
BRANCH  14  15
ATOM     15  C   UNL     1      45.850  50.496  15.523  0.00  0.00    +0.037 A 
ATOM     16  C   UNL     1      45.850  50.783  14.087  0.00  0.00    +0.013 A 
ATOM     17  C   UNL     1      46.618  49.962  13.185  0.00  0.00    +0.005 A 
ATOM     18  C   UNL     1      47.394  48.845  13.718  0.00  0.00    -0.033 A 
ATOM     28  C   UNL     1      47.380  48.585  15.148  0.00  0.00    +0.005 A 
ATOM     29  C   UNL     1      46.627  49.387  16.035  0.00  0.00    +0.013 A 
BRANCH  18  19
ATOM     19  C   UNL     1      48.225  47.903  12.827  0.00  0.00    +0.119 C 
BRANCH  19  20
ATOM     20  N   UNL     1      47.828  46.463  12.796  0.00  0.00    -0.302 NA
ATOM     21  C   UNL     1      46.326  46.277  13.029  0.00  0.00    +0.066 C 
ATOM     22  C   UNL     1      45.925  44.767  12.971  0.00  0.00    -0.064 C 
ATOM     23  N   UNL     1      46.735  43.986  14.008  0.00  0.00    +0.379 N 
ATOM     24  C   UNL     1      46.318  42.576  13.996  0.00  0.00    -0.096 C 
ATOM     25  H   UNL     1      46.489  44.403  15.012  0.00  0.00    -0.082 HD
ATOM     26  C   UNL     1      48.229  44.169  13.785  0.00  0.00    -0.064 C 
ATOM     27  C   UNL     1      48.613  45.675  13.816  0.00  0.00    +0.066 C 
ENDBRANCH  19  20
ENDBRANCH  18  19
ENDBRANCH  14  15
ENDBRANCH  12  13
TORSDOF 6
ENDMDL
MODEL 2
REMARK VINA RESULT:     -10.7      2.257      2.767
REMARK  Name = C:\Users\Docking\Desktop\test protocol\1iep_ligandH.pdb
REMARK  8 active torsions:
REMARK  status: ('A' for Active; 'I' for Inactive)
REMARK    1  A    between atoms: _5  and  _11
REMARK    2  A    between atoms: _19  and  _21
REMARK    3  A    between atoms: _22  and  _66
REMARK    4  A    between atoms: _27  and  _30
REMARK    5  A    between atoms: _32  and  _33
REMARK    6  A    between atoms: _38  and  _43
REMARK    7  A    between atoms: _43  and  _46
REMARK    8  A    between atoms: _53  and  _55
REMARK                            x       y       z     vdW  Elec       q    Type
REMARK                         _______ _______ _______ _____ _____    ______ ____
ROOT
ATOM     10  C   UNL     1      41.774  53.666  17.606  0.00  0.00    +0.038 A 
ATOM     11  C   UNL     1      42.813  52.781  17.223  0.00  0.00    +0.047 A 
ATOM     12  C   UNL     1      44.113  53.282  16.802  0.00  0.00    +0.035 A 
ATOM     32  C   UNL     1      44.320  54.692  16.786  0.00  0.00    +0.024 A 
ATOM     33  C   UNL     1      43.274  55.607  17.170  0.00  0.00    +0.007 A 
ATOM     34  C   UNL     1      41.989  55.118  17.584  0.00  0.00    -0.029 A 
ATOM     35  C   UNL     1      40.903  56.145  17.980  0.00  0.00    +0.045 C 
ENDROOT
BRANCH  10   9
ATOM      4  C   UNL     1      38.625  52.336  20.975  0.00  0.00    +0.077 A 
ATOM      5  C   UNL     1      39.511  52.715  22.037  0.00  0.00    +0.048 A 
ATOM      6  C   UNL     1      40.771  53.242  21.674  0.00  0.00    +0.116 A 
ATOM      7  N   UNL     1      41.108  53.375  20.345  0.00  0.00    -0.223 NA
ATOM      8  C   UNL     1      40.231  52.998  19.345  0.00  0.00    +0.220 A 
ATOM      9  N   UNL     1      40.546  53.131  18.001  0.00  0.00    -0.283 N 
ATOM     36  H   UNL     1      39.875  52.834  17.294  0.00  0.00    +0.155 HD
ATOM     37  N   UNL     1      39.022  52.491  19.665  0.00  0.00    -0.214 NA
BRANCH   4   3
ATOM      1  C   UNL     1      35.368  51.006  22.686  0.00  0.00    +0.020 A 
ATOM      2  C   UNL     1      36.693  51.559  22.525  0.00  0.00    +0.013 A 
ATOM      3  C   UNL     1      37.258  51.766  21.198  0.00  0.00    +0.019 A 
ATOM     38  C   UNL     1      36.449  51.402  20.044  0.00  0.00    +0.120 A 
ATOM     39  N   UNL     1      35.177  50.870  20.230  0.00  0.00    -0.263 NA
ATOM     40  C   UNL     1      34.624  50.665  21.502  0.00  0.00    +0.111 A 
ENDBRANCH   4   3
ENDBRANCH  10   9
BRANCH  12  13
ATOM     13  N   UNL     1      45.203  52.431  16.395  0.00  0.00    -0.281 N 
ATOM     14  C   UNL     1      45.705  52.242  15.118  0.00  0.00    +0.248 C 
ATOM     30  O   UNL     1      45.150  52.616  14.095  0.00  0.00    -0.270 OA
ATOM     31  H   UNL     1      45.661  51.904  17.139  0.00  0.00    +0.155 HD
BRANCH  14  15
ATOM     15  C   UNL     1      47.003  51.521  14.951  0.00  0.00    +0.037 A 
ATOM     16  C   UNL     1      47.076  50.059  15.029  0.00  0.00    +0.013 A 
ATOM     17  C   UNL     1      48.344  49.390  14.882  0.00  0.00    +0.005 A 
ATOM     18  C   UNL     1      49.550  50.182  14.654  0.00  0.00    -0.033 A 
ATOM     28  C   UNL     1      49.448  51.629  14.575  0.00  0.00    +0.005 A 
ATOM     29  C   UNL     1      48.207  52.290  14.720  0.00  0.00    +0.013 A 
BRANCH  18  19
ATOM     19  C   UNL     1      50.948  49.553  14.506  0.00  0.00    +0.119 C 
BRANCH  19  20
ATOM     20  N   UNL     1      51.070  48.358  13.618  0.00  0.00    -0.302 NA
ATOM     21  C   UNL     1      50.868  47.049  14.386  0.00  0.00    +0.066 C 
ATOM     22  C   UNL     1      50.977  45.810  13.438  0.00  0.00    -0.064 C 
ATOM     23  N   UNL     1      52.338  45.824  12.739  0.00  0.00    +0.379 N 
ATOM     24  C   UNL     1      52.466  44.630  11.891  0.00  0.00    -0.096 C 
ATOM     25  H   UNL     1      53.123  45.765  13.528  0.00  0.00    -0.082 HD
ATOM     26  C   UNL     1      52.548  47.124  11.975  0.00  0.00    -0.064 C 
ATOM     27  C   UNL     1      52.409  48.350  12.921  0.00  0.00    +0.066 C 
ENDBRANCH  19  20
ENDBRANCH  18  19
ENDBRANCH  14  15
ENDBRANCH  12  13
TORSDOF 6
ENDMDL
MODEL 3
REMARK VINA RESULT:     -10.5      1.890      2.799
REMARK  Name = C:\Users\Docking\Desktop\test protocol\1iep_ligandH.pdb
REMARK  8 active torsions:
REMARK  status: ('A' for Active; 'I' for Inactive)
REMARK    1  A    between atoms: _5  and  _11
REMARK    2  A    between atoms: _19  and  _21
REMARK    3  A    between atoms: _22  and  _66
REMARK    4  A    between atoms: _27  and  _30
REMARK    5  A    between atoms: _32  and  _33
REMARK    6  A    between atoms: _38  and  _43
REMARK    7  A    between atoms: _43  and  _46
REMARK    8  A    between atoms: _53  and  _55
REMARK                            x       y       z     vdW  Elec       q    Type
REMARK                         _______ _______ _______ _____ _____    ______ ____
ROOT
ATOM     10  C   UNL     1      41.869  53.885  17.448  0.00  0.00    +0.038 A 
ATOM     11  C   UNL     1      42.742  52.961  16.820  0.00  0.00    +0.047 A 
ATOM     12  C   UNL     1      44.060  53.366  16.356  0.00  0.00    +0.035 A 
ATOM     32  C   UNL     1      44.457  54.721  16.550  0.00  0.00    +0.024 A 
ATOM     33  C   UNL     1      43.581  55.674  17.186  0.00  0.00    +0.007 A 
ATOM     34  C   UNL     1      42.279  55.280  17.644  0.00  0.00    -0.029 A 
ATOM     35  C   UNL     1      41.380  56.346  18.313  0.00  0.00    +0.045 C 
ENDROOT
BRANCH  10   9
ATOM      4  C   UNL     1      38.889  52.224  20.825  0.00  0.00    +0.077 A 
ATOM      5  C   UNL     1      39.925  52.214  21.818  0.00  0.00    +0.048 A 
ATOM      6  C   UNL     1      41.212  52.638  21.417  0.00  0.00    +0.116 A 
ATOM      7  N   UNL     1      41.435  53.039  20.117  0.00  0.00    -0.223 NA
ATOM      8  C   UNL     1      40.415  53.034  19.184  0.00  0.00    +0.220 A 
ATOM      9  N   UNL     1      40.615  53.441  17.874  0.00  0.00    -0.283 N 
ATOM     36  H   UNL     1      39.838  53.416  17.214  0.00  0.00    +0.155 HD
ATOM     37  N   UNL     1      39.177  52.633  19.542  0.00  0.00    -0.214 NA
BRANCH   4   3
ATOM      1  C   UNL     1      35.198  51.018  20.357  0.00  0.00    +0.020 A 
ATOM      2  C   UNL     1      36.552  51.412  20.041  0.00  0.00    +0.013 A 
ATOM      3  C   UNL     1      37.477  51.809  21.096  0.00  0.00    +0.019 A 
ATOM     38  C   UNL     1      36.997  51.796  22.469  0.00  0.00    +0.120 A 
ATOM     39  N   UNL     1      35.687  51.414  22.742  0.00  0.00    -0.263 NA
ATOM     40  C   UNL     1      34.787  51.031  21.736  0.00  0.00    +0.111 A 
ENDBRANCH   4   3
ENDBRANCH  10   9
BRANCH  12  13
ATOM     13  N   UNL     1      44.986  52.474  15.704  0.00  0.00    -0.281 N 
ATOM     14  C   UNL     1      45.417  51.230  16.134  0.00  0.00    +0.248 C 
ATOM     30  O   UNL     1      45.232  50.786  17.258  0.00  0.00    -0.270 OA
ATOM     31  H   UNL     1      45.371  52.800  14.817  0.00  0.00    +0.155 HD
BRANCH  14  15
ATOM     15  C   UNL     1      46.174  50.360  15.184  0.00  0.00    +0.037 A 
ATOM     16  C   UNL     1      46.600  50.856  13.873  0.00  0.00    +0.013 A 
ATOM     17  C   UNL     1      47.315  49.990  12.969  0.00  0.00    +0.005 A 
ATOM     18  C   UNL     1      47.608  48.617  13.374  0.00  0.00    -0.033 A 
ATOM     28  C   UNL     1      47.178  48.152  14.683  0.00  0.00    +0.005 A 
ATOM     29  C   UNL     1      46.477  48.998  15.571  0.00  0.00    +0.013 A 
BRANCH  18  19
ATOM     19  C   UNL     1      48.347  47.617  12.466  0.00  0.00    +0.119 C 
BRANCH  19  20
ATOM     20  N   UNL     1      49.790  47.884  12.186  0.00  0.00    -0.302 NA
ATOM     21  C   UNL     1      50.463  46.709  11.471  0.00  0.00    +0.066 C 
ATOM     22  C   UNL     1      51.966  47.013  11.166  0.00  0.00    -0.064 C 
ATOM     23  N   UNL     1      52.692  47.341  12.472  0.00  0.00    +0.379 N 
ATOM     24  C   UNL     1      54.117  47.571  12.197  0.00  0.00    -0.096 C 
ATOM     25  H   UNL     1      52.615  46.447  13.135  0.00  0.00    -0.082 HD
ATOM     26  C   UNL     1      52.027  48.506  13.191  0.00  0.00    -0.064 C 
ATOM     27  C   UNL     1      50.527  48.205  13.463  0.00  0.00    +0.066 C 
ENDBRANCH  19  20
ENDBRANCH  18  19
ENDBRANCH  14  15
ENDBRANCH  12  13
TORSDOF 6
ENDMDL
MODEL 4
REMARK VINA RESULT:     -10.2      1.588      2.157
REMARK  Name = C:\Users\Docking\Desktop\test protocol\1iep_ligandH.pdb
REMARK  8 active torsions:
REMARK  status: ('A' for Active; 'I' for Inactive)
REMARK    1  A    between atoms: _5  and  _11
REMARK    2  A    between atoms: _19  and  _21
REMARK    3  A    between atoms: _22  and  _66
REMARK    4  A    between atoms: _27  and  _30
REMARK    5  A    between atoms: _32  and  _33
REMARK    6  A    between atoms: _38  and  _43
REMARK    7  A    between atoms: _43  and  _46
REMARK    8  A    between atoms: _53  and  _55
REMARK                            x       y       z     vdW  Elec       q    Type
REMARK                         _______ _______ _______ _____ _____    ______ ____
ROOT
ATOM     10  C   UNL     1      40.662  53.575  18.258  0.00  0.00    +0.038 A 
ATOM     11  C   UNL     1      41.619  52.744  17.623  0.00  0.00    +0.047 A 
ATOM     12  C   UNL     1      42.961  53.226  17.333  0.00  0.00    +0.035 A 
ATOM     32  C   UNL     1      43.294  54.561  17.706  0.00  0.00    +0.024 A 
ATOM     33  C   UNL     1      42.332  55.421  18.350  0.00  0.00    +0.007 A 
ATOM     34  C   UNL     1      41.007  54.951  18.637  0.00  0.00    -0.029 A 
ATOM     35  C   UNL     1      40.015  55.918  19.325  0.00  0.00    +0.045 C 
ENDROOT
BRANCH  10   9
ATOM      4  C   UNL     1      37.368  51.694  21.199  0.00  0.00    +0.077 A 
ATOM      5  C   UNL     1      38.268  51.714  22.316  0.00  0.00    +0.048 A 
ATOM      6  C   UNL     1      39.572  52.209  22.090  0.00  0.00    +0.116 A 
ATOM      7  N   UNL     1      39.937  52.650  20.836  0.00  0.00    -0.223 NA
ATOM      8  C   UNL     1      39.045  52.615  19.780  0.00  0.00    +0.220 A 
ATOM      9  N   UNL     1      39.389  53.061  18.513  0.00  0.00    -0.283 N 
ATOM     36  H   UNL     1      38.704  53.012  17.759  0.00  0.00    +0.155 HD
ATOM     37  N   UNL     1      37.795  52.145  19.970  0.00  0.00    -0.214 NA
BRANCH   4   3
ATOM      1  C   UNL     1      33.773  50.491  20.236  0.00  0.00    +0.020 A 
ATOM      2  C   UNL     1      35.131  50.966  20.103  0.00  0.00    +0.013 A 
ATOM      3  C   UNL     1      35.956  51.203  21.280  0.00  0.00    +0.019 A 
ATOM     38  C   UNL     1      35.373  50.946  22.589  0.00  0.00    +0.120 A 
ATOM     39  N   UNL     1      34.062  50.490  22.686  0.00  0.00    -0.263 NA
ATOM     40  C   UNL     1      33.258  50.260  21.560  0.00  0.00    +0.111 A 
ENDBRANCH   4   3
ENDBRANCH  10   9
BRANCH  12  13
ATOM     13  N   UNL     1      43.972  52.430  16.683  0.00  0.00    -0.281 N 
ATOM     14  C   UNL     1      45.175  52.857  16.145  0.00  0.00    +0.248 C 
ATOM     30  O   UNL     1      45.469  54.027  15.949  0.00  0.00    -0.270 OA
ATOM     31  H   UNL     1      43.778  51.432  16.612  0.00  0.00    +0.155 HD
BRANCH  14  15
ATOM     15  C   UNL     1      46.194  51.835  15.754  0.00  0.00    +0.037 A 
ATOM     16  C   UNL     1      46.046  50.429  16.138  0.00  0.00    +0.013 A 
ATOM     17  C   UNL     1      47.052  49.467  15.763  0.00  0.00    +0.005 A 
ATOM     18  C   UNL     1      48.214  49.908  14.996  0.00  0.00    -0.033 A 
ATOM     28  C   UNL     1      48.333  51.308  14.623  0.00  0.00    +0.005 A 
ATOM     29  C   UNL     1      47.349  52.254  14.990  0.00  0.00    +0.013 A 
BRANCH  18  19
ATOM     19  C   UNL     1      49.346  48.955  14.570  0.00  0.00    +0.119 C 
BRANCH  19  20
ATOM     20  N   UNL     1      48.951  47.604  14.070  0.00  0.00    -0.302 NA
ATOM     21  C   UNL     1      50.144  46.647  13.998  0.00  0.00    +0.066 C 
ATOM     22  C   UNL     1      49.708  45.232  13.495  0.00  0.00    -0.064 C 
ATOM     23  N   UNL     1      49.038  45.365  12.127  0.00  0.00    +0.379 N 
ATOM     24  C   UNL     1      48.679  44.030  11.624  0.00  0.00    -0.096 C 
ATOM     25  H   UNL     1      49.786  45.801  11.425  0.00  0.00    -0.082 HD
ATOM     26  C   UNL     1      47.852  46.318  12.188  0.00  0.00    -0.064 C 
ATOM     27  C   UNL     1      48.290  47.712  12.718  0.00  0.00    +0.066 C 
ENDBRANCH  19  20
ENDBRANCH  18  19
ENDBRANCH  14  15
ENDBRANCH  12  13
TORSDOF 6
ENDMDL
MODEL 5
REMARK VINA RESULT:      -9.9      1.758      2.264
REMARK  Name = C:\Users\Docking\Desktop\test protocol\1iep_ligandH.pdb
REMARK  8 active torsions:
REMARK  status: ('A' for Active; 'I' for Inactive)
REMARK    1  A    between atoms: _5  and  _11
REMARK    2  A    between atoms: _19  and  _21
REMARK    3  A    between atoms: _22  and  _66
REMARK    4  A    between atoms: _27  and  _30
REMARK    5  A    between atoms: _32  and  _33
REMARK    6  A    between atoms: _38  and  _43
REMARK    7  A    between atoms: _43  and  _46
REMARK    8  A    between atoms: _53  and  _55
REMARK                            x       y       z     vdW  Elec       q    Type
REMARK                         _______ _______ _______ _____ _____    ______ ____
ROOT
ATOM     10  C   UNL     1      41.976  53.879  17.393  0.00  0.00    +0.038 A 
ATOM     11  C   UNL     1      42.877  52.948  16.815  0.00  0.00    +0.047 A 
ATOM     12  C   UNL     1      44.194  53.361  16.356  0.00  0.00    +0.035 A 
ATOM     32  C   UNL     1      44.562  54.730  16.503  0.00  0.00    +0.024 A 
ATOM     33  C   UNL     1      43.659  55.690  17.088  0.00  0.00    +0.007 A 
ATOM     34  C   UNL     1      42.357  55.289  17.540  0.00  0.00    -0.029 A 
ATOM     35  C   UNL     1      41.427  56.362  18.153  0.00  0.00    +0.045 C 
ENDROOT
BRANCH  10   9
ATOM      4  C   UNL     1      38.974  52.295  20.786  0.00  0.00    +0.077 A 
ATOM      5  C   UNL     1      39.993  52.345  21.794  0.00  0.00    +0.048 A 
ATOM      6  C   UNL     1      41.278  52.777  21.397  0.00  0.00    +0.116 A 
ATOM      7  N   UNL     1      41.515  53.131  20.087  0.00  0.00    -0.223 NA
ATOM      8  C   UNL     1      40.510  53.069  19.139  0.00  0.00    +0.220 A 
ATOM      9  N   UNL     1      40.724  53.428  17.817  0.00  0.00    -0.283 N 
ATOM     36  H   UNL     1      39.959  53.361  17.146  0.00  0.00    +0.155 HD
ATOM     37  N   UNL     1      39.275  52.659  19.492  0.00  0.00    -0.214 NA
BRANCH   4   3
ATOM      1  C   UNL     1      35.631  51.364  22.593  0.00  0.00    +0.020 A 
ATOM      2  C   UNL     1      36.998  51.788  22.391  0.00  0.00    +0.013 A 
ATOM      3  C   UNL     1      37.565  51.863  21.051  0.00  0.00    +0.019 A 
ATOM     38  C   UNL     1      36.716  51.500  19.926  0.00  0.00    +0.120 A 
ATOM     39  N   UNL     1      35.404  51.095  20.151  0.00  0.00    -0.263 NA
ATOM     40  C   UNL     1      34.848  51.017  21.436  0.00  0.00    +0.111 A 
ENDBRANCH   4   3
ENDBRANCH  10   9
BRANCH  12  13
ATOM     13  N   UNL     1      45.147  52.463  15.753  0.00  0.00    -0.281 N 
ATOM     14  C   UNL     1      45.540  51.212  16.202  0.00  0.00    +0.248 C 
ATOM     30  O   UNL     1      45.287  50.765  17.310  0.00  0.00    -0.270 OA
ATOM     31  H   UNL     1      45.586  52.788  14.892  0.00  0.00    +0.155 HD
BRANCH  14  15
ATOM     15  C   UNL     1      46.342  50.338  15.292  0.00  0.00    +0.037 A 
ATOM     16  C   UNL     1      47.807  50.338  15.335  0.00  0.00    +0.013 A 
ATOM     17  C   UNL     1      48.556  49.498  14.435  0.00  0.00    +0.005 A 
ATOM     18  C   UNL     1      47.842  48.649  13.485  0.00  0.00    -0.033 A 
ATOM     28  C   UNL     1      46.388  48.665  13.468  0.00  0.00    +0.005 A 
ATOM     29  C   UNL     1      45.650  49.488  14.347  0.00  0.00    +0.013 A 
BRANCH  18  19
ATOM     19  C   UNL     1      48.560  47.737  12.473  0.00  0.00    +0.119 C 
BRANCH  19  20
ATOM     20  N   UNL     1      47.830  47.404  11.214  0.00  0.00    -0.302 NA
ATOM     21  C   UNL     1      47.311  45.963  11.214  0.00  0.00    +0.066 C 
ATOM     22  C   UNL     1      46.531  45.639   9.899  0.00  0.00    -0.064 C 
ATOM     23  N   UNL     1      47.441  45.887   8.695  0.00  0.00    +0.379 N 
ATOM     24  C   UNL     1      46.729  45.527   7.460  0.00  0.00    -0.096 C 
ATOM     25  H   UNL     1      48.319  45.206   8.790  0.00  0.00    -0.082 HD
ATOM     26  C   UNL     1      47.963  47.316   8.688  0.00  0.00    -0.064 C 
ATOM     27  C   UNL     1      48.712  47.637  10.012  0.00  0.00    +0.066 C 
ENDBRANCH  19  20
ENDBRANCH  18  19
ENDBRANCH  14  15
ENDBRANCH  12  13
TORSDOF 6
ENDMDL
