MODEL 1
REMARK VINA RESULT:      -8.0      0.000      0.000
REMARK  Name = C:\Users\Docking\Desktop\test protocol\1iep_ligandH.pdb
REMARK  8 active torsions:
REMARK  status: ('A' for Active; 'I' for Inactive)
REMARK    1  A    between atoms: _5  and  _11
REMARK    2  A    between atoms: _19  and  _21
REMARK    3  A    between atoms: _22  and  _66
REMARK    4  A    between atoms: _27  and  _30
REMARK    5  A    between atoms: _32  and  _33
REMARK    6  A    between atoms: _38  and  _43
REMARK    7  A    between atoms: _43  and  _46
REMARK    8  A    between atoms: _53  and  _55
REMARK                            x       y       z     vdW  Elec       q    Type
REMARK                         _______ _______ _______ _____ _____    ______ ____
ROOT
ATOM     10  C   UNL     1     118.649  43.750  50.234  0.00  0.00    +0.038 A 
ATOM     11  C   UNL     1     119.964  43.586  50.739  0.00  0.00    +0.047 A 
ATOM     12  C   UNL     1     120.904  42.672  50.109  0.00  0.00    +0.035 A 
ATOM     32  C   UNL     1     120.471  41.942  48.963  0.00  0.00    +0.024 A 
ATOM     33  C   UNL     1     119.138  42.095  48.437  0.00  0.00    +0.007 A 
ATOM     34  C   UNL     1     118.205  42.994  49.056  0.00  0.00    -0.029 A 
ATOM     35  C   UNL     1     116.786  43.114  48.453  0.00  0.00    +0.045 C 
ENDROOT
BRANCH  10   9
ATOM      4  C   UNL     1     116.655  48.085  50.748  0.00  0.00    +0.077 A 
ATOM      5  C   UNL     1     117.412  48.628  49.657  0.00  0.00    +0.048 A 
ATOM      6  C   UNL     1     118.309  47.760  48.994  0.00  0.00    +0.116 A 
ATOM      7  N   UNL     1     118.431  46.449  49.401  0.00  0.00    -0.223 NA
ATOM      8  C   UNL     1     117.687  45.958  50.458  0.00  0.00    +0.220 A 
ATOM      9  N   UNL     1     117.788  44.641  50.879  0.00  0.00    -0.283 N 
ATOM     36  H   UNL     1     117.227  44.319  51.667  0.00  0.00    +0.155 HD
ATOM     37  N   UNL     1     116.825  46.767  51.108  0.00  0.00    -0.214 NA
BRANCH   4   3
ATOM      1  C   UNL     1     114.640  51.048  52.317  0.00  0.00    +0.020 A 
ATOM      2  C   UNL     1     115.618  50.333  51.530  0.00  0.00    +0.013 A 
ATOM      3  C   UNL     1     115.664  48.876  51.544  0.00  0.00    +0.019 A 
ATOM     38  C   UNL     1     114.699  48.168  52.372  0.00  0.00    +0.120 A 
ATOM     39  N   UNL     1     113.770  48.884  53.121  0.00  0.00    -0.263 NA
ATOM     40  C   UNL     1     113.718  50.286  53.116  0.00  0.00    +0.111 A 
ENDBRANCH   4   3
ENDBRANCH  10   9
BRANCH  12  13
ATOM     13  N   UNL     1     122.249  42.458  50.582  0.00  0.00    -0.281 N 
ATOM     14  C   UNL     1     123.423  42.996  50.081  0.00  0.00    +0.248 C 
ATOM     30  O   UNL     1     123.515  43.578  49.011  0.00  0.00    -0.270 OA
ATOM     31  H   UNL     1     122.347  41.834  51.383  0.00  0.00    +0.155 HD
BRANCH  14  15
ATOM     15  C   UNL     1     124.680  42.854  50.878  0.00  0.00    +0.037 A 
ATOM     16  C   UNL     1     125.529  44.011  51.170  0.00  0.00    +0.013 A 
ATOM     17  C   UNL     1     126.745  43.843  51.926  0.00  0.00    +0.005 A 
ATOM     18  C   UNL     1     127.117  42.512  52.398  0.00  0.00    -0.033 A 
ATOM     28  C   UNL     1     126.253  41.382  52.099  0.00  0.00    +0.005 A 
ATOM     29  C   UNL     1     125.061  41.542  51.357  0.00  0.00    +0.013 A 
BRANCH  18  19
ATOM     19  C   UNL     1     128.407  42.236  53.193  0.00  0.00    +0.119 C 
BRANCH  19  20
ATOM     20  N   UNL     1     129.695  42.265  52.439  0.00  0.00    -0.302 NA
ATOM     21  C   UNL     1     129.623  41.445  51.148  0.00  0.00    +0.066 C 
ATOM     22  C   UNL     1     130.972  41.504  50.359  0.00  0.00    -0.064 C 
ATOM     23  N   UNL     1     132.105  41.004  51.256  0.00  0.00    +0.379 N 
ATOM     24  C   UNL     1     133.366  41.003  50.499  0.00  0.00    -0.096 C 
ATOM     25  H   UNL     1     131.877  39.948  51.533  0.00  0.00    -0.082 HD
ATOM     26  C   UNL     1     132.183  41.812  52.543  0.00  0.00    -0.064 C 
ATOM     27  C   UNL     1     130.828  41.771  53.304  0.00  0.00    +0.066 C 
ENDBRANCH  19  20
ENDBRANCH  18  19
ENDBRANCH  14  15
ENDBRANCH  12  13
TORSDOF 6
ENDMDL
MODEL 2
REMARK VINA RESULT:      -7.8      1.730      2.691
REMARK  Name = C:\Users\Docking\Desktop\test protocol\1iep_ligandH.pdb
REMARK  8 active torsions:
REMARK  status: ('A' for Active; 'I' for Inactive)
REMARK    1  A    between atoms: _5  and  _11
REMARK    2  A    between atoms: _19  and  _21
REMARK    3  A    between atoms: _22  and  _66
REMARK    4  A    between atoms: _27  and  _30
REMARK    5  A    between atoms: _32  and  _33
REMARK    6  A    between atoms: _38  and  _43
REMARK    7  A    between atoms: _43  and  _46
REMARK    8  A    between atoms: _53  and  _55
REMARK                            x       y       z     vdW  Elec       q    Type
REMARK                         _______ _______ _______ _____ _____    ______ ____
ROOT
ATOM     10  C   UNL     1     118.389  43.600  50.613  0.00  0.00    +0.038 A 
ATOM     11  C   UNL     1     119.756  43.477  50.972  0.00  0.00    +0.047 A 
ATOM     12  C   UNL     1     120.570  42.381  50.470  0.00  0.00    +0.035 A 
ATOM     32  C   UNL     1     119.961  41.430  49.601  0.00  0.00    +0.024 A 
ATOM     33  C   UNL     1     118.573  41.539  49.226  0.00  0.00    +0.007 A 
ATOM     34  C   UNL     1     117.764  42.616  49.721  0.00  0.00    -0.029 A 
ATOM     35  C   UNL     1     116.280  42.680  49.291  0.00  0.00    +0.045 C 
ENDROOT
BRANCH  10   9
ATOM      4  C   UNL     1     116.878  48.153  50.459  0.00  0.00    +0.077 A 
ATOM      5  C   UNL     1     117.638  48.427  49.273  0.00  0.00    +0.048 A 
ATOM      6  C   UNL     1     118.411  47.371  48.739  0.00  0.00    +0.116 A 
ATOM      7  N   UNL     1     118.415  46.137  49.353  0.00  0.00    -0.223 NA
ATOM      8  C   UNL     1     117.671  45.907  50.496  0.00  0.00    +0.220 A 
ATOM      9  N   UNL     1     117.654  44.672  51.125  0.00  0.00    -0.283 N 
ATOM     36  H   UNL     1     117.099  44.544  51.970  0.00  0.00    +0.155 HD
ATOM     37  N   UNL     1     116.927  46.899  51.026  0.00  0.00    -0.214 NA
BRANCH   4   3
ATOM      1  C   UNL     1     113.764  50.076  51.838  0.00  0.00    +0.020 A 
ATOM      2  C   UNL     1     114.556  49.072  51.166  0.00  0.00    +0.013 A 
ATOM      3  C   UNL     1     116.010  49.165  51.140  0.00  0.00    +0.019 A 
ATOM     38  C   UNL     1     116.637  50.293  51.811  0.00  0.00    +0.120 A 
ATOM     39  N   UNL     1     115.848  51.245  52.450  0.00  0.00    -0.263 NA
ATOM     40  C   UNL     1     114.448  51.168  52.479  0.00  0.00    +0.111 A 
ENDBRANCH   4   3
ENDBRANCH  10   9
BRANCH  12  13
ATOM     13  N   UNL     1     121.961  42.200  50.806  0.00  0.00    -0.281 N 
ATOM     14  C   UNL     1     123.065  42.787  50.209  0.00  0.00    +0.248 C 
ATOM     30  O   UNL     1     123.036  43.395  49.150  0.00  0.00    -0.270 OA
ATOM     31  H   UNL     1     122.155  41.563  51.578  0.00  0.00    +0.155 HD
BRANCH  14  15
ATOM     15  C   UNL     1     124.396  42.667  50.878  0.00  0.00    +0.037 A 
ATOM     16  C   UNL     1     124.949  41.361  51.242  0.00  0.00    +0.013 A 
ATOM     17  C   UNL     1     126.228  41.275  51.902  0.00  0.00    +0.005 A 
ATOM     18  C   UNL     1     126.963  42.501  52.202  0.00  0.00    -0.033 A 
ATOM     28  C   UNL     1     126.393  43.784  51.825  0.00  0.00    +0.005 A 
ATOM     29  C   UNL     1     125.139  43.872  51.179  0.00  0.00    +0.013 A 
BRANCH  18  19
ATOM     19  C   UNL     1     128.324  42.506  52.922  0.00  0.00    +0.119 C 
BRANCH  19  20
ATOM     20  N   UNL     1     128.471  41.614  54.111  0.00  0.00    -0.302 NA
ATOM     21  C   UNL     1     127.550  42.032  55.261  0.00  0.00    +0.066 C 
ATOM     22  C   UNL     1     127.701  41.074  56.487  0.00  0.00    -0.064 C 
ATOM     23  N   UNL     1     129.162  41.058  56.942  0.00  0.00    +0.379 N 
ATOM     24  C   UNL     1     129.296  40.204  58.131  0.00  0.00    -0.096 C 
ATOM     25  H   UNL     1     129.434  42.097  57.239  0.00  0.00    -0.082 HD
ATOM     26  C   UNL     1     130.085  40.646  55.804  0.00  0.00    -0.064 C 
ATOM     27  C   UNL     1     129.906  41.586  54.579  0.00  0.00    +0.066 C 
ENDBRANCH  19  20
ENDBRANCH  18  19
ENDBRANCH  14  15
ENDBRANCH  12  13
TORSDOF 6
ENDMDL
MODEL 3
REMARK VINA RESULT:      -7.4     25.892     28.159
REMARK  Name = C:\Users\Docking\Desktop\test protocol\1iep_ligandH.pdb
REMARK  8 active torsions:
REMARK  status: ('A' for Active; 'I' for Inactive)
REMARK    1  A    between atoms: _5  and  _11
REMARK    2  A    between atoms: _19  and  _21
REMARK    3  A    between atoms: _22  and  _66
REMARK    4  A    between atoms: _27  and  _30
REMARK    5  A    between atoms: _32  and  _33
REMARK    6  A    between atoms: _38  and  _43
REMARK    7  A    between atoms: _43  and  _46
REMARK    8  A    between atoms: _53  and  _55
REMARK                            x       y       z     vdW  Elec       q    Type
REMARK                         _______ _______ _______ _____ _____    ______ ____
ROOT
ATOM     10  C   UNL     1     115.807  71.404  55.116  0.00  0.00    +0.038 A 
ATOM     11  C   UNL     1     115.738  71.198  53.715  0.00  0.00    +0.047 A 
ATOM     12  C   UNL     1     116.899  71.411  52.865  0.00  0.00    +0.035 A 
ATOM     32  C   UNL     1     118.116  71.832  53.477  0.00  0.00    +0.024 A 
ATOM     33  C   UNL     1     118.203  72.047  54.900  0.00  0.00    +0.007 A 
ATOM     34  C   UNL     1     117.060  71.841  55.743  0.00  0.00    -0.029 A 
ATOM     35  C   UNL     1     117.209  72.093  57.261  0.00  0.00    +0.045 C 
ENDROOT
BRANCH  10   9
ATOM      4  C   UNL     1     112.873  68.548  57.621  0.00  0.00    +0.077 A 
ATOM      5  C   UNL     1     113.676  67.390  57.355  0.00  0.00    +0.048 A 
ATOM      6  C   UNL     1     114.833  67.571  56.563  0.00  0.00    +0.116 A 
ATOM      7  N   UNL     1     115.152  68.821  56.080  0.00  0.00    -0.223 NA
ATOM      8  C   UNL     1     114.354  69.917  56.354  0.00  0.00    +0.220 A 
ATOM      9  N   UNL     1     114.661  71.185  55.884  0.00  0.00    -0.283 N 
ATOM     36  H   UNL     1     114.043  71.966  56.102  0.00  0.00    +0.155 HD
ATOM     37  N   UNL     1     113.244  69.770  57.106  0.00  0.00    -0.214 NA
BRANCH   4   3
ATOM      1  C   UNL     1     109.684  67.319  59.524  0.00  0.00    +0.020 A 
ATOM      2  C   UNL     1     110.886  67.293  58.722  0.00  0.00    +0.013 A 
ATOM      3  C   UNL     1     111.623  68.519  58.444  0.00  0.00    +0.019 A 
ATOM     38  C   UNL     1     111.113  69.765  58.997  0.00  0.00    +0.120 A 
ATOM     39  N   UNL     1     109.952  69.760  59.763  0.00  0.00    -0.263 NA
ATOM     40  C   UNL     1     109.234  68.586  60.036  0.00  0.00    +0.111 A 
ENDBRANCH   4   3
ENDBRANCH  10   9
BRANCH  12  13
ATOM     13  N   UNL     1     116.888  71.226  51.435  0.00  0.00    -0.281 N 
ATOM     14  C   UNL     1     116.949  70.035  50.731  0.00  0.00    +0.248 C 
ATOM     30  O   UNL     1     117.241  68.955  51.223  0.00  0.00    -0.270 OA
ATOM     31  H   UNL     1     116.826  72.076  50.875  0.00  0.00    +0.155 HD
BRANCH  14  15
ATOM     15  C   UNL     1     116.659  70.048  49.264  0.00  0.00    +0.037 A 
ATOM     16  C   UNL     1     116.617  68.807  48.487  0.00  0.00    +0.013 A 
ATOM     17  C   UNL     1     116.352  68.849  47.071  0.00  0.00    +0.005 A 
ATOM     18  C   UNL     1     116.126  70.138  46.423  0.00  0.00    -0.033 A 
ATOM     28  C   UNL     1     116.169  71.354  47.219  0.00  0.00    +0.005 A 
ATOM     29  C   UNL     1     116.429  71.316  48.607  0.00  0.00    +0.013 A 
BRANCH  18  19
ATOM     19  C   UNL     1     115.857  70.280  44.913  0.00  0.00    +0.119 C 
BRANCH  19  20
ATOM     20  N   UNL     1     114.464  70.024  44.439  0.00  0.00    -0.302 NA
ATOM     21  C   UNL     1     113.443  70.918  45.149  0.00  0.00    +0.066 C 
ATOM     22  C   UNL     1     111.994  70.653  44.626  0.00  0.00    -0.064 C 
ATOM     23  N   UNL     1     111.647  69.176  44.818  0.00  0.00    +0.379 N 
ATOM     24  C   UNL     1     110.264  68.936  44.380  0.00  0.00    -0.096 C 
ATOM     25  H   UNL     1     111.699  68.956  45.910  0.00  0.00    -0.082 HD
ATOM     26  C   UNL     1     112.659  68.280  44.118  0.00  0.00    -0.064 C 
ATOM     27  C   UNL     1     114.099  68.572  44.624  0.00  0.00    +0.066 C 
ENDBRANCH  19  20
ENDBRANCH  18  19
ENDBRANCH  14  15
ENDBRANCH  12  13
TORSDOF 6
ENDMDL
MODEL 4
REMARK VINA RESULT:      -7.3      1.410      2.020
REMARK  Name = C:\Users\Docking\Desktop\test protocol\1iep_ligandH.pdb
REMARK  8 active torsions:
REMARK  status: ('A' for Active; 'I' for Inactive)
REMARK    1  A    between atoms: _5  and  _11
REMARK    2  A    between atoms: _19  and  _21
REMARK    3  A    between atoms: _22  and  _66
REMARK    4  A    between atoms: _27  and  _30
REMARK    5  A    between atoms: _32  and  _33
REMARK    6  A    between atoms: _38  and  _43
REMARK    7  A    between atoms: _43  and  _46
REMARK    8  A    between atoms: _53  and  _55
REMARK                            x       y       z     vdW  Elec       q    Type
REMARK                         _______ _______ _______ _____ _____    ______ ____
ROOT
ATOM     10  C   UNL     1     119.472  42.501  50.798  0.00  0.00    +0.038 A 
ATOM     11  C   UNL     1     120.875  42.554  51.001  0.00  0.00    +0.047 A 
ATOM     12  C   UNL     1     121.744  41.485  50.535  0.00  0.00    +0.035 A 
ATOM     32  C   UNL     1     121.151  40.378  49.861  0.00  0.00    +0.024 A 
ATOM     33  C   UNL     1     119.727  40.306  49.647  0.00  0.00    +0.007 A 
ATOM     34  C   UNL     1     118.864  41.357  50.107  0.00  0.00    -0.029 A 
ATOM     35  C   UNL     1     117.344  41.224  49.855  0.00  0.00    +0.045 C 
ENDROOT
BRANCH  10   9
ATOM      4  C   UNL     1     117.325  46.756  50.234  0.00  0.00    +0.077 A 
ATOM      5  C   UNL     1     117.837  46.905  48.903  0.00  0.00    +0.048 A 
ATOM      6  C   UNL     1     118.655  45.867  48.402  0.00  0.00    +0.116 A 
ATOM      7  N   UNL     1     118.933  44.767  49.184  0.00  0.00    -0.223 NA
ATOM      8  C   UNL     1     118.424  44.656  50.465  0.00  0.00    +0.220 A 
ATOM      9  N   UNL     1     118.685  43.555  51.267  0.00  0.00    -0.283 N 
ATOM     36  H   UNL     1     118.296  43.513  52.209  0.00  0.00    +0.155 HD
ATOM     37  N   UNL     1     117.642  45.634  50.967  0.00  0.00    -0.214 NA
BRANCH   4   3
ATOM      1  C   UNL     1     115.405  48.826  52.941  0.00  0.00    +0.020 A 
ATOM      2  C   UNL     1     116.267  47.831  52.347  0.00  0.00    +0.013 A 
ATOM      3  C   UNL     1     116.444  47.766  50.902  0.00  0.00    +0.019 A 
ATOM     38  C   UNL     1     115.728  48.730  50.080  0.00  0.00    +0.120 A 
ATOM     39  N   UNL     1     114.903  49.676  50.680  0.00  0.00    -0.263 NA
ATOM     40  C   UNL     1     114.724  49.748  52.070  0.00  0.00    +0.111 A 
ENDBRANCH   4   3
ENDBRANCH  10   9
BRANCH  12  13
ATOM     13  N   UNL     1     123.174  41.481  50.720  0.00  0.00    -0.281 N 
ATOM     14  C   UNL     1     124.103  42.369  50.202  0.00  0.00    +0.248 C 
ATOM     30  O   UNL     1     123.865  43.182  49.321  0.00  0.00    -0.270 OA
ATOM     31  H   UNL     1     123.547  40.732  51.304  0.00  0.00    +0.155 HD
BRANCH  14  15
ATOM     15  C   UNL     1     125.501  42.340  50.728  0.00  0.00    +0.037 A 
ATOM     16  C   UNL     1     126.355  41.163  50.551  0.00  0.00    +0.013 A 
ATOM     17  C   UNL     1     127.695  41.155  51.083  0.00  0.00    +0.005 A 
ATOM     18  C   UNL     1     128.189  42.330  51.797  0.00  0.00    -0.033 A 
ATOM     28  C   UNL     1     127.322  43.486  51.954  0.00  0.00    +0.005 A 
ATOM     29  C   UNL     1     126.008  43.497  51.434  0.00  0.00    +0.013 A 
BRANCH  18  19
ATOM     19  C   UNL     1     129.597  42.401  52.417  0.00  0.00    +0.119 C 
BRANCH  19  20
ATOM     20  N   UNL     1     130.621  41.445  51.899  0.00  0.00    -0.302 NA
ATOM     21  C   UNL     1     131.720  41.166  52.929  0.00  0.00    +0.066 C 
ATOM     22  C   UNL     1     132.770  40.148  52.379  0.00  0.00    -0.064 C 
ATOM     23  N   UNL     1     133.370  40.689  51.080  0.00  0.00    +0.379 N 
ATOM     24  C   UNL     1     134.400  39.761  50.591  0.00  0.00    -0.096 C 
ATOM     25  H   UNL     1     133.872  41.657  51.317  0.00  0.00    -0.082 HD
ATOM     26  C   UNL     1     132.285  40.972  50.051  0.00  0.00    -0.064 C 
ATOM     27  C   UNL     1     131.230  41.963  50.619  0.00  0.00    +0.066 C 
ENDBRANCH  19  20
ENDBRANCH  18  19
ENDBRANCH  14  15
ENDBRANCH  12  13
TORSDOF 6
ENDMDL
MODEL 5
REMARK VINA RESULT:      -7.1     26.268     28.080
REMARK  Name = C:\Users\Docking\Desktop\test protocol\1iep_ligandH.pdb
REMARK  8 active torsions:
REMARK  status: ('A' for Active; 'I' for Inactive)
REMARK    1  A    between atoms: _5  and  _11
REMARK    2  A    between atoms: _19  and  _21
REMARK    3  A    between atoms: _22  and  _66
REMARK    4  A    between atoms: _27  and  _30
REMARK    5  A    between atoms: _32  and  _33
REMARK    6  A    between atoms: _38  and  _43
REMARK    7  A    between atoms: _43  and  _46
REMARK    8  A    between atoms: _53  and  _55
REMARK                            x       y       z     vdW  Elec       q    Type
REMARK                         _______ _______ _______ _____ _____    ______ ____
ROOT
ATOM     10  C   UNL     1     132.111  72.215  50.132  0.00  0.00    +0.038 A 
ATOM     11  C   UNL     1     132.030  70.929  49.541  0.00  0.00    +0.047 A 
ATOM     12  C   UNL     1     132.977  70.509  48.520  0.00  0.00    +0.035 A 
ATOM     32  C   UNL     1     133.997  71.424  48.127  0.00  0.00    +0.024 A 
ATOM     33  C   UNL     1     134.094  72.736  48.717  0.00  0.00    +0.007 A 
ATOM     34  C   UNL     1     133.160  73.157  49.723  0.00  0.00    -0.029 A 
ATOM     35  C   UNL     1     133.308  74.577  50.316  0.00  0.00    +0.045 C 
ENDROOT
BRANCH  10   9
ATOM      4  C   UNL     1     128.047  74.358  51.522  0.00  0.00    +0.077 A 
ATOM      5  C   UNL     1     127.779  74.841  50.198  0.00  0.00    +0.048 A 
ATOM      6  C   UNL     1     128.716  74.522  49.189  0.00  0.00    +0.116 A 
ATOM      7  N   UNL     1     129.833  73.775  49.493  0.00  0.00    -0.223 NA
ATOM      8  C   UNL     1     130.062  73.326  50.781  0.00  0.00    +0.220 A 
ATOM      9  N   UNL     1     131.175  72.567  51.107  0.00  0.00    -0.283 N 
ATOM     36  H   UNL     1     131.312  72.261  52.071  0.00  0.00    +0.155 HD
ATOM     37  N   UNL     1     129.183  73.618  51.762  0.00  0.00    -0.214 NA
BRANCH   4   3
ATOM      1  C   UNL     1     124.897  74.591  53.829  0.00  0.00    +0.020 A 
ATOM      2  C   UNL     1     125.719  74.331  52.670  0.00  0.00    +0.013 A 
ATOM      3  C   UNL     1     127.150  74.609  52.693  0.00  0.00    +0.019 A 
ATOM     38  C   UNL     1     127.722  75.153  53.915  0.00  0.00    +0.120 A 
ATOM     39  N   UNL     1     126.905  75.395  55.016  0.00  0.00    -0.263 NA
ATOM     40  C   UNL     1     125.527  75.133  55.004  0.00  0.00    +0.111 A 
ENDBRANCH   4   3
ENDBRANCH  10   9
BRANCH  12  13
ATOM     13  N   UNL     1     132.940  69.218  47.878  0.00  0.00    -0.281 N 
ATOM     14  C   UNL     1     132.182  68.833  46.784  0.00  0.00    +0.248 C 
ATOM     30  O   UNL     1     131.257  69.483  46.320  0.00  0.00    -0.270 OA
ATOM     31  H   UNL     1     133.545  68.501  48.279  0.00  0.00    +0.155 HD
BRANCH  14  15
ATOM     15  C   UNL     1     132.487  67.530  46.118  0.00  0.00    +0.037 A 
ATOM     16  C   UNL     1     132.428  66.266  46.857  0.00  0.00    +0.013 A 
ATOM     17  C   UNL     1     132.743  65.026  46.194  0.00  0.00    +0.005 A 
ATOM     18  C   UNL     1     133.119  65.043  44.782  0.00  0.00    -0.033 A 
ATOM     28  C   UNL     1     133.163  66.310  44.072  0.00  0.00    +0.005 A 
ATOM     29  C   UNL     1     132.856  67.528  44.718  0.00  0.00    +0.013 A 
BRANCH  18  19
ATOM     19  C   UNL     1     133.491  63.770  44.000  0.00  0.00    +0.119 C 
BRANCH  19  20
ATOM     20  N   UNL     1     134.257  63.946  42.731  0.00  0.00    -0.302 NA
ATOM     21  C   UNL     1     133.437  63.538  41.504  0.00  0.00    +0.066 C 
ATOM     22  C   UNL     1     134.245  63.750  40.182  0.00  0.00    -0.064 C 
ATOM     23  N   UNL     1     135.550  62.954  40.252  0.00  0.00    +0.379 N 
ATOM     24  C   UNL     1     136.285  63.106  38.988  0.00  0.00    -0.096 C 
ATOM     25  H   UNL     1     135.283  61.878  40.361  0.00  0.00    -0.082 HD
ATOM     26  C   UNL     1     136.370  63.353  41.470  0.00  0.00    -0.064 C 
ATOM     27  C   UNL     1     135.547  63.166  42.776  0.00  0.00    +0.066 C 
ENDBRANCH  19  20
ENDBRANCH  18  19
ENDBRANCH  14  15
ENDBRANCH  12  13
TORSDOF 6
ENDMDL
