MODEL 1
REMARK VINA RESULT:      -7.4      0.000      0.000
REMARK  Name = C:\Users\Docking\Desktop\test protocol\1iep_ligandH.pdb
REMARK  8 active torsions:
REMARK  status: ('A' for Active; 'I' for Inactive)
REMARK    1  A    between atoms: _5  and  _11
REMARK    2  A    between atoms: _19  and  _21
REMARK    3  A    between atoms: _22  and  _66
REMARK    4  A    between atoms: _27  and  _30
REMARK    5  A    between atoms: _32  and  _33
REMARK    6  A    between atoms: _38  and  _43
REMARK    7  A    between atoms: _43  and  _46
REMARK    8  A    between atoms: _53  and  _55
REMARK                            x       y       z     vdW  Elec       q    Type
REMARK                         _______ _______ _______ _____ _____    ______ ____
ROOT
ATOM     10  C   UNL     1       1.026 -32.710  14.832  0.00  0.00    +0.038 A 
ATOM     11  C   UNL     1      -0.142 -32.441  14.073  0.00  0.00    +0.047 A 
ATOM     12  C   UNL     1      -1.345 -33.242  14.233  0.00  0.00    +0.035 A 
ATOM     32  C   UNL     1      -1.326 -34.308  15.178  0.00  0.00    +0.024 A 
ATOM     33  C   UNL     1      -0.148 -34.597  15.958  0.00  0.00    +0.007 A 
ATOM     34  C   UNL     1       1.043 -33.812  15.802  0.00  0.00    -0.029 A 
ATOM     35  C   UNL     1       2.279 -34.171  16.659  0.00  0.00    +0.045 C 
ENDROOT
BRANCH  10   9
ATOM      4  C   UNL     1       3.519 -28.669  15.531  0.00  0.00    +0.077 A 
ATOM      5  C   UNL     1       2.475 -28.094  16.330  0.00  0.00    +0.048 A 
ATOM      6  C   UNL     1       1.310 -28.867  16.531  0.00  0.00    +0.116 A 
ATOM      7  N   UNL     1       1.207 -30.122  15.970  0.00  0.00    -0.223 NA
ATOM      8  C   UNL     1       2.232 -30.647  15.204  0.00  0.00    +0.220 A 
ATOM      9  N   UNL     1       2.153 -31.910  14.637  0.00  0.00    -0.283 N 
ATOM     36  H   UNL     1       2.928 -32.258  14.072  0.00  0.00    +0.155 HD
ATOM     37  N   UNL     1       3.354 -29.927  14.996  0.00  0.00    -0.214 NA
BRANCH   4   3
ATOM      1  C   UNL     1       7.014 -27.780  14.017  0.00  0.00    +0.020 A 
ATOM      2  C   UNL     1       5.780 -28.488  14.270  0.00  0.00    +0.013 A 
ATOM      3  C   UNL     1       4.812 -27.976  15.231  0.00  0.00    +0.019 A 
ATOM     38  C   UNL     1       5.124 -26.736  15.924  0.00  0.00    +0.120 A 
ATOM     39  N   UNL     1       6.321 -26.077  15.661  0.00  0.00    -0.263 NA
ATOM     40  C   UNL     1       7.261 -26.561  14.739  0.00  0.00    +0.111 A 
ENDBRANCH   4   3
ENDBRANCH  10   9
BRANCH  12  13
ATOM     13  N   UNL     1      -2.557 -33.020  13.484  0.00  0.00    -0.281 N 
ATOM     14  C   UNL     1      -3.669 -32.285  13.862  0.00  0.00    +0.248 C 
ATOM     30  O   UNL     1      -3.877 -31.880  14.996  0.00  0.00    -0.270 OA
ATOM     31  H   UNL     1      -2.601 -33.459  12.564  0.00  0.00    +0.155 HD
BRANCH  14  15
ATOM     15  C   UNL     1      -4.706 -31.965  12.834  0.00  0.00    +0.037 A 
ATOM     16  C   UNL     1      -4.687 -32.598  11.513  0.00  0.00    +0.013 A 
ATOM     17  C   UNL     1      -5.690 -32.259  10.534  0.00  0.00    +0.005 A 
ATOM     18  C   UNL     1      -6.722 -31.283  10.874  0.00  0.00    -0.033 A 
ATOM     28  C   UNL     1      -6.720 -30.675  12.194  0.00  0.00    +0.005 A 
ATOM     29  C   UNL     1      -5.739 -31.003  13.156  0.00  0.00    +0.013 A 
BRANCH  18  19
ATOM     19  C   UNL     1      -7.818 -30.846   9.885  0.00  0.00    +0.119 C 
BRANCH  19  20
ATOM     20  N   UNL     1      -7.957 -29.383   9.621  0.00  0.00    -0.302 NA
ATOM     21  C   UNL     1      -9.061 -28.747  10.472  0.00  0.00    +0.066 C 
ATOM     22  C   UNL     1      -9.177 -27.212  10.199  0.00  0.00    -0.064 C 
ATOM     23  N   UNL     1      -9.440 -26.980   8.711  0.00  0.00    +0.379 N 
ATOM     24  C   UNL     1      -9.607 -25.541   8.461  0.00  0.00    -0.096 C 
ATOM     25  H   UNL     1     -10.401 -27.482   8.455  0.00  0.00    -0.082 HD
ATOM     26  C   UNL     1      -8.348 -27.611   7.857  0.00  0.00    -0.064 C 
ATOM     27  C   UNL     1      -8.221 -29.130   8.157  0.00  0.00    +0.066 C 
ENDBRANCH  19  20
ENDBRANCH  18  19
ENDBRANCH  14  15
ENDBRANCH  12  13
TORSDOF 6
ENDMDL
MODEL 2
REMARK VINA RESULT:      -7.0      2.431      3.458
REMARK  Name = C:\Users\Docking\Desktop\test protocol\1iep_ligandH.pdb
REMARK  8 active torsions:
REMARK  status: ('A' for Active; 'I' for Inactive)
REMARK    1  A    between atoms: _5  and  _11
REMARK    2  A    between atoms: _19  and  _21
REMARK    3  A    between atoms: _22  and  _66
REMARK    4  A    between atoms: _27  and  _30
REMARK    5  A    between atoms: _32  and  _33
REMARK    6  A    between atoms: _38  and  _43
REMARK    7  A    between atoms: _43  and  _46
REMARK    8  A    between atoms: _53  and  _55
REMARK                            x       y       z     vdW  Elec       q    Type
REMARK                         _______ _______ _______ _____ _____    ______ ____
ROOT
ATOM     10  C   UNL     1       1.719 -32.421  15.181  0.00  0.00    +0.038 A 
ATOM     11  C   UNL     1       0.529 -32.298  14.419  0.00  0.00    +0.047 A 
ATOM     12  C   UNL     1      -0.646 -33.099  14.725  0.00  0.00    +0.035 A 
ATOM     32  C   UNL     1      -0.576 -34.013  15.817  0.00  0.00    +0.024 A 
ATOM     33  C   UNL     1       0.626 -34.151  16.601  0.00  0.00    +0.007 A 
ATOM     34  C   UNL     1       1.789 -33.366  16.302  0.00  0.00    -0.029 A 
ATOM     35  C   UNL     1       3.052 -33.560  17.173  0.00  0.00    +0.045 C 
ENDROOT
BRANCH  10   9
ATOM      4  C   UNL     1       4.183 -28.306  15.360  0.00  0.00    +0.077 A 
ATOM      5  C   UNL     1       3.184 -27.674  16.173  0.00  0.00    +0.048 A 
ATOM      6  C   UNL     1       2.048 -28.441  16.518  0.00  0.00    +0.116 A 
ATOM      7  N   UNL     1       1.930 -29.741  16.076  0.00  0.00    -0.223 NA
ATOM      8  C   UNL     1       2.911 -30.319  15.292  0.00  0.00    +0.220 A 
ATOM      9  N   UNL     1       2.818 -31.628  14.843  0.00  0.00    -0.283 N 
ATOM     36  H   UNL     1       3.559 -32.015  14.261  0.00  0.00    +0.155 HD
ATOM     37  N   UNL     1       4.005 -29.608  14.948  0.00  0.00    -0.214 NA
BRANCH   4   3
ATOM      1  C   UNL     1       7.511 -27.471  13.481  0.00  0.00    +0.020 A 
ATOM      2  C   UNL     1       6.306 -28.166  13.873  0.00  0.00    +0.013 A 
ATOM      3  C   UNL     1       5.442 -27.628  14.916  0.00  0.00    +0.019 A 
ATOM     38  C   UNL     1       5.827 -26.374  15.546  0.00  0.00    +0.120 A 
ATOM     39  N   UNL     1       6.994 -25.728  15.149  0.00  0.00    -0.263 NA
ATOM     40  C   UNL     1       7.835 -26.238  14.148  0.00  0.00    +0.111 A 
ENDBRANCH   4   3
ENDBRANCH  10   9
BRANCH  12  13
ATOM     13  N   UNL     1      -1.879 -33.023  13.981  0.00  0.00    -0.281 N 
ATOM     14  C   UNL     1      -2.868 -32.057  14.068  0.00  0.00    +0.248 C 
ATOM     30  O   UNL     1      -2.942 -31.221  14.956  0.00  0.00    -0.270 OA
ATOM     31  H   UNL     1      -2.043 -33.774  13.310  0.00  0.00    +0.155 HD
BRANCH  14  15
ATOM     15  C   UNL     1      -3.938 -32.024  13.025  0.00  0.00    +0.037 A 
ATOM     16  C   UNL     1      -4.977 -30.991  13.034  0.00  0.00    +0.013 A 
ATOM     17  C   UNL     1      -6.008 -30.992  12.026  0.00  0.00    +0.005 A 
ATOM     18  C   UNL     1      -6.003 -32.030  10.999  0.00  0.00    -0.033 A 
ATOM     28  C   UNL     1      -4.958 -33.040  11.010  0.00  0.00    +0.005 A 
ATOM     29  C   UNL     1      -3.947 -33.043  11.997  0.00  0.00    +0.013 A 
BRANCH  18  19
ATOM     19  C   UNL     1      -7.075 -32.121   9.897  0.00  0.00    +0.119 C 
BRANCH  19  20
ATOM     20  N   UNL     1      -7.773 -33.431   9.728  0.00  0.00    -0.302 NA
ATOM     21  C   UNL     1      -7.406 -34.111   8.407  0.00  0.00    +0.066 C 
ATOM     22  C   UNL     1      -8.128 -35.490   8.257  0.00  0.00    -0.064 C 
ATOM     23  N   UNL     1      -9.640 -35.285   8.359  0.00  0.00    +0.379 N 
ATOM     24  C   UNL     1     -10.324 -36.571   8.161  0.00  0.00    -0.096 C 
ATOM     25  H   UNL     1      -9.946 -34.608   7.528  0.00  0.00    -0.082 HD
ATOM     26  C   UNL     1     -10.014 -34.606   9.669  0.00  0.00    -0.064 C 
ATOM     27  C   UNL     1      -9.269 -33.251   9.821  0.00  0.00    +0.066 C 
ENDBRANCH  19  20
ENDBRANCH  18  19
ENDBRANCH  14  15
ENDBRANCH  12  13
TORSDOF 6
ENDMDL
MODEL 3
REMARK VINA RESULT:      -6.6      8.555     15.695
REMARK  Name = C:\Users\Docking\Desktop\test protocol\1iep_ligandH.pdb
REMARK  8 active torsions:
REMARK  status: ('A' for Active; 'I' for Inactive)
REMARK    1  A    between atoms: _5  and  _11
REMARK    2  A    between atoms: _19  and  _21
REMARK    3  A    between atoms: _22  and  _66
REMARK    4  A    between atoms: _27  and  _30
REMARK    5  A    between atoms: _32  and  _33
REMARK    6  A    between atoms: _38  and  _43
REMARK    7  A    between atoms: _43  and  _46
REMARK    8  A    between atoms: _53  and  _55
REMARK                            x       y       z     vdW  Elec       q    Type
REMARK                         _______ _______ _______ _____ _____    ______ ____
ROOT
ATOM     10  C   UNL     1       8.080 -26.281  11.662  0.00  0.00    +0.038 A 
ATOM     11  C   UNL     1       8.925 -27.104  10.876  0.00  0.00    +0.047 A 
ATOM     12  C   UNL     1      10.199 -26.613  10.374  0.00  0.00    +0.035 A 
ATOM     32  C   UNL     1      10.582 -25.278  10.695  0.00  0.00    +0.024 A 
ATOM     33  C   UNL     1       9.735 -24.427  11.493  0.00  0.00    +0.007 A 
ATOM     34  C   UNL     1       8.476 -24.905  11.988  0.00  0.00    -0.029 A 
ATOM     35  C   UNL     1       7.605 -23.947  12.833  0.00  0.00    +0.045 C 
ENDROOT
BRANCH  10   9
ATOM      4  C   UNL     1       5.430 -28.607  14.919  0.00  0.00    +0.077 A 
ATOM      5  C   UNL     1       6.563 -28.823  15.773  0.00  0.00    +0.048 A 
ATOM      6  C   UNL     1       7.810 -28.326  15.334  0.00  0.00    +0.116 A 
ATOM      7  N   UNL     1       7.907 -27.663  14.130  0.00  0.00    -0.223 NA
ATOM      8  C   UNL     1       6.795 -27.474  13.329  0.00  0.00    +0.220 A 
ATOM      9  N   UNL     1       6.867 -26.803  12.118  0.00  0.00    -0.283 N 
ATOM     36  H   UNL     1       6.026 -26.691  11.553  0.00  0.00    +0.155 HD
ATOM     37  N   UNL     1       5.593 -27.940  13.725  0.00  0.00    -0.214 NA
BRANCH   4   3
ATOM      1  C   UNL     1       2.159 -30.742  15.126  0.00  0.00    +0.020 A 
ATOM      2  C   UNL     1       3.504 -30.342  14.781  0.00  0.00    +0.013 A 
ATOM      3  C   UNL     1       4.045 -29.070  15.246  0.00  0.00    +0.019 A 
ATOM     38  C   UNL     1       3.192 -28.221  16.064  0.00  0.00    +0.120 A 
ATOM     39  N   UNL     1       1.901 -28.632  16.379  0.00  0.00    -0.263 NA
ATOM     40  C   UNL     1       1.369 -29.853  15.936  0.00  0.00    +0.111 A 
ENDBRANCH   4   3
ENDBRANCH  10   9
BRANCH  12  13
ATOM     13  N   UNL     1      11.095 -27.400   9.564  0.00  0.00    -0.281 N 
ATOM     14  C   UNL     1      11.798 -28.537   9.930  0.00  0.00    +0.248 C 
ATOM     30  O   UNL     1      11.928 -28.928  11.080  0.00  0.00    -0.270 OA
ATOM     31  H   UNL     1      11.228 -27.081   8.604  0.00  0.00    +0.155 HD
BRANCH  14  15
ATOM     15  C   UNL     1      12.464 -29.347   8.865  0.00  0.00    +0.037 A 
ATOM     16  C   UNL     1      13.298 -28.716   7.840  0.00  0.00    +0.013 A 
ATOM     17  C   UNL     1      13.916 -29.519   6.814  0.00  0.00    +0.005 A 
ATOM     18  C   UNL     1      13.702 -30.965   6.811  0.00  0.00    -0.033 A 
ATOM     28  C   UNL     1      12.874 -31.565   7.844  0.00  0.00    +0.005 A 
ATOM     29  C   UNL     1      12.266 -30.781   8.850  0.00  0.00    +0.013 A 
BRANCH  18  19
ATOM     19  C   UNL     1      14.304 -31.897   5.743  0.00  0.00    +0.119 C 
BRANCH  19  20
ATOM     20  N   UNL     1      13.803 -31.748   4.344  0.00  0.00    -0.302 NA
ATOM     21  C   UNL     1      13.567 -33.102   3.671  0.00  0.00    +0.066 C 
ATOM     22  C   UNL     1      13.022 -32.928   2.216  0.00  0.00    -0.064 C 
ATOM     23  N   UNL     1      14.005 -32.084   1.404  0.00  0.00    +0.379 N 
ATOM     24  C   UNL     1      13.525 -31.966   0.020  0.00  0.00    -0.096 C 
ATOM     25  H   UNL     1      14.978 -32.629   1.379  0.00  0.00    -0.082 HD
ATOM     26  C   UNL     1      14.249 -30.736   2.068  0.00  0.00    -0.064 C 
ATOM     27  C   UNL     1      14.762 -30.921   3.523  0.00  0.00    +0.066 C 
ENDBRANCH  19  20
ENDBRANCH  18  19
ENDBRANCH  14  15
ENDBRANCH  12  13
TORSDOF 6
ENDMDL
MODEL 4
REMARK VINA RESULT:      -6.6      8.761     14.857
REMARK  Name = C:\Users\Docking\Desktop\test protocol\1iep_ligandH.pdb
REMARK  8 active torsions:
REMARK  status: ('A' for Active; 'I' for Inactive)
REMARK    1  A    between atoms: _5  and  _11
REMARK    2  A    between atoms: _19  and  _21
REMARK    3  A    between atoms: _22  and  _66
REMARK    4  A    between atoms: _27  and  _30
REMARK    5  A    between atoms: _32  and  _33
REMARK    6  A    between atoms: _38  and  _43
REMARK    7  A    between atoms: _43  and  _46
REMARK    8  A    between atoms: _53  and  _55
REMARK                            x       y       z     vdW  Elec       q    Type
REMARK                         _______ _______ _______ _____ _____    ______ ____
ROOT
ATOM     10  C   UNL     1       9.921 -30.427  14.180  0.00  0.00    +0.038 A 
ATOM     11  C   UNL     1      10.018 -31.102  12.936  0.00  0.00    +0.047 A 
ATOM     12  C   UNL     1      11.308 -31.331  12.304  0.00  0.00    +0.035 A 
ATOM     32  C   UNL     1      12.479 -30.861  12.967  0.00  0.00    +0.024 A 
ATOM     33  C   UNL     1      12.398 -30.172  14.231  0.00  0.00    +0.007 A 
ATOM     34  C   UNL     1      11.128 -29.941  14.859  0.00  0.00    -0.029 A 
ATOM     35  C   UNL     1      11.100 -29.191  16.211  0.00  0.00    +0.045 C 
ENDROOT
BRANCH  10   9
ATOM      4  C   UNL     1       5.858 -27.926  14.705  0.00  0.00    +0.077 A 
ATOM      5  C   UNL     1       6.302 -26.902  13.803  0.00  0.00    +0.048 A 
ATOM      6  C   UNL     1       7.585 -27.053  13.231  0.00  0.00    +0.116 A 
ATOM      7  N   UNL     1       8.357 -28.151  13.544  0.00  0.00    -0.223 NA
ATOM      8  C   UNL     1       7.900 -29.119  14.419  0.00  0.00    +0.220 A 
ATOM      9  N   UNL     1       8.657 -30.235  14.742  0.00  0.00    -0.283 N 
ATOM     36  H   UNL     1       8.286 -30.923  15.398  0.00  0.00    +0.155 HD
ATOM     37  N   UNL     1       6.679 -28.997  14.980  0.00  0.00    -0.214 NA
BRANCH   4   3
ATOM      1  C   UNL     1       2.314 -28.959  16.000  0.00  0.00    +0.020 A 
ATOM      2  C   UNL     1       3.588 -29.025  15.322  0.00  0.00    +0.013 A 
ATOM      3  C   UNL     1       4.525 -27.910  15.387  0.00  0.00    +0.019 A 
ATOM     38  C   UNL     1       4.139 -26.734  16.153  0.00  0.00    +0.120 A 
ATOM     39  N   UNL     1       2.904 -26.699  16.793  0.00  0.00    -0.263 NA
ATOM     40  C   UNL     1       1.994 -27.765  16.736  0.00  0.00    +0.111 A 
ENDBRANCH   4   3
ENDBRANCH  10   9
BRANCH  12  13
ATOM     13  N   UNL     1      11.469 -32.003  11.038  0.00  0.00    -0.281 N 
ATOM     14  C   UNL     1      12.057 -31.514   9.883  0.00  0.00    +0.248 C 
ATOM     30  O   UNL     1      12.346 -30.342   9.698  0.00  0.00    -0.270 OA
ATOM     31  H   UNL     1      11.104 -32.954  10.988  0.00  0.00    +0.155 HD
BRANCH  14  15
ATOM     15  C   UNL     1      12.355 -32.463   8.768  0.00  0.00    +0.037 A 
ATOM     16  C   UNL     1      12.069 -33.895   8.891  0.00  0.00    +0.013 A 
ATOM     17  C   UNL     1      12.381 -34.791   7.806  0.00  0.00    +0.005 A 
ATOM     18  C   UNL     1      12.983 -34.257   6.587  0.00  0.00    -0.033 A 
ATOM     28  C   UNL     1      13.251 -32.832   6.489  0.00  0.00    +0.005 A 
ATOM     29  C   UNL     1      12.947 -31.950   7.550  0.00  0.00    +0.013 A 
BRANCH  18  19
ATOM     19  C   UNL     1      13.369 -35.142   5.387  0.00  0.00    +0.119 C 
BRANCH  19  20
ATOM     20  N   UNL     1      12.298 -36.000   4.798  0.00  0.00    -0.302 NA
ATOM     21  C   UNL     1      10.902 -35.415   5.027  0.00  0.00    +0.066 C 
ATOM     22  C   UNL     1       9.795 -36.313   4.385  0.00  0.00    -0.064 C 
ATOM     23  N   UNL     1       9.891 -37.727   4.962  0.00  0.00    +0.379 N 
ATOM     24  C   UNL     1       8.815 -38.559   4.403  0.00  0.00    -0.096 C 
ATOM     25  H   UNL     1       9.726 -37.655   6.062  0.00  0.00    -0.082 HD
ATOM     26  C   UNL     1      11.277 -38.315   4.740  0.00  0.00    -0.064 C 
ATOM     27  C   UNL     1      12.372 -37.400   5.356  0.00  0.00    +0.066 C 
ENDBRANCH  19  20
ENDBRANCH  18  19
ENDBRANCH  14  15
ENDBRANCH  12  13
TORSDOF 6
ENDMDL
MODEL 5
REMARK VINA RESULT:      -6.5     15.113     19.176
REMARK  Name = C:\Users\Docking\Desktop\test protocol\1iep_ligandH.pdb
REMARK  8 active torsions:
REMARK  status: ('A' for Active; 'I' for Inactive)
REMARK    1  A    between atoms: _5  and  _11
REMARK    2  A    between atoms: _19  and  _21
REMARK    3  A    between atoms: _22  and  _66
REMARK    4  A    between atoms: _27  and  _30
REMARK    5  A    between atoms: _32  and  _33
REMARK    6  A    between atoms: _38  and  _43
REMARK    7  A    between atoms: _43  and  _46
REMARK    8  A    between atoms: _53  and  _55
REMARK                            x       y       z     vdW  Elec       q    Type
REMARK                         _______ _______ _______ _____ _____    ______ ____
ROOT
ATOM     10  C   UNL     1       7.591 -42.681   5.871  0.00  0.00    +0.038 A 
ATOM     11  C   UNL     1       7.941 -41.340   5.569  0.00  0.00    +0.047 A 
ATOM     12  C   UNL     1       9.067 -41.034   4.699  0.00  0.00    +0.035 A 
ATOM     32  C   UNL     1       9.813 -42.119   4.153  0.00  0.00    +0.024 A 
ATOM     33  C   UNL     1       9.471 -43.488   4.451  0.00  0.00    +0.007 A 
ATOM     34  C   UNL     1       8.364 -43.796   5.310  0.00  0.00    -0.029 A 
ATOM     35  C   UNL     1       8.048 -45.281   5.600  0.00  0.00    +0.045 C 
ENDROOT
BRANCH  10   9
ATOM      4  C   UNL     1       5.621 -43.119  10.226  0.00  0.00    +0.077 A 
ATOM      5  C   UNL     1       6.876 -42.885  10.882  0.00  0.00    +0.048 A 
ATOM      6  C   UNL     1       8.005 -42.663  10.063  0.00  0.00    +0.116 A 
ATOM      7  N   UNL     1       7.878 -42.676   8.690  0.00  0.00    -0.223 NA
ATOM      8  C   UNL     1       6.654 -42.907   8.090  0.00  0.00    +0.220 A 
ATOM      9  N   UNL     1       6.501 -42.917   6.712  0.00  0.00    -0.283 N 
ATOM     36  H   UNL     1       5.583 -43.098   6.308  0.00  0.00    +0.155 HD
ATOM     37  N   UNL     1       5.560 -43.123   8.851  0.00  0.00    -0.214 NA
BRANCH   4   3
ATOM      1  C   UNL     1       2.883 -43.282  13.015  0.00  0.00    +0.020 A 
ATOM      2  C   UNL     1       4.144 -43.022  12.358  0.00  0.00    +0.013 A 
ATOM      3  C   UNL     1       4.337 -43.367  10.955  0.00  0.00    +0.019 A 
ATOM     38  C   UNL     1       3.227 -43.978  10.240  0.00  0.00    +0.120 A 
ATOM     39  N   UNL     1       2.025 -44.217  10.899  0.00  0.00    -0.263 NA
ATOM     40  C   UNL     1       1.828 -43.891  12.249  0.00  0.00    +0.111 A 
ENDBRANCH   4   3
ENDBRANCH  10   9
BRANCH  12  13
ATOM     13  N   UNL     1       9.474 -39.693   4.363  0.00  0.00    -0.281 N 
ATOM     14  C   UNL     1      10.622 -39.026   4.760  0.00  0.00    +0.248 C 
ATOM     30  O   UNL     1      11.373 -39.410   5.644  0.00  0.00    -0.270 OA
ATOM     31  H   UNL     1       8.840 -39.171   3.758  0.00  0.00    +0.155 HD
BRANCH  14  15
ATOM     15  C   UNL     1      10.979 -37.740   4.088  0.00  0.00    +0.037 A 
ATOM     16  C   UNL     1      11.682 -37.723   2.803  0.00  0.00    +0.013 A 
ATOM     17  C   UNL     1      12.030 -36.468   2.185  0.00  0.00    +0.005 A 
ATOM     18  C   UNL     1      11.673 -35.218   2.852  0.00  0.00    -0.033 A 
ATOM     28  C   UNL     1      10.970 -35.264   4.123  0.00  0.00    +0.005 A 
ATOM     29  C   UNL     1      10.629 -36.492   4.733  0.00  0.00    +0.013 A 
BRANCH  18  19
ATOM     19  C   UNL     1      12.023 -33.834   2.275  0.00  0.00    +0.119 C 
BRANCH  19  20
ATOM     20  N   UNL     1      13.454 -33.577   1.934  0.00  0.00    -0.302 NA
ATOM     21  C   UNL     1      14.208 -32.908   3.087  0.00  0.00    +0.066 C 
ATOM     22  C   UNL     1      15.709 -32.667   2.722  0.00  0.00    -0.064 C 
ATOM     23  N   UNL     1      15.792 -31.815   1.454  0.00  0.00    +0.379 N 
ATOM     24  C   UNL     1      17.201 -31.538   1.140  0.00  0.00    -0.096 C 
ATOM     25  H   UNL     1      15.295 -30.840   1.669  0.00  0.00    -0.082 HD
ATOM     26  C   UNL     1      15.042 -32.471   0.303  0.00  0.00    -0.064 C 
ATOM     27  C   UNL     1      13.559 -32.733   0.688  0.00  0.00    +0.066 C 
ENDBRANCH  19  20
ENDBRANCH  18  19
ENDBRANCH  14  15
ENDBRANCH  12  13
TORSDOF 6
ENDMDL
