MODEL 1
REMARK VINA RESULT:      -9.4      0.000      0.000
REMARK  Name = C:\Users\Docking\Desktop\test protocol\1iep_ligandH.pdb
REMARK  8 active torsions:
REMARK  status: ('A' for Active; 'I' for Inactive)
REMARK    1  A    between atoms: _5  and  _11
REMARK    2  A    between atoms: _19  and  _21
REMARK    3  A    between atoms: _22  and  _66
REMARK    4  A    between atoms: _27  and  _30
REMARK    5  A    between atoms: _32  and  _33
REMARK    6  A    between atoms: _38  and  _43
REMARK    7  A    between atoms: _43  and  _46
REMARK    8  A    between atoms: _53  and  _55
REMARK                            x       y       z     vdW  Elec       q    Type
REMARK                         _______ _______ _______ _____ _____    ______ ____
ROOT
ATOM     10  C   UNL     1       4.841  38.476  15.019  0.00  0.00    +0.038 A 
ATOM     11  C   UNL     1       4.937  39.463  14.006  0.00  0.00    +0.047 A 
ATOM     12  C   UNL     1       6.223  39.830  13.433  0.00  0.00    +0.035 A 
ATOM     32  C   UNL     1       7.390  39.169  13.914  0.00  0.00    +0.024 A 
ATOM     33  C   UNL     1       7.311  38.164  14.945  0.00  0.00    +0.007 A 
ATOM     34  C   UNL     1       6.046  37.799  15.515  0.00  0.00    -0.029 A 
ATOM     35  C   UNL     1       6.021  36.720  16.622  0.00  0.00    +0.045 C 
ENDROOT
BRANCH  10   9
ATOM      4  C   UNL     1       0.294  37.030  14.494  0.00  0.00    +0.077 A 
ATOM      5  C   UNL     1       0.433  36.915  13.071  0.00  0.00    +0.048 A 
ATOM      6  C   UNL     1       1.689  37.244  12.513  0.00  0.00    +0.116 A 
ATOM      7  N   UNL     1       2.721  37.656  13.327  0.00  0.00    -0.223 NA
ATOM      8  C   UNL     1       2.553  37.758  14.696  0.00  0.00    +0.220 A 
ATOM      9  N   UNL     1       3.581  38.162  15.534  0.00  0.00    -0.283 N 
ATOM     36  H   UNL     1       3.415  38.231  16.538  0.00  0.00    +0.155 HD
ATOM     37  N   UNL     1       1.364  37.450  15.253  0.00  0.00    -0.214 NA
BRANCH   4   3
ATOM      1  C   UNL     1      -2.997  37.378  16.579  0.00  0.00    +0.020 A 
ATOM      2  C   UNL     1      -1.785  37.735  15.878  0.00  0.00    +0.013 A 
ATOM      3  C   UNL     1      -0.969  36.715  15.233  0.00  0.00    +0.019 A 
ATOM     38  C   UNL     1      -1.412  35.331  15.314  0.00  0.00    +0.120 A 
ATOM     39  N   UNL     1      -2.583  35.016  15.997  0.00  0.00    -0.263 NA
ATOM     40  C   UNL     1      -3.375  35.990  16.623  0.00  0.00    +0.111 A 
ENDBRANCH   4   3
ENDBRANCH  10   9
BRANCH  12  13
ATOM     13  N   UNL     1       6.383  40.831  12.407  0.00  0.00    -0.281 N 
ATOM     14  C   UNL     1       6.097  42.184  12.485  0.00  0.00    +0.248 C 
ATOM     30  O   UNL     1       5.454  42.703  13.385  0.00  0.00    -0.270 OA
ATOM     31  H   UNL     1       6.754  40.501  11.515  0.00  0.00    +0.155 HD
BRANCH  14  15
ATOM     15  C   UNL     1       6.581  43.088  11.398  0.00  0.00    +0.037 A 
ATOM     16  C   UNL     1       5.794  44.245  10.965  0.00  0.00    +0.013 A 
ATOM     17  C   UNL     1       6.277  45.092   9.903  0.00  0.00    +0.005 A 
ATOM     18  C   UNL     1       7.555  44.785   9.267  0.00  0.00    -0.033 A 
ATOM     28  C   UNL     1       8.319  43.633   9.720  0.00  0.00    +0.005 A 
ATOM     29  C   UNL     1       7.848  42.801  10.760  0.00  0.00    +0.013 A 
BRANCH  18  19
ATOM     19  C   UNL     1       8.138  45.621   8.112  0.00  0.00    +0.119 C 
BRANCH  19  20
ATOM     20  N   UNL     1       9.383  45.115   7.462  0.00  0.00    -0.302 NA
ATOM     21  C   UNL     1      10.321  46.254   7.053  0.00  0.00    +0.066 C 
ATOM     22  C   UNL     1      11.629  45.706   6.394  0.00  0.00    -0.064 C 
ATOM     23  N   UNL     1      11.265  44.843   5.185  0.00  0.00    +0.379 N 
ATOM     24  C   UNL     1      12.494  44.373   4.530  0.00  0.00    -0.096 C 
ATOM     25  H   UNL     1      10.721  45.490   4.459  0.00  0.00    -0.082 HD
ATOM     26  C   UNL     1      10.331  43.709   5.583  0.00  0.00    -0.064 C 
ATOM     27  C   UNL     1       9.047  44.263   6.263  0.00  0.00    +0.066 C 
ENDBRANCH  19  20
ENDBRANCH  18  19
ENDBRANCH  14  15
ENDBRANCH  12  13
TORSDOF 6
ENDMDL
MODEL 2
REMARK VINA RESULT:      -9.3     24.322     30.890
REMARK  Name = C:\Users\Docking\Desktop\test protocol\1iep_ligandH.pdb
REMARK  8 active torsions:
REMARK  status: ('A' for Active; 'I' for Inactive)
REMARK    1  A    between atoms: _5  and  _11
REMARK    2  A    between atoms: _19  and  _21
REMARK    3  A    between atoms: _22  and  _66
REMARK    4  A    between atoms: _27  and  _30
REMARK    5  A    between atoms: _32  and  _33
REMARK    6  A    between atoms: _38  and  _43
REMARK    7  A    between atoms: _43  and  _46
REMARK    8  A    between atoms: _53  and  _55
REMARK                            x       y       z     vdW  Elec       q    Type
REMARK                         _______ _______ _______ _____ _____    ______ ____
ROOT
ATOM     10  C   UNL     1       9.212  23.091  32.320  0.00  0.00    +0.038 A 
ATOM     11  C   UNL     1       9.531  23.604  33.603  0.00  0.00    +0.047 A 
ATOM     12  C   UNL     1       8.856  23.119  34.796  0.00  0.00    +0.035 A 
ATOM     32  C   UNL     1       7.862  22.109  34.647  0.00  0.00    +0.024 A 
ATOM     33  C   UNL     1       7.524  21.577  33.350  0.00  0.00    +0.007 A 
ATOM     34  C   UNL     1       8.185  22.053  32.169  0.00  0.00    -0.029 A 
ATOM     35  C   UNL     1       7.778  21.451  30.804  0.00  0.00    +0.045 C 
ENDROOT
BRANCH  10   9
ATOM      4  C   UNL     1      12.841  22.996  29.180  0.00  0.00    +0.077 A 
ATOM      5  C   UNL     1      13.449  21.869  29.827  0.00  0.00    +0.048 A 
ATOM      6  C   UNL     1      12.800  21.347  30.968  0.00  0.00    +0.116 A 
ATOM      7  N   UNL     1      11.630  21.919  31.420  0.00  0.00    -0.223 NA
ATOM      8  C   UNL     1      11.071  23.006  30.775  0.00  0.00    +0.220 A 
ATOM      9  N   UNL     1       9.892  23.592  31.207  0.00  0.00    -0.283 N 
ATOM     36  H   UNL     1       9.516  24.398  30.708  0.00  0.00    +0.155 HD
ATOM     37  N   UNL     1      11.673  23.524  29.683  0.00  0.00    -0.214 NA
BRANCH   4   3
ATOM      1  C   UNL     1      13.231  25.190  25.965  0.00  0.00    +0.020 A 
ATOM      2  C   UNL     1      12.638  24.578  27.132  0.00  0.00    +0.013 A 
ATOM      3  C   UNL     1      13.406  23.657  27.961  0.00  0.00    +0.019 A 
ATOM     38  C   UNL     1      14.782  23.376  27.580  0.00  0.00    +0.120 A 
ATOM     39  N   UNL     1      15.325  23.979  26.450  0.00  0.00    -0.263 NA
ATOM     40  C   UNL     1      14.596  24.865  25.643  0.00  0.00    +0.111 A 
ENDBRANCH   4   3
ENDBRANCH  10   9
BRANCH  12  13
ATOM     13  N   UNL     1       9.132  23.608  36.124  0.00  0.00    -0.281 N 
ATOM     14  C   UNL     1       9.611  22.896  37.212  0.00  0.00    +0.248 C 
ATOM     30  O   UNL     1       9.673  21.677  37.266  0.00  0.00    -0.270 OA
ATOM     31  H   UNL     1       8.953  24.600  36.282  0.00  0.00    +0.155 HD
BRANCH  14  15
ATOM     15  C   UNL     1      10.075  23.646  38.418  0.00  0.00    +0.037 A 
ATOM     16  C   UNL     1      10.143  23.003  39.733  0.00  0.00    +0.013 A 
ATOM     17  C   UNL     1      10.578  23.754  40.884  0.00  0.00    +0.005 A 
ATOM     18  C   UNL     1      10.950  25.158  40.724  0.00  0.00    -0.033 A 
ATOM     28  C   UNL     1      10.879  25.769  39.407  0.00  0.00    +0.005 A 
ATOM     29  C   UNL     1      10.452  25.037  38.277  0.00  0.00    +0.013 A 
BRANCH  18  19
ATOM     19  C   UNL     1      11.406  26.042  41.900  0.00  0.00    +0.119 C 
BRANCH  19  20
ATOM     20  N   UNL     1      10.538  27.202  42.260  0.00  0.00    -0.302 NA
ATOM     21  C   UNL     1      11.067  27.960  43.481  0.00  0.00    +0.066 C 
ATOM     22  C   UNL     1      10.160  29.184  43.829  0.00  0.00    -0.064 C 
ATOM     23  N   UNL     1       8.728  28.702  44.070  0.00  0.00    +0.379 N 
ATOM     24  C   UNL     1       7.884  29.843  44.454  0.00  0.00    -0.096 C 
ATOM     25  H   UNL     1       8.751  27.993  44.930  0.00  0.00    -0.082 HD
ATOM     26  C   UNL     1       8.194  27.945  42.862  0.00  0.00    -0.064 C 
ATOM     27  C   UNL     1       9.120  26.748  42.506  0.00  0.00    +0.066 C 
ENDBRANCH  19  20
ENDBRANCH  18  19
ENDBRANCH  14  15
ENDBRANCH  12  13
TORSDOF 6
ENDMDL
MODEL 3
REMARK VINA RESULT:      -9.2      6.852     15.531
REMARK  Name = C:\Users\Docking\Desktop\test protocol\1iep_ligandH.pdb
REMARK  8 active torsions:
REMARK  status: ('A' for Active; 'I' for Inactive)
REMARK    1  A    between atoms: _5  and  _11
REMARK    2  A    between atoms: _19  and  _21
REMARK    3  A    between atoms: _22  and  _66
REMARK    4  A    between atoms: _27  and  _30
REMARK    5  A    between atoms: _32  and  _33
REMARK    6  A    between atoms: _38  and  _43
REMARK    7  A    between atoms: _43  and  _46
REMARK    8  A    between atoms: _53  and  _55
REMARK                            x       y       z     vdW  Elec       q    Type
REMARK                         _______ _______ _______ _____ _____    ______ ____
ROOT
ATOM     10  C   UNL     1      -2.125  37.216  15.629  0.00  0.00    +0.038 A 
ATOM     11  C   UNL     1      -2.871  36.442  14.704  0.00  0.00    +0.047 A 
ATOM     12  C   UNL     1      -4.312  36.598  14.583  0.00  0.00    +0.035 A 
ATOM     32  C   UNL     1      -4.961  37.553  15.418  0.00  0.00    +0.024 A 
ATOM     33  C   UNL     1      -4.219  38.347  16.365  0.00  0.00    +0.007 A 
ATOM     34  C   UNL     1      -2.797  38.196  16.491  0.00  0.00    -0.029 A 
ATOM     35  C   UNL     1      -2.053  39.069  17.527  0.00  0.00    +0.045 C 
ENDROOT
BRANCH  10   9
ATOM      4  C   UNL     1       2.385  38.490  14.593  0.00  0.00    +0.077 A 
ATOM      5  C   UNL     1       1.951  39.614  13.815  0.00  0.00    +0.048 A 
ATOM      6  C   UNL     1       0.559  39.826  13.700  0.00  0.00    +0.116 A 
ATOM      7  N   UNL     1      -0.325  38.970  14.322  0.00  0.00    -0.223 NA
ATOM      8  C   UNL     1       0.127  37.894  15.064  0.00  0.00    +0.220 A 
ATOM      9  N   UNL     1      -0.743  37.026  15.704  0.00  0.00    -0.283 N 
ATOM     36  H   UNL     1      -0.371  36.239  16.236  0.00  0.00    +0.155 HD
ATOM     37  N   UNL     1       1.452  37.670  15.187  0.00  0.00    -0.214 NA
BRANCH   4   3
ATOM      1  C   UNL     1       6.294  38.617  14.641  0.00  0.00    +0.020 A 
ATOM      2  C   UNL     1       4.922  39.005  14.408  0.00  0.00    +0.013 A 
ATOM      3  C   UNL     1       3.824  38.137  14.811  0.00  0.00    +0.019 A 
ATOM     38  C   UNL     1       4.150  36.872  15.453  0.00  0.00    +0.120 A 
ATOM     39  N   UNL     1       5.480  36.524  15.663  0.00  0.00    -0.263 NA
ATOM     40  C   UNL     1       6.546  37.351  15.278  0.00  0.00    +0.111 A 
ENDBRANCH   4   3
ENDBRANCH  10   9
BRANCH  12  13
ATOM     13  N   UNL     1      -5.123  35.834  13.667  0.00  0.00    -0.281 N 
ATOM     14  C   UNL     1      -5.769  34.631  13.900  0.00  0.00    +0.248 C 
ATOM     30  O   UNL     1      -5.571  33.918  14.873  0.00  0.00    -0.270 OA
ATOM     31  H   UNL     1      -5.235  36.229  12.733  0.00  0.00    +0.155 HD
BRANCH  14  15
ATOM     15  C   UNL     1      -6.769  34.143  12.903  0.00  0.00    +0.037 A 
ATOM     16  C   UNL     1      -7.580  32.950  13.161  0.00  0.00    +0.013 A 
ATOM     17  C   UNL     1      -8.526  32.491  12.175  0.00  0.00    +0.005 A 
ATOM     18  C   UNL     1      -8.666  33.226  10.920  0.00  0.00    -0.033 A 
ATOM     28  C   UNL     1      -7.852  34.409  10.692  0.00  0.00    +0.005 A 
ATOM     29  C   UNL     1      -6.924  34.862  11.656  0.00  0.00    +0.013 A 
BRANCH  18  19
ATOM     19  C   UNL     1      -9.634  32.796   9.802  0.00  0.00    +0.119 C 
BRANCH  19  20
ATOM     20  N   UNL     1      -9.726  31.336   9.501  0.00  0.00    -0.302 NA
ATOM     21  C   UNL     1      -9.444  31.035   8.027  0.00  0.00    +0.066 C 
ATOM     22  C   UNL     1      -9.522  29.501   7.735  0.00  0.00    -0.064 C 
ATOM     23  N   UNL     1     -10.901  28.977   8.140  0.00  0.00    +0.379 N 
ATOM     24  C   UNL     1     -10.998  27.547   7.813  0.00  0.00    -0.096 C 
ATOM     25  H   UNL     1     -11.660  29.516   7.529  0.00  0.00    -0.082 HD
ATOM     26  C   UNL     1     -11.191  29.275   9.605  0.00  0.00    -0.064 C 
ATOM     27  C   UNL     1     -11.081  30.799   9.890  0.00  0.00    +0.066 C 
ENDBRANCH  19  20
ENDBRANCH  18  19
ENDBRANCH  14  15
ENDBRANCH  12  13
TORSDOF 6
ENDMDL
MODEL 4
REMARK VINA RESULT:      -9.1     25.013     29.916
REMARK  Name = C:\Users\Docking\Desktop\test protocol\1iep_ligandH.pdb
REMARK  8 active torsions:
REMARK  status: ('A' for Active; 'I' for Inactive)
REMARK    1  A    between atoms: _5  and  _11
REMARK    2  A    between atoms: _19  and  _21
REMARK    3  A    between atoms: _22  and  _66
REMARK    4  A    between atoms: _27  and  _30
REMARK    5  A    between atoms: _32  and  _33
REMARK    6  A    between atoms: _38  and  _43
REMARK    7  A    between atoms: _43  and  _46
REMARK    8  A    between atoms: _53  and  _55
REMARK                            x       y       z     vdW  Elec       q    Type
REMARK                         _______ _______ _______ _____ _____    ______ ____
ROOT
ATOM     10  C   UNL     1      18.662  21.278  31.301  0.00  0.00    +0.038 A 
ATOM     11  C   UNL     1      19.454  22.368  31.744  0.00  0.00    +0.047 A 
ATOM     12  C   UNL     1      19.959  22.427  33.107  0.00  0.00    +0.035 A 
ATOM     32  C   UNL     1      19.639  21.356  33.992  0.00  0.00    +0.024 A 
ATOM     33  C   UNL     1      18.834  20.241  33.559  0.00  0.00    +0.007 A 
ATOM     34  C   UNL     1      18.332  20.179  32.216  0.00  0.00    -0.029 A 
ATOM     35  C   UNL     1      17.468  18.963  31.809  0.00  0.00    +0.045 C 
ENDROOT
BRANCH  10   9
ATOM      4  C   UNL     1      15.467  22.476  27.926  0.00  0.00    +0.077 A 
ATOM      5  C   UNL     1      14.625  23.144  28.876  0.00  0.00    +0.048 A 
ATOM      6  C   UNL     1      15.047  23.151  30.224  0.00  0.00    +0.116 A 
ATOM      7  N   UNL     1      16.224  22.533  30.584  0.00  0.00    -0.223 NA
ATOM      8  C   UNL     1      17.012  21.895  29.643  0.00  0.00    +0.220 A 
ATOM      9  N   UNL     1      18.204  21.274  29.982  0.00  0.00    -0.283 N 
ATOM     36  H   UNL     1      18.753  20.808  29.259  0.00  0.00    +0.155 HD
ATOM     37  N   UNL     1      16.630  21.873  28.349  0.00  0.00    -0.214 NA
BRANCH   4   3
ATOM      1  C   UNL     1      15.827  22.055  24.053  0.00  0.00    +0.020 A 
ATOM      2  C   UNL     1      16.178  22.133  25.453  0.00  0.00    +0.013 A 
ATOM      3  C   UNL     1      15.159  22.385  26.463  0.00  0.00    +0.019 A 
ATOM     38  C   UNL     1      13.782  22.553  26.021  0.00  0.00    +0.120 A 
ATOM     39  N   UNL     1      13.475  22.474  24.667  0.00  0.00    -0.263 NA
ATOM     40  C   UNL     1      14.448  22.234  23.685  0.00  0.00    +0.111 A 
ENDBRANCH   4   3
ENDBRANCH  10   9
BRANCH  12  13
ATOM     13  N   UNL     1      20.761  23.511  33.616  0.00  0.00    -0.281 N 
ATOM     14  C   UNL     1      21.125  24.679  32.966  0.00  0.00    +0.248 C 
ATOM     30  O   UNL     1      20.993  24.872  31.766  0.00  0.00    -0.270 OA
ATOM     31  H   UNL     1      21.102  23.406  34.572  0.00  0.00    +0.155 HD
BRANCH  14  15
ATOM     15  C   UNL     1      21.738  25.787  33.760  0.00  0.00    +0.037 A 
ATOM     16  C   UNL     1      21.910  27.126  33.190  0.00  0.00    +0.013 A 
ATOM     17  C   UNL     1      22.520  28.172  33.972  0.00  0.00    +0.005 A 
ATOM     18  C   UNL     1      22.961  27.883  35.334  0.00  0.00    -0.033 A 
ATOM     28  C   UNL     1      22.774  26.548  35.877  0.00  0.00    +0.005 A 
ATOM     29  C   UNL     1      22.178  25.519  35.113  0.00  0.00    +0.013 A 
BRANCH  18  19
ATOM     19  C   UNL     1      23.641  28.933  36.233  0.00  0.00    +0.119 C 
BRANCH  19  20
ATOM     20  N   UNL     1      23.484  30.367  35.849  0.00  0.00    -0.302 NA
ATOM     21  C   UNL     1      24.689  31.211  36.273  0.00  0.00    +0.066 C 
ATOM     22  C   UNL     1      24.518  32.704  35.843  0.00  0.00    -0.064 C 
ATOM     23  N   UNL     1      23.228  33.261  36.447  0.00  0.00    +0.379 N 
ATOM     24  C   UNL     1      23.093  34.682  36.092  0.00  0.00    -0.096 C 
ATOM     25  H   UNL     1      23.318  33.196  37.556  0.00  0.00    -0.082 HD
ATOM     26  C   UNL     1      22.024  32.426  36.032  0.00  0.00    -0.064 C 
ATOM     27  C   UNL     1      22.218  30.939  36.438  0.00  0.00    +0.066 C 
ENDBRANCH  19  20
ENDBRANCH  18  19
ENDBRANCH  14  15
ENDBRANCH  12  13
TORSDOF 6
ENDMDL
MODEL 5
REMARK VINA RESULT:      -9.0     25.604     31.700
REMARK  Name = C:\Users\Docking\Desktop\test protocol\1iep_ligandH.pdb
REMARK  8 active torsions:
REMARK  status: ('A' for Active; 'I' for Inactive)
REMARK    1  A    between atoms: _5  and  _11
REMARK    2  A    between atoms: _19  and  _21
REMARK    3  A    between atoms: _22  and  _66
REMARK    4  A    between atoms: _27  and  _30
REMARK    5  A    between atoms: _32  and  _33
REMARK    6  A    between atoms: _38  and  _43
REMARK    7  A    between atoms: _43  and  _46
REMARK    8  A    between atoms: _53  and  _55
REMARK                            x       y       z     vdW  Elec       q    Type
REMARK                         _______ _______ _______ _____ _____    ______ ____
ROOT
ATOM     10  C   UNL     1       9.528  22.755  32.343  0.00  0.00    +0.038 A 
ATOM     11  C   UNL     1       9.721  23.071  33.712  0.00  0.00    +0.047 A 
ATOM     12  C   UNL     1       8.760  22.657  34.723  0.00  0.00    +0.035 A 
ATOM     32  C   UNL     1       7.615  21.919  34.304  0.00  0.00    +0.024 A 
ATOM     33  C   UNL     1       7.402  21.590  32.917  0.00  0.00    +0.007 A 
ATOM     34  C   UNL     1       8.345  21.998  31.915  0.00  0.00    -0.029 A 
ATOM     35  C   UNL     1       8.063  21.623  30.441  0.00  0.00    +0.045 C 
ENDROOT
BRANCH  10   9
ATOM      4  C   UNL     1      13.669  22.203  29.980  0.00  0.00    +0.077 A 
ATOM      5  C   UNL     1      13.970  20.983  30.673  0.00  0.00    +0.048 A 
ATOM      6  C   UNL     1      13.036  20.536  31.635  0.00  0.00    +0.116 A 
ATOM      7  N   UNL     1      11.891  21.262  31.877  0.00  0.00    -0.223 NA
ATOM      8  C   UNL     1      11.632  22.435  31.193  0.00  0.00    +0.220 A 
ATOM      9  N   UNL     1      10.482  23.178  31.415  0.00  0.00    -0.283 N 
ATOM     36  H   UNL     1      10.331  24.042  30.895  0.00  0.00    +0.155 HD
ATOM     37  N   UNL     1      12.508  22.884  30.271  0.00  0.00    -0.214 NA
BRANCH   4   3
ATOM      1  C   UNL     1      16.704  23.887  28.176  0.00  0.00    +0.020 A 
ATOM      2  C   UNL     1      15.888  23.318  29.224  0.00  0.00    +0.013 A 
ATOM      3  C   UNL     1      14.556  22.803  28.934  0.00  0.00    +0.019 A 
ATOM     38  C   UNL     1      14.075  22.879  27.562  0.00  0.00    +0.120 A 
ATOM     39  N   UNL     1      14.883  23.434  26.574  0.00  0.00    -0.263 NA
ATOM     40  C   UNL     1      16.166  23.934  26.842  0.00  0.00    +0.111 A 
ENDBRANCH   4   3
ENDBRANCH  10   9
BRANCH  12  13
ATOM     13  N   UNL     1       8.899  22.957  36.126  0.00  0.00    -0.281 N 
ATOM     14  C   UNL     1       9.577  22.228  37.090  0.00  0.00    +0.248 C 
ATOM     30  O   UNL     1       9.991  21.089  36.930  0.00  0.00    -0.270 OA
ATOM     31  H   UNL     1       8.441  23.809  36.449  0.00  0.00    +0.155 HD
BRANCH  14  15
ATOM     15  C   UNL     1       9.819  22.848  38.428  0.00  0.00    +0.037 A 
ATOM     16  C   UNL     1       9.711  22.063  39.660  0.00  0.00    +0.013 A 
ATOM     17  C   UNL     1       9.932  22.690  40.939  0.00  0.00    +0.005 A 
ATOM     18  C   UNL     1      10.264  24.112  40.991  0.00  0.00    -0.033 A 
ATOM     28  C   UNL     1      10.369  24.866  39.753  0.00  0.00    +0.005 A 
ATOM     29  C   UNL     1      10.153  24.255  38.498  0.00  0.00    +0.013 A 
BRANCH  18  19
ATOM     19  C   UNL     1      10.496  24.868  42.313  0.00  0.00    +0.119 C 
BRANCH  19  20
ATOM     20  N   UNL     1       9.305  25.499  42.957  0.00  0.00    -0.302 NA
ATOM     21  C   UNL     1       8.316  24.456  43.483  0.00  0.00    +0.066 C 
ATOM     22  C   UNL     1       7.088  25.133  44.174  0.00  0.00    -0.064 C 
ATOM     23  N   UNL     1       6.404  26.075  43.182  0.00  0.00    +0.379 N 
ATOM     24  C   UNL     1       5.215  26.669  43.810  0.00  0.00    -0.096 C 
ATOM     25  H   UNL     1       6.059  25.463  42.317  0.00  0.00    -0.082 HD
ATOM     26  C   UNL     1       7.381  27.115  42.652  0.00  0.00    -0.064 C 
ATOM     27  C   UNL     1       8.612  26.431  41.994  0.00  0.00    +0.066 C 
ENDBRANCH  19  20
ENDBRANCH  18  19
ENDBRANCH  14  15
ENDBRANCH  12  13
TORSDOF 6
ENDMDL
