MODEL 1
REMARK VINA RESULT:     -10.1      0.000      0.000
REMARK  Name = C:\Users\Docking\Desktop\test protocol\1iep_ligandH.pdb
REMARK  8 active torsions:
REMARK  status: ('A' for Active; 'I' for Inactive)
REMARK    1  A    between atoms: _5  and  _11
REMARK    2  A    between atoms: _19  and  _21
REMARK    3  A    between atoms: _22  and  _66
REMARK    4  A    between atoms: _27  and  _30
REMARK    5  A    between atoms: _32  and  _33
REMARK    6  A    between atoms: _38  and  _43
REMARK    7  A    between atoms: _43  and  _46
REMARK    8  A    between atoms: _53  and  _55
REMARK                            x       y       z     vdW  Elec       q    Type
REMARK                         _______ _______ _______ _____ _____    ______ ____
ROOT
ATOM     10  C   UNL     1      44.897 104.535  28.445  0.00  0.00    +0.038 A 
ATOM     11  C   UNL     1      46.254 104.702  28.067  0.00  0.00    +0.047 A 
ATOM     12  C   UNL     1      47.325 104.606  29.046  0.00  0.00    +0.035 A 
ATOM     32  C   UNL     1      46.978 104.337  30.402  0.00  0.00    +0.024 A 
ATOM     33  C   UNL     1      45.604 104.165  30.804  0.00  0.00    +0.007 A 
ATOM     34  C   UNL     1      44.543 104.261  29.843  0.00  0.00    -0.029 A 
ATOM     35  C   UNL     1      43.088 104.075  30.331  0.00  0.00    +0.045 C 
ENDROOT
BRANCH  10   9
ATOM      4  C   UNL     1      42.464 107.010  25.130  0.00  0.00    +0.077 A 
ATOM      5  C   UNL     1      43.205 108.209  25.395  0.00  0.00    +0.048 A 
ATOM      6  C   UNL     1      44.200 108.149  26.397  0.00  0.00    +0.116 A 
ATOM      7  N   UNL     1      44.427 106.972  27.077  0.00  0.00    -0.223 NA
ATOM      8  C   UNL     1      43.692 105.834  26.797  0.00  0.00    +0.220 A 
ATOM      9  N   UNL     1      43.909 104.637  27.463  0.00  0.00    -0.283 N 
ATOM     36  H   UNL     1      43.341 103.822  27.233  0.00  0.00    +0.155 HD
ATOM     37  N   UNL     1      42.736 105.866  25.846  0.00  0.00    -0.214 NA
BRANCH   4   3
ATOM      1  C   UNL     1      40.533 107.077  21.728  0.00  0.00    +0.020 A 
ATOM      2  C   UNL     1      41.611 107.184  22.684  0.00  0.00    +0.013 A 
ATOM      3  C   UNL     1      41.383 106.915  24.098  0.00  0.00    +0.019 A 
ATOM     38  C   UNL     1      40.042 106.535  24.515  0.00  0.00    +0.120 A 
ATOM     39  N   UNL     1      39.022 106.441  23.573  0.00  0.00    -0.263 NA
ATOM     40  C   UNL     1      39.230 106.700  22.209  0.00  0.00    +0.111 A 
ENDBRANCH   4   3
ENDBRANCH  10   9
BRANCH  12  13
ATOM     13  N   UNL     1      48.720 104.775  28.723  0.00  0.00    -0.281 N 
ATOM     14  C   UNL     1      49.347 105.902  28.220  0.00  0.00    +0.248 C 
ATOM     30  O   UNL     1      48.762 106.875  27.767  0.00  0.00    -0.270 OA
ATOM     31  H   UNL     1      49.318 103.964  28.885  0.00  0.00    +0.155 HD
BRANCH  14  15
ATOM     15  C   UNL     1      50.841 105.951  28.203  0.00  0.00    +0.037 A 
ATOM     16  C   UNL     1      51.559 107.028  27.516  0.00  0.00    +0.013 A 
ATOM     17  C   UNL     1      53.000 107.041  27.500  0.00  0.00    +0.005 A 
ATOM     18  C   UNL     1      53.734 105.973  28.176  0.00  0.00    -0.033 A 
ATOM     28  C   UNL     1      52.997 104.920  28.853  0.00  0.00    +0.005 A 
ATOM     29  C   UNL     1      51.584 104.903  28.870  0.00  0.00    +0.013 A 
BRANCH  18  19
ATOM     19  C   UNL     1      55.272 105.896  28.192  0.00  0.00    +0.119 C 
BRANCH  19  20
ATOM     20  N   UNL     1      55.921 105.467  29.466  0.00  0.00    -0.302 NA
ATOM     21  C   UNL     1      56.873 106.534  30.014  0.00  0.00    +0.066 C 
ATOM     22  C   UNL     1      57.527 106.078  31.359  0.00  0.00    -0.064 C 
ATOM     23  N   UNL     1      58.264 104.755  31.142  0.00  0.00    +0.379 N 
ATOM     24  C   UNL     1      58.928 104.353  32.390  0.00  0.00    -0.096 C 
ATOM     25  H   UNL     1      59.056 104.931  30.378  0.00  0.00    -0.082 HD
ATOM     26  C   UNL     1      57.325 103.689  30.595  0.00  0.00    -0.064 C 
ATOM     27  C   UNL     1      56.658 104.164  29.274  0.00  0.00    +0.066 C 
ENDBRANCH  19  20
ENDBRANCH  18  19
ENDBRANCH  14  15
ENDBRANCH  12  13
TORSDOF 6
ENDMDL
MODEL 2
REMARK VINA RESULT:      -9.7     17.786     23.548
REMARK  Name = C:\Users\Docking\Desktop\test protocol\1iep_ligandH.pdb
REMARK  8 active torsions:
REMARK  status: ('A' for Active; 'I' for Inactive)
REMARK    1  A    between atoms: _5  and  _11
REMARK    2  A    between atoms: _19  and  _21
REMARK    3  A    between atoms: _22  and  _66
REMARK    4  A    between atoms: _27  and  _30
REMARK    5  A    between atoms: _32  and  _33
REMARK    6  A    between atoms: _38  and  _43
REMARK    7  A    between atoms: _43  and  _46
REMARK    8  A    between atoms: _53  and  _55
REMARK                            x       y       z     vdW  Elec       q    Type
REMARK                         _______ _______ _______ _____ _____    ______ ____
ROOT
ATOM     10  C   UNL     1      52.766  86.762  41.234  0.00  0.00    +0.038 A 
ATOM     11  C   UNL     1      52.090  87.833  40.595  0.00  0.00    +0.047 A 
ATOM     12  C   UNL     1      51.234  87.601  39.442  0.00  0.00    +0.035 A 
ATOM     32  C   UNL     1      51.087  86.265  38.968  0.00  0.00    +0.024 A 
ATOM     33  C   UNL     1      51.767  85.165  39.605  0.00  0.00    +0.007 A 
ATOM     34  C   UNL     1      52.615  85.388  40.741  0.00  0.00    -0.029 A 
ATOM     35  C   UNL     1      53.325  84.172  41.381  0.00  0.00    +0.045 C 
ENDROOT
BRANCH  10   9
ATOM      4  C   UNL     1      57.008  87.829  43.210  0.00  0.00    +0.077 A 
ATOM      5  C   UNL     1      57.674  87.800  41.940  0.00  0.00    +0.048 A 
ATOM      6  C   UNL     1      56.890  87.499  40.803  0.00  0.00    +0.116 A 
ATOM      7  N   UNL     1      55.542  87.248  40.939  0.00  0.00    -0.223 NA
ATOM      8  C   UNL     1      54.931  87.283  42.179  0.00  0.00    +0.220 A 
ATOM      9  N   UNL     1      53.575  87.042  42.338  0.00  0.00    -0.283 N 
ATOM     36  H   UNL     1      53.164  87.069  43.271  0.00  0.00    +0.155 HD
ATOM     37  N   UNL     1      55.658  87.566  43.280  0.00  0.00    -0.214 NA
BRANCH   4   3
ATOM      1  C   UNL     1      57.702  88.598  46.982  0.00  0.00    +0.020 A 
ATOM      2  C   UNL     1      56.986  88.305  45.762  0.00  0.00    +0.013 A 
ATOM      3  C   UNL     1      57.700  88.134  44.503  0.00  0.00    +0.019 A 
ATOM     38  C   UNL     1      59.149  88.267  44.512  0.00  0.00    +0.120 A 
ATOM     39  N   UNL     1      59.811  88.551  45.703  0.00  0.00    -0.263 NA
ATOM     40  C   UNL     1      59.135  88.720  46.920  0.00  0.00    +0.111 A 
ENDBRANCH   4   3
ENDBRANCH  10   9
BRANCH  12  13
ATOM     13  N   UNL     1      50.529  88.649  38.747  0.00  0.00    -0.281 N 
ATOM     14  C   UNL     1      49.417  89.356  39.175  0.00  0.00    +0.248 C 
ATOM     30  O   UNL     1      48.727  89.045  40.134  0.00  0.00    -0.270 OA
ATOM     31  H   UNL     1      50.895  88.901  37.829  0.00  0.00    +0.155 HD
BRANCH  14  15
ATOM     15  C   UNL     1      49.003  90.577  38.418  0.00  0.00    +0.037 A 
ATOM     16  C   UNL     1      49.853  91.769  38.376  0.00  0.00    +0.013 A 
ATOM     17  C   UNL     1      49.421  92.940  37.653  0.00  0.00    +0.005 A 
ATOM     18  C   UNL     1      48.133  92.922  36.965  0.00  0.00    -0.033 A 
ATOM     28  C   UNL     1      47.312  91.723  37.018  0.00  0.00    +0.005 A 
ATOM     29  C   UNL     1      47.731  90.575  37.727  0.00  0.00    +0.013 A 
BRANCH  18  19
ATOM     19  C   UNL     1      47.584  94.132  36.187  0.00  0.00    +0.119 C 
BRANCH  19  20
ATOM     20  N   UNL     1      48.543  95.229  35.863  0.00  0.00    -0.302 NA
ATOM     21  C   UNL     1      48.442  96.392  36.855  0.00  0.00    +0.066 C 
ATOM     22  C   UNL     1      49.469  97.521  36.514  0.00  0.00    -0.064 C 
ATOM     23  N   UNL     1      49.231  98.008  35.084  0.00  0.00    +0.379 N 
ATOM     24  C   UNL     1      50.157  99.109  34.780  0.00  0.00    -0.096 C 
ATOM     25  H   UNL     1      48.194  98.413  35.032  0.00  0.00    -0.082 HD
ATOM     26  C   UNL     1      49.327  96.858  34.091  0.00  0.00    -0.064 C 
ATOM     27  C   UNL     1      48.324  95.728  34.456  0.00  0.00    +0.066 C 
ENDBRANCH  19  20
ENDBRANCH  18  19
ENDBRANCH  14  15
ENDBRANCH  12  13
TORSDOF 6
ENDMDL
MODEL 3
REMARK VINA RESULT:      -9.7     18.428     21.601
REMARK  Name = C:\Users\Docking\Desktop\test protocol\1iep_ligandH.pdb
REMARK  8 active torsions:
REMARK  status: ('A' for Active; 'I' for Inactive)
REMARK    1  A    between atoms: _5  and  _11
REMARK    2  A    between atoms: _19  and  _21
REMARK    3  A    between atoms: _22  and  _66
REMARK    4  A    between atoms: _27  and  _30
REMARK    5  A    between atoms: _32  and  _33
REMARK    6  A    between atoms: _38  and  _43
REMARK    7  A    between atoms: _43  and  _46
REMARK    8  A    between atoms: _53  and  _55
REMARK                            x       y       z     vdW  Elec       q    Type
REMARK                         _______ _______ _______ _____ _____    ______ ____
ROOT
ATOM     10  C   UNL     1      50.159  90.824  40.053  0.00  0.00    +0.038 A 
ATOM     11  C   UNL     1      51.373  90.386  40.642  0.00  0.00    +0.047 A 
ATOM     12  C   UNL     1      51.491  89.058  41.223  0.00  0.00    +0.035 A 
ATOM     32  C   UNL     1      50.353  88.200  41.184  0.00  0.00    +0.024 A 
ATOM     33  C   UNL     1      49.111  88.629  40.591  0.00  0.00    +0.007 A 
ATOM     34  C   UNL     1      48.988  89.939  40.018  0.00  0.00    -0.029 A 
ATOM     35  C   UNL     1      47.630  90.349  39.401  0.00  0.00    +0.045 C 
ENDROOT
BRANCH  10   9
ATOM      4  C   UNL     1      50.074  93.842  36.322  0.00  0.00    +0.077 A 
ATOM      5  C   UNL     1      50.181  92.769  35.376  0.00  0.00    +0.048 A 
ATOM      6  C   UNL     1      50.262  91.456  35.890  0.00  0.00    +0.116 A 
ATOM      7  N   UNL     1      50.237  91.243  37.252  0.00  0.00    -0.223 NA
ATOM      8  C   UNL     1      50.136  92.301  38.137  0.00  0.00    +0.220 A 
ATOM      9  N   UNL     1      50.101  92.109  39.510  0.00  0.00    -0.283 N 
ATOM     36  H   UNL     1      50.033  92.916  40.130  0.00  0.00    +0.155 HD
ATOM     37  N   UNL     1      50.058  93.564  37.671  0.00  0.00    -0.214 NA
BRANCH   4   3
ATOM      1  C   UNL     1      49.884  97.139  34.225  0.00  0.00    +0.020 A 
ATOM      2  C   UNL     1      49.982  95.734  34.547  0.00  0.00    +0.013 A 
ATOM      3  C   UNL     1      49.976  95.285  35.933  0.00  0.00    +0.019 A 
ATOM     38  C   UNL     1      49.869  96.291  36.979  0.00  0.00    +0.120 A 
ATOM     39  N   UNL     1      49.778  97.637  36.639  0.00  0.00    -0.263 NA
ATOM     40  C   UNL     1      49.784  98.081  35.309  0.00  0.00    +0.111 A 
ENDBRANCH   4   3
ENDBRANCH  10   9
BRANCH  12  13
ATOM     13  N   UNL     1      52.695  88.561  41.841  0.00  0.00    -0.281 N 
ATOM     14  C   UNL     1      53.531  87.552  41.390  0.00  0.00    +0.248 C 
ATOM     30  O   UNL     1      53.252  86.775  40.489  0.00  0.00    -0.270 OA
ATOM     31  H   UNL     1      52.964  89.007  42.718  0.00  0.00    +0.155 HD
BRANCH  14  15
ATOM     15  C   UNL     1      54.863  87.372  42.043  0.00  0.00    +0.037 A 
ATOM     16  C   UNL     1      55.595  86.108  41.940  0.00  0.00    +0.013 A 
ATOM     17  C   UNL     1      56.871  85.955  42.593  0.00  0.00    +0.005 A 
ATOM     18  C   UNL     1      57.423  87.072  43.356  0.00  0.00    -0.033 A 
ATOM     28  C   UNL     1      56.678  88.317  43.438  0.00  0.00    +0.005 A 
ATOM     29  C   UNL     1      55.427  88.470  42.799  0.00  0.00    +0.013 A 
BRANCH  18  19
ATOM     19  C   UNL     1      58.767  86.991  44.103  0.00  0.00    +0.119 C 
BRANCH  19  20
ATOM     20  N   UNL     1      58.724  86.628  45.551  0.00  0.00    -0.302 NA
ATOM     21  C   UNL     1      57.756  85.474  45.825  0.00  0.00    +0.066 C 
ATOM     22  C   UNL     1      57.740  85.092  47.341  0.00  0.00    -0.064 C 
ATOM     23  N   UNL     1      57.365  86.321  48.170  0.00  0.00    +0.379 N 
ATOM     24  C   UNL     1      57.292  85.952  49.591  0.00  0.00    -0.096 C 
ATOM     25  H   UNL     1      56.346  86.645  47.852  0.00  0.00    -0.082 HD
ATOM     26  C   UNL     1      58.321  87.475  47.901  0.00  0.00    -0.064 C 
ATOM     27  C   UNL     1      58.351  87.827  46.388  0.00  0.00    +0.066 C 
ENDBRANCH  19  20
ENDBRANCH  18  19
ENDBRANCH  14  15
ENDBRANCH  12  13
TORSDOF 6
ENDMDL
MODEL 4
REMARK VINA RESULT:      -9.4      2.611      3.827
REMARK  Name = C:\Users\Docking\Desktop\test protocol\1iep_ligandH.pdb
REMARK  8 active torsions:
REMARK  status: ('A' for Active; 'I' for Inactive)
REMARK    1  A    between atoms: _5  and  _11
REMARK    2  A    between atoms: _19  and  _21
REMARK    3  A    between atoms: _22  and  _66
REMARK    4  A    between atoms: _27  and  _30
REMARK    5  A    between atoms: _32  and  _33
REMARK    6  A    between atoms: _38  and  _43
REMARK    7  A    between atoms: _43  and  _46
REMARK    8  A    between atoms: _53  and  _55
REMARK                            x       y       z     vdW  Elec       q    Type
REMARK                         _______ _______ _______ _____ _____    ______ ____
ROOT
ATOM     10  C   UNL     1      48.213 104.729  28.963  0.00  0.00    +0.038 A 
ATOM     11  C   UNL     1      49.546 104.821  28.489  0.00  0.00    +0.047 A 
ATOM     12  C   UNL     1      50.676 104.755  29.403  0.00  0.00    +0.035 A 
ATOM     32  C   UNL     1      50.411 104.593  30.794  0.00  0.00    +0.024 A 
ATOM     33  C   UNL     1      49.062 104.499  31.294  0.00  0.00    +0.007 A 
ATOM     34  C   UNL     1      47.943 104.566  30.397  0.00  0.00    -0.029 A 
ATOM     35  C   UNL     1      46.518 104.466  30.988  0.00  0.00    +0.045 C 
ENDROOT
BRANCH  10   9
ATOM      4  C   UNL     1      45.241 107.190  26.109  0.00  0.00    +0.077 A 
ATOM      5  C   UNL     1      45.803 108.447  26.509  0.00  0.00    +0.048 A 
ATOM      6  C   UNL     1      46.851 108.418  27.457  0.00  0.00    +0.116 A 
ATOM      7  N   UNL     1      47.295 107.214  27.960  0.00  0.00    -0.223 NA
ATOM      8  C   UNL     1      46.730 106.020  27.554  0.00  0.00    +0.220 A 
ATOM      9  N   UNL     1      47.166 104.797  28.041  0.00  0.00    -0.283 N 
ATOM     36  H   UNL     1      46.718 103.938  27.722  0.00  0.00    +0.155 HD
ATOM     37  N   UNL     1      45.727 106.021  26.651  0.00  0.00    -0.214 NA
BRANCH   4   3
ATOM      1  C   UNL     1      41.804 106.349  24.441  0.00  0.00    +0.020 A 
ATOM      2  C   UNL     1      42.843 106.453  25.439  0.00  0.00    +0.013 A 
ATOM      3  C   UNL     1      44.130 107.056  25.114  0.00  0.00    +0.019 A 
ATOM     38  C   UNL     1      44.334 107.549  23.760  0.00  0.00    +0.120 A 
ATOM     39  N   UNL     1      43.315 107.433  22.819  0.00  0.00    -0.263 NA
ATOM     40  C   UNL     1      42.073 106.853  23.120  0.00  0.00    +0.111 A 
ENDBRANCH   4   3
ENDBRANCH  10   9
BRANCH  12  13
ATOM     13  N   UNL     1      52.052 104.851  28.981  0.00  0.00    -0.281 N 
ATOM     14  C   UNL     1      52.673 105.908  28.336  0.00  0.00    +0.248 C 
ATOM     30  O   UNL     1      52.084 106.852  27.831  0.00  0.00    -0.270 OA
ATOM     31  H   UNL     1      52.638 104.041  29.182  0.00  0.00    +0.155 HD
BRANCH  14  15
ATOM     15  C   UNL     1      54.163 105.910  28.224  0.00  0.00    +0.037 A 
ATOM     16  C   UNL     1      54.858 106.853  27.344  0.00  0.00    +0.013 A 
ATOM     17  C   UNL     1      56.295 106.822  27.241  0.00  0.00    +0.005 A 
ATOM     18  C   UNL     1      57.048 105.843  28.022  0.00  0.00    -0.033 A 
ATOM     28  C   UNL     1      56.334 104.922  28.891  0.00  0.00    +0.005 A 
ATOM     29  C   UNL     1      54.925 104.949  28.993  0.00  0.00    +0.013 A 
BRANCH  18  19
ATOM     19  C   UNL     1      58.582 105.724  27.959  0.00  0.00    +0.119 C 
BRANCH  19  20
ATOM     20  N   UNL     1      59.147 104.553  27.224  0.00  0.00    -0.302 NA
ATOM     21  C   UNL     1      58.110 103.892  26.312  0.00  0.00    +0.066 C 
ATOM     22  C   UNL     1      58.725 102.683  25.534  0.00  0.00    -0.064 C 
ATOM     23  N   UNL     1      59.289 101.672  26.533  0.00  0.00    +0.379 N 
ATOM     24  C   UNL     1      59.815 100.507  25.807  0.00  0.00    -0.096 C 
ATOM     25  H   UNL     1      58.446 101.320  27.172  0.00  0.00    -0.082 HD
ATOM     26  C   UNL     1      60.319 102.321  27.446  0.00  0.00    -0.064 C 
ATOM     27  C   UNL     1      59.707 103.540  28.192  0.00  0.00    +0.066 C 
ENDBRANCH  19  20
ENDBRANCH  18  19
ENDBRANCH  14  15
ENDBRANCH  12  13
TORSDOF 6
ENDMDL
MODEL 5
REMARK VINA RESULT:      -9.3     16.701     22.705
REMARK  Name = C:\Users\Docking\Desktop\test protocol\1iep_ligandH.pdb
REMARK  8 active torsions:
REMARK  status: ('A' for Active; 'I' for Inactive)
REMARK    1  A    between atoms: _5  and  _11
REMARK    2  A    between atoms: _19  and  _21
REMARK    3  A    between atoms: _22  and  _66
REMARK    4  A    between atoms: _27  and  _30
REMARK    5  A    between atoms: _32  and  _33
REMARK    6  A    between atoms: _38  and  _43
REMARK    7  A    between atoms: _43  and  _46
REMARK    8  A    between atoms: _53  and  _55
REMARK                            x       y       z     vdW  Elec       q    Type
REMARK                         _______ _______ _______ _____ _____    ______ ____
ROOT
ATOM     10  C   UNL     1      53.287  87.186  40.113  0.00  0.00    +0.038 A 
ATOM     11  C   UNL     1      52.322  87.922  39.380  0.00  0.00    +0.047 A 
ATOM     12  C   UNL     1      51.105  87.291  38.892  0.00  0.00    +0.035 A 
ATOM     32  C   UNL     1      50.903  85.908  39.171  0.00  0.00    +0.024 A 
ATOM     33  C   UNL     1      51.875  85.144  39.914  0.00  0.00    +0.007 A 
ATOM     34  C   UNL     1      53.078  85.761  40.395  0.00  0.00    -0.029 A 
ATOM     35  C   UNL     1      54.088  84.891  41.180  0.00  0.00    +0.045 C 
ENDROOT
BRANCH  10   9
ATOM      4  C   UNL     1      57.712  88.911  39.419  0.00  0.00    +0.077 A 
ATOM      5  C   UNL     1      57.747  88.440  38.064  0.00  0.00    +0.048 A 
ATOM      6  C   UNL     1      56.609  87.753  37.586  0.00  0.00    +0.116 A 
ATOM      7  N   UNL     1      55.522  87.557  38.411  0.00  0.00    -0.223 NA
ATOM      8  C   UNL     1      55.522  88.022  39.713  0.00  0.00    +0.220 A 
ATOM      9  N   UNL     1      54.437  87.842  40.558  0.00  0.00    -0.283 N 
ATOM     36  H   UNL     1      54.479  88.194  41.514  0.00  0.00    +0.155 HD
ATOM     37  N   UNL     1      56.597  88.680  40.194  0.00  0.00    -0.214 NA
BRANCH   4   3
ATOM      1  C   UNL     1      60.727  91.327  40.030  0.00  0.00    +0.020 A 
ATOM      2  C   UNL     1      59.653  90.634  39.357  0.00  0.00    +0.013 A 
ATOM      3  C   UNL     1      58.837  89.657  40.067  0.00  0.00    +0.019 A 
ATOM     38  C   UNL     1      59.136  89.403  41.469  0.00  0.00    +0.120 A 
ATOM     39  N   UNL     1      60.177  90.085  42.090  0.00  0.00    -0.263 NA
ATOM     40  C   UNL     1      60.970  91.026  41.417  0.00  0.00    +0.111 A 
ENDBRANCH   4   3
ENDBRANCH  10   9
BRANCH  12  13
ATOM     13  N   UNL     1      50.093  87.986  38.136  0.00  0.00    -0.281 N 
ATOM     14  C   UNL     1      49.160  88.899  38.600  0.00  0.00    +0.248 C 
ATOM     30  O   UNL     1      48.916  89.098  39.780  0.00  0.00    -0.270 OA
ATOM     31  H   UNL     1      50.060  87.779  37.138  0.00  0.00    +0.155 HD
BRANCH  14  15
ATOM     15  C   UNL     1      48.376  89.697  37.608  0.00  0.00    +0.037 A 
ATOM     16  C   UNL     1      48.592  89.542  36.167  0.00  0.00    +0.013 A 
ATOM     17  C   UNL     1      47.834  90.337  35.233  0.00  0.00    +0.005 A 
ATOM     18  C   UNL     1      46.852  91.292  35.738  0.00  0.00    -0.033 A 
ATOM     28  C   UNL     1      46.654  91.422  37.172  0.00  0.00    +0.005 A 
ATOM     29  C   UNL     1      47.396  90.646  38.091  0.00  0.00    +0.013 A 
BRANCH  18  19
ATOM     19  C   UNL     1      46.013  92.196  34.815  0.00  0.00    +0.119 C 
BRANCH  19  20
ATOM     20  N   UNL     1      46.529  93.573  34.554  0.00  0.00    -0.302 NA
ATOM     21  C   UNL     1      48.058  93.608  34.471  0.00  0.00    +0.066 C 
ATOM     22  C   UNL     1      48.579  95.052  34.175  0.00  0.00    -0.064 C 
ATOM     23  N   UNL     1      48.074  96.006  35.260  0.00  0.00    +0.379 N 
ATOM     24  C   UNL     1      48.610  97.353  35.017  0.00  0.00    -0.096 C 
ATOM     25  H   UNL     1      48.479  95.651  36.236  0.00  0.00    -0.082 HD
ATOM     26  C   UNL     1      46.555  95.975  35.351  0.00  0.00    -0.064 C 
ATOM     27  C   UNL     1      46.046  94.531  35.616  0.00  0.00    +0.066 C 
ENDBRANCH  19  20
ENDBRANCH  18  19
ENDBRANCH  14  15
ENDBRANCH  12  13
TORSDOF 6
ENDMDL
