MODEL 1
REMARK VINA RESULT:      -8.1      0.000      0.000
REMARK  Name = C:\Users\Docking\Desktop\test protocol\1iep_ligandH.pdb
REMARK  8 active torsions:
REMARK  status: ('A' for Active; 'I' for Inactive)
REMARK    1  A    between atoms: _5  and  _11
REMARK    2  A    between atoms: _19  and  _21
REMARK    3  A    between atoms: _22  and  _66
REMARK    4  A    between atoms: _27  and  _30
REMARK    5  A    between atoms: _32  and  _33
REMARK    6  A    between atoms: _38  and  _43
REMARK    7  A    between atoms: _43  and  _46
REMARK    8  A    between atoms: _53  and  _55
REMARK                            x       y       z     vdW  Elec       q    Type
REMARK                         _______ _______ _______ _____ _____    ______ ____
ROOT
ATOM     10  C   UNL     1     -10.822  24.025  25.241  0.00  0.00    +0.038 A 
ATOM     11  C   UNL     1     -10.680  22.874  26.057  0.00  0.00    +0.047 A 
ATOM     12  C   UNL     1     -10.335  21.582  25.484  0.00  0.00    +0.035 A 
ATOM     32  C   UNL     1     -10.139  21.499  24.075  0.00  0.00    +0.024 A 
ATOM     33  C   UNL     1     -10.280  22.659  23.230  0.00  0.00    +0.007 A 
ATOM     34  C   UNL     1     -10.623  23.935  23.789  0.00  0.00    -0.029 A 
ATOM     35  C   UNL     1     -10.768  25.143  22.834  0.00  0.00    +0.045 C 
ENDROOT
BRANCH  10   9
ATOM      4  C   UNL     1     -13.960  27.488  26.336  0.00  0.00    +0.077 A 
ATOM      5  C   UNL     1     -15.019  26.835  25.623  0.00  0.00    +0.048 A 
ATOM      6  C   UNL     1     -14.714  25.613  24.982  0.00  0.00    +0.116 A 
ATOM      7  N   UNL     1     -13.440  25.092  25.056  0.00  0.00    -0.223 NA
ATOM      8  C   UNL     1     -12.441  25.749  25.750  0.00  0.00    +0.220 A 
ATOM      9  N   UNL     1     -11.155  25.240  25.844  0.00  0.00    -0.283 N 
ATOM     36  H   UNL     1     -10.443  25.758  26.359  0.00  0.00    +0.155 HD
ATOM     37  N   UNL     1     -12.707  26.918  26.369  0.00  0.00    -0.214 NA
BRANCH   4   3
ATOM      1  C   UNL     1     -13.609  30.363  28.964  0.00  0.00    +0.020 A 
ATOM      2  C   UNL     1     -13.412  29.097  28.298  0.00  0.00    +0.013 A 
ATOM      3  C   UNL     1     -14.127  28.784  27.067  0.00  0.00    +0.019 A 
ATOM     38  C   UNL     1     -15.040  29.782  26.532  0.00  0.00    +0.120 A 
ATOM     39  N   UNL     1     -15.211  30.992  27.196  0.00  0.00    -0.263 NA
ATOM     40  C   UNL     1     -14.530  31.304  28.382  0.00  0.00    +0.111 A 
ENDBRANCH   4   3
ENDBRANCH  10   9
BRANCH  12  13
ATOM     13  N   UNL     1     -10.185  20.378  26.263  0.00  0.00    -0.281 N 
ATOM     14  C   UNL     1      -9.073  19.556  26.355  0.00  0.00    +0.248 C 
ATOM     30  O   UNL     1      -8.105  19.618  25.612  0.00  0.00    -0.270 OA
ATOM     31  H   UNL     1     -10.997  20.096  26.812  0.00  0.00    +0.155 HD
BRANCH  14  15
ATOM     15  C   UNL     1      -9.038  18.506  27.418  0.00  0.00    +0.037 A 
ATOM     16  C   UNL     1     -10.265  18.048  28.075  0.00  0.00    +0.013 A 
ATOM     17  C   UNL     1     -10.201  17.046  29.109  0.00  0.00    +0.005 A 
ATOM     18  C   UNL     1      -8.904  16.494  29.492  0.00  0.00    -0.033 A 
ATOM     28  C   UNL     1      -7.703  16.963  28.821  0.00  0.00    +0.005 A 
ATOM     29  C   UNL     1      -7.762  17.945  27.807  0.00  0.00    +0.013 A 
BRANCH  18  19
ATOM     19  C   UNL     1      -8.739  15.436  30.600  0.00  0.00    +0.119 C 
BRANCH  19  20
ATOM     20  N   UNL     1      -9.156  15.822  31.981  0.00  0.00    -0.302 NA
ATOM     21  C   UNL     1      -8.368  17.027  32.503  0.00  0.00    +0.066 C 
ATOM     22  C   UNL     1      -8.833  17.431  33.940  0.00  0.00    -0.064 C 
ATOM     23  N   UNL     1      -8.677  16.234  34.879  0.00  0.00    +0.379 N 
ATOM     24  C   UNL     1      -9.058  16.627  36.243  0.00  0.00    -0.096 C 
ATOM     25  H   UNL     1      -7.597  15.956  34.896  0.00  0.00    -0.082 HD
ATOM     26  C   UNL     1      -9.455  15.030  34.366  0.00  0.00    -0.064 C 
ATOM     27  C   UNL     1      -9.006  14.656  32.926  0.00  0.00    +0.066 C 
ENDBRANCH  19  20
ENDBRANCH  18  19
ENDBRANCH  14  15
ENDBRANCH  12  13
TORSDOF 6
ENDMDL
MODEL 2
REMARK VINA RESULT:      -8.0      2.337      2.880
REMARK  Name = C:\Users\Docking\Desktop\test protocol\1iep_ligandH.pdb
REMARK  8 active torsions:
REMARK  status: ('A' for Active; 'I' for Inactive)
REMARK    1  A    between atoms: _5  and  _11
REMARK    2  A    between atoms: _19  and  _21
REMARK    3  A    between atoms: _22  and  _66
REMARK    4  A    between atoms: _27  and  _30
REMARK    5  A    between atoms: _32  and  _33
REMARK    6  A    between atoms: _38  and  _43
REMARK    7  A    between atoms: _43  and  _46
REMARK    8  A    between atoms: _53  and  _55
REMARK                            x       y       z     vdW  Elec       q    Type
REMARK                         _______ _______ _______ _____ _____    ______ ____
ROOT
ATOM     10  C   UNL     1     -10.264  23.639  25.112  0.00  0.00    +0.038 A 
ATOM     11  C   UNL     1     -10.034  22.641  26.094  0.00  0.00    +0.047 A 
ATOM     12  C   UNL     1      -9.618  21.299  25.718  0.00  0.00    +0.035 A 
ATOM     32  C   UNL     1      -9.444  21.008  24.334  0.00  0.00    +0.024 A 
ATOM     33  C   UNL     1      -9.675  22.010  23.323  0.00  0.00    +0.007 A 
ATOM     34  C   UNL     1     -10.087  23.335  23.687  0.00  0.00    -0.029 A 
ATOM     35  C   UNL     1     -10.327  24.367  22.561  0.00  0.00    +0.045 C 
ENDROOT
BRANCH  10   9
ATOM      4  C   UNL     1     -13.637  26.900  26.126  0.00  0.00    +0.077 A 
ATOM      5  C   UNL     1     -14.697  26.001  25.770  0.00  0.00    +0.048 A 
ATOM      6  C   UNL     1     -14.331  24.711  25.324  0.00  0.00    +0.116 A 
ATOM      7  N   UNL     1     -13.002  24.357  25.244  0.00  0.00    -0.223 NA
ATOM      8  C   UNL     1     -12.005  25.249  25.594  0.00  0.00    +0.220 A 
ATOM      9  N   UNL     1     -10.661  24.912  25.529  0.00  0.00    -0.283 N 
ATOM     36  H   UNL     1      -9.956  25.600  25.789  0.00  0.00    +0.155 HD
ATOM     37  N   UNL     1     -12.328  26.487  26.021  0.00  0.00    -0.214 NA
BRANCH   4   3
ATOM      1  C   UNL     1     -13.233  30.308  28.002  0.00  0.00    +0.020 A 
ATOM      2  C   UNL     1     -12.970  28.958  27.559  0.00  0.00    +0.013 A 
ATOM      3  C   UNL     1     -13.864  28.295  26.618  0.00  0.00    +0.019 A 
ATOM     38  C   UNL     1     -15.024  29.032  26.140  0.00  0.00    +0.120 A 
ATOM     39  N   UNL     1     -15.253  30.330  26.586  0.00  0.00    -0.263 NA
ATOM     40  C   UNL     1     -14.401  30.977  27.493  0.00  0.00    +0.111 A 
ENDBRANCH   4   3
ENDBRANCH  10   9
BRANCH  12  13
ATOM     13  N   UNL     1      -9.377  20.242  26.670  0.00  0.00    -0.281 N 
ATOM     14  C   UNL     1     -10.075  19.055  26.819  0.00  0.00    +0.248 C 
ATOM     30  O   UNL     1     -11.152  18.816  26.293  0.00  0.00    -0.270 OA
ATOM     31  H   UNL     1      -8.597  20.387  27.311  0.00  0.00    +0.155 HD
BRANCH  14  15
ATOM     15  C   UNL     1      -9.501  17.984  27.689  0.00  0.00    +0.037 A 
ATOM     16  C   UNL     1     -10.311  16.844  28.126  0.00  0.00    +0.013 A 
ATOM     17  C   UNL     1      -9.737  15.834  28.979  0.00  0.00    +0.005 A 
ATOM     18  C   UNL     1      -8.344  15.959  29.400  0.00  0.00    -0.033 A 
ATOM     28  C   UNL     1      -7.562  17.097  28.948  0.00  0.00    +0.005 A 
ATOM     29  C   UNL     1      -8.121  18.090  28.112  0.00  0.00    +0.013 A 
BRANCH  18  19
ATOM     19  C   UNL     1      -7.656  14.939  30.327  0.00  0.00    +0.119 C 
BRANCH  19  20
ATOM     20  N   UNL     1      -6.164  14.881  30.290  0.00  0.00    -0.302 NA
ATOM     21  C   UNL     1      -5.653  13.494  29.887  0.00  0.00    +0.066 C 
ATOM     22  C   UNL     1      -4.091  13.457  29.832  0.00  0.00    -0.064 C 
ATOM     23  N   UNL     1      -3.526  13.868  31.193  0.00  0.00    +0.379 N 
ATOM     24  C   UNL     1      -2.059  13.778  31.162  0.00  0.00    -0.096 C 
ATOM     25  H   UNL     1      -3.894  13.134  31.947  0.00  0.00    -0.082 HD
ATOM     26  C   UNL     1      -4.031  15.244  31.603  0.00  0.00    -0.064 C 
ATOM     27  C   UNL     1      -5.584  15.279  31.625  0.00  0.00    +0.066 C 
ENDBRANCH  19  20
ENDBRANCH  18  19
ENDBRANCH  14  15
ENDBRANCH  12  13
TORSDOF 6
ENDMDL
MODEL 3
REMARK VINA RESULT:      -7.7      2.826     12.455
REMARK  Name = C:\Users\Docking\Desktop\test protocol\1iep_ligandH.pdb
REMARK  8 active torsions:
REMARK  status: ('A' for Active; 'I' for Inactive)
REMARK    1  A    between atoms: _5  and  _11
REMARK    2  A    between atoms: _19  and  _21
REMARK    3  A    between atoms: _22  and  _66
REMARK    4  A    between atoms: _27  and  _30
REMARK    5  A    between atoms: _32  and  _33
REMARK    6  A    between atoms: _38  and  _43
REMARK    7  A    between atoms: _43  and  _46
REMARK    8  A    between atoms: _53  and  _55
REMARK                            x       y       z     vdW  Elec       q    Type
REMARK                         _______ _______ _______ _____ _____    ______ ____
ROOT
ATOM     10  C   UNL     1      -7.452  18.930  25.664  0.00  0.00    +0.038 A 
ATOM     11  C   UNL     1      -8.227  20.054  26.049  0.00  0.00    +0.047 A 
ATOM     12  C   UNL     1      -9.193  20.650  25.139  0.00  0.00    +0.035 A 
ATOM     32  C   UNL     1      -9.346  20.073  23.844  0.00  0.00    +0.024 A 
ATOM     33  C   UNL     1      -8.566  18.932  23.436  0.00  0.00    +0.007 A 
ATOM     34  C   UNL     1      -7.610  18.341  24.328  0.00  0.00    -0.029 A 
ATOM     35  C   UNL     1      -6.796  17.122  23.835  0.00  0.00    +0.045 C 
ENDROOT
BRANCH  10   9
ATOM      4  C   UNL     1      -6.291  15.937  29.231  0.00  0.00    +0.077 A 
ATOM      5  C   UNL     1      -7.622  15.406  29.299  0.00  0.00    +0.048 A 
ATOM      6  C   UNL     1      -8.578  15.936  28.403  0.00  0.00    +0.116 A 
ATOM      7  N   UNL     1      -8.218  16.922  27.510  0.00  0.00    -0.223 NA
ATOM      8  C   UNL     1      -6.926  17.413  27.472  0.00  0.00    +0.220 A 
ATOM      9  N   UNL     1      -6.539  18.399  26.577  0.00  0.00    -0.283 N 
ATOM     36  H   UNL     1      -5.578  18.739  26.586  0.00  0.00    +0.155 HD
ATOM     37  N   UNL     1      -5.995  16.925  28.319  0.00  0.00    -0.214 NA
BRANCH   4   3
ATOM      1  C   UNL     1      -4.088  15.144  32.365  0.00  0.00    +0.020 A 
ATOM      2  C   UNL     1      -5.197  15.604  31.562  0.00  0.00    +0.013 A 
ATOM      3  C   UNL     1      -5.169  15.477  30.110  0.00  0.00    +0.019 A 
ATOM     38  C   UNL     1      -3.995  14.875  29.497  0.00  0.00    +0.120 A 
ATOM     39  N   UNL     1      -2.941  14.443  30.296  0.00  0.00    -0.263 NA
ATOM     40  C   UNL     1      -2.956  14.561  31.693  0.00  0.00    +0.111 A 
ENDBRANCH   4   3
ENDBRANCH  10   9
BRANCH  12  13
ATOM     13  N   UNL     1     -10.002  21.796  25.471  0.00  0.00    -0.281 N 
ATOM     14  C   UNL     1      -9.882  23.091  24.993  0.00  0.00    +0.248 C 
ATOM     30  O   UNL     1      -8.921  23.509  24.365  0.00  0.00    -0.270 OA
ATOM     31  H   UNL     1     -10.754  21.634  26.141  0.00  0.00    +0.155 HD
BRANCH  14  15
ATOM     15  C   UNL     1     -10.982  24.066  25.265  0.00  0.00    +0.037 A 
ATOM     16  C   UNL     1     -11.822  23.950  26.459  0.00  0.00    +0.013 A 
ATOM     17  C   UNL     1     -12.887  24.894  26.688  0.00  0.00    +0.005 A 
ATOM     18  C   UNL     1     -13.117  25.963  25.720  0.00  0.00    -0.033 A 
ATOM     28  C   UNL     1     -12.265  26.058  24.546  0.00  0.00    +0.005 A 
ATOM     29  C   UNL     1     -11.220  25.134  24.318  0.00  0.00    +0.013 A 
BRANCH  18  19
ATOM     19  C   UNL     1     -14.244  27.002  25.873  0.00  0.00    +0.119 C 
BRANCH  19  20
ATOM     20  N   UNL     1     -13.856  28.370  26.330  0.00  0.00    -0.302 NA
ATOM     21  C   UNL     1     -13.232  28.352  27.728  0.00  0.00    +0.066 C 
ATOM     22  C   UNL     1     -12.812  29.788  28.182  0.00  0.00    -0.064 C 
ATOM     23  N   UNL     1     -14.032  30.710  28.144  0.00  0.00    +0.379 N 
ATOM     24  C   UNL     1     -13.653  32.046  28.625  0.00  0.00    -0.096 C 
ATOM     25  H   UNL     1     -14.789  30.298  28.852  0.00  0.00    -0.082 HD
ATOM     26  C   UNL     1     -14.660  30.731  26.758  0.00  0.00    -0.064 C 
ATOM     27  C   UNL     1     -15.047  29.295  26.305  0.00  0.00    +0.066 C 
ENDBRANCH  19  20
ENDBRANCH  18  19
ENDBRANCH  14  15
ENDBRANCH  12  13
TORSDOF 6
ENDMDL
MODEL 4
REMARK VINA RESULT:      -7.7      5.725     12.832
REMARK  Name = C:\Users\Docking\Desktop\test protocol\1iep_ligandH.pdb
REMARK  8 active torsions:
REMARK  status: ('A' for Active; 'I' for Inactive)
REMARK    1  A    between atoms: _5  and  _11
REMARK    2  A    between atoms: _19  and  _21
REMARK    3  A    between atoms: _22  and  _66
REMARK    4  A    between atoms: _27  and  _30
REMARK    5  A    between atoms: _32  and  _33
REMARK    6  A    between atoms: _38  and  _43
REMARK    7  A    between atoms: _43  and  _46
REMARK    8  A    between atoms: _53  and  _55
REMARK                            x       y       z     vdW  Elec       q    Type
REMARK                         _______ _______ _______ _____ _____    ______ ____
ROOT
ATOM     10  C   UNL     1     -13.066  23.047  26.365  0.00  0.00    +0.038 A 
ATOM     11  C   UNL     1     -13.363  24.409  26.630  0.00  0.00    +0.047 A 
ATOM     12  C   UNL     1     -12.486  25.474  26.168  0.00  0.00    +0.035 A 
ATOM     32  C   UNL     1     -11.317  25.116  25.435  0.00  0.00    +0.024 A 
ATOM     33  C   UNL     1     -11.000  23.737  25.158  0.00  0.00    +0.007 A 
ATOM     34  C   UNL     1     -11.859  22.682  25.614  0.00  0.00    -0.029 A 
ATOM     35  C   UNL     1     -11.466  21.222  25.293  0.00  0.00    +0.045 C 
ENDROOT
BRANCH  10   9
ATOM      4  C   UNL     1     -16.875  20.175  25.837  0.00  0.00    +0.077 A 
ATOM      5  C   UNL     1     -17.159  20.693  24.530  0.00  0.00    +0.048 A 
ATOM      6  C   UNL     1     -16.305  21.703  24.033  0.00  0.00    +0.116 A 
ATOM      7  N   UNL     1     -15.249  22.153  24.795  0.00  0.00    -0.223 NA
ATOM      8  C   UNL     1     -15.004  21.633  26.052  0.00  0.00    +0.220 A 
ATOM      9  N   UNL     1     -13.943  22.065  26.833  0.00  0.00    -0.283 N 
ATOM     36  H   UNL     1     -13.800  21.662  27.758  0.00  0.00    +0.155 HD
ATOM     37  N   UNL     1     -15.806  20.669  26.550  0.00  0.00    -0.214 NA
BRANCH   4   3
ATOM      1  C   UNL     1     -18.909  16.897  26.486  0.00  0.00    +0.020 A 
ATOM      2  C   UNL     1     -18.129  17.903  25.801  0.00  0.00    +0.013 A 
ATOM      3  C   UNL     1     -17.684  19.103  26.498  0.00  0.00    +0.019 A 
ATOM     38  C   UNL     1     -18.047  19.256  27.899  0.00  0.00    +0.120 A 
ATOM     39  N   UNL     1     -18.800  18.272  28.532  0.00  0.00    -0.263 NA
ATOM     40  C   UNL     1     -19.235  17.113  27.871  0.00  0.00    +0.111 A 
ENDBRANCH   4   3
ENDBRANCH  10   9
BRANCH  12  13
ATOM     13  N   UNL     1     -12.732  26.873  26.414  0.00  0.00    -0.281 N 
ATOM     14  C   UNL     1     -13.912  27.575  26.233  0.00  0.00    +0.248 C 
ATOM     30  O   UNL     1     -14.884  27.149  25.626  0.00  0.00    -0.270 OA
ATOM     31  H   UNL     1     -11.939  27.411  26.764  0.00  0.00    +0.155 HD
BRANCH  14  15
ATOM     15  C   UNL     1     -14.024  28.956  26.795  0.00  0.00    +0.037 A 
ATOM     16  C   UNL     1     -15.094  29.864  26.372  0.00  0.00    +0.013 A 
ATOM     17  C   UNL     1     -15.169  31.196  26.917  0.00  0.00    +0.005 A 
ATOM     18  C   UNL     1     -14.172  31.628  27.894  0.00  0.00    -0.033 A 
ATOM     28  C   UNL     1     -13.125  30.705  28.299  0.00  0.00    +0.005 A 
ATOM     29  C   UNL     1     -13.047  29.398  27.766  0.00  0.00    +0.013 A 
BRANCH  18  19
ATOM     19  C   UNL     1     -14.162  33.038  28.512  0.00  0.00    +0.119 C 
BRANCH  19  20
ATOM     20  N   UNL     1     -15.457  33.561  29.041  0.00  0.00    -0.302 NA
ATOM     21  C   UNL     1     -16.129  34.528  28.063  0.00  0.00    +0.066 C 
ATOM     22  C   UNL     1     -17.493  35.048  28.623  0.00  0.00    -0.064 C 
ATOM     23  N   UNL     1     -17.262  35.721  29.977  0.00  0.00    +0.379 N 
ATOM     24  C   UNL     1     -18.533  36.263  30.479  0.00  0.00    -0.096 C 
ATOM     25  H   UNL     1     -16.570  36.580  29.814  0.00  0.00    -0.082 HD
ATOM     26  C   UNL     1     -16.591  34.767  30.955  0.00  0.00    -0.064 C 
ATOM     27  C   UNL     1     -15.251  34.234  30.376  0.00  0.00    +0.066 C 
ENDBRANCH  19  20
ENDBRANCH  18  19
ENDBRANCH  14  15
ENDBRANCH  12  13
TORSDOF 6
ENDMDL
MODEL 5
REMARK VINA RESULT:      -7.6      4.348     14.127
REMARK  Name = C:\Users\Docking\Desktop\test protocol\1iep_ligandH.pdb
REMARK  8 active torsions:
REMARK  status: ('A' for Active; 'I' for Inactive)
REMARK    1  A    between atoms: _5  and  _11
REMARK    2  A    between atoms: _19  and  _21
REMARK    3  A    between atoms: _22  and  _66
REMARK    4  A    between atoms: _27  and  _30
REMARK    5  A    between atoms: _32  and  _33
REMARK    6  A    between atoms: _38  and  _43
REMARK    7  A    between atoms: _43  and  _46
REMARK    8  A    between atoms: _53  and  _55
REMARK                            x       y       z     vdW  Elec       q    Type
REMARK                         _______ _______ _______ _____ _____    ______ ____
ROOT
ATOM     10  C   UNL     1      -7.559  15.182  30.177  0.00  0.00    +0.038 A 
ATOM     11  C   UNL     1      -7.773  16.156  29.168  0.00  0.00    +0.047 A 
ATOM     12  C   UNL     1      -8.587  17.335  29.421  0.00  0.00    +0.035 A 
ATOM     32  C   UNL     1      -9.166  17.491  30.714  0.00  0.00    +0.024 A 
ATOM     33  C   UNL     1      -8.960  16.510  31.751  0.00  0.00    +0.007 A 
ATOM     34  C   UNL     1      -8.160  15.344  31.506  0.00  0.00    -0.029 A 
ATOM     35  C   UNL     1      -7.978  14.322  32.652  0.00  0.00    +0.045 C 
ENDROOT
BRANCH  10   9
ATOM      4  C   UNL     1      -3.359  12.858  30.151  0.00  0.00    +0.077 A 
ATOM      5  C   UNL     1      -2.677  13.965  30.757  0.00  0.00    +0.048 A 
ATOM      6  C   UNL     1      -3.441  15.116  31.054  0.00  0.00    +0.116 A 
ATOM      7  N   UNL     1      -4.787  15.147  30.761  0.00  0.00    -0.223 NA
ATOM      8  C   UNL     1      -5.415  14.063  30.175  0.00  0.00    +0.220 A 
ATOM      9  N   UNL     1      -6.769  14.069  29.879  0.00  0.00    -0.283 N 
ATOM     36  H   UNL     1      -7.193  13.253  29.439  0.00  0.00    +0.155 HD
ATOM     37  N   UNL     1      -4.706  12.953  29.880  0.00  0.00    -0.214 NA
BRANCH   4   3
ATOM      1  C   UNL     1      -2.686   9.074  29.427  0.00  0.00    +0.020 A 
ATOM      2  C   UNL     1      -3.379  10.288  29.793  0.00  0.00    +0.013 A 
ATOM      3  C   UNL     1      -2.690  11.572  29.781  0.00  0.00    +0.019 A 
ATOM     38  C   UNL     1      -1.288  11.593  29.390  0.00  0.00    +0.120 A 
ATOM     39  N   UNL     1      -0.647  10.408  29.044  0.00  0.00    -0.263 NA
ATOM     40  C   UNL     1      -1.299   9.166  29.053  0.00  0.00    +0.111 A 
ENDBRANCH   4   3
ENDBRANCH  10   9
BRANCH  12  13
ATOM     13  N   UNL     1      -8.846  18.353  28.434  0.00  0.00    -0.281 N 
ATOM     14  C   UNL     1      -9.487  18.213  27.214  0.00  0.00    +0.248 C 
ATOM     30  O   UNL     1      -9.748  17.141  26.689  0.00  0.00    -0.270 OA
ATOM     31  H   UNL     1      -8.517  19.291  28.663  0.00  0.00    +0.155 HD
BRANCH  14  15
ATOM     15  C   UNL     1      -9.883  19.442  26.461  0.00  0.00    +0.037 A 
ATOM     16  C   UNL     1     -11.266  19.655  26.028  0.00  0.00    +0.013 A 
ATOM     17  C   UNL     1     -11.618  20.841  25.288  0.00  0.00    +0.005 A 
ATOM     18  C   UNL     1     -10.583  21.825  24.978  0.00  0.00    -0.033 A 
ATOM     28  C   UNL     1      -9.220  21.591  25.425  0.00  0.00    +0.005 A 
ATOM     29  C   UNL     1      -8.871  20.429  26.149  0.00  0.00    +0.013 A 
BRANCH  18  19
ATOM     19  C   UNL     1     -10.864  23.110  24.176  0.00  0.00    +0.119 C 
BRANCH  19  20
ATOM     20  N   UNL     1     -12.036  23.934  24.593  0.00  0.00    -0.302 NA
ATOM     21  C   UNL     1     -12.258  25.131  23.663  0.00  0.00    +0.066 C 
ATOM     22  C   UNL     1     -13.502  25.970  24.101  0.00  0.00    -0.064 C 
ATOM     23  N   UNL     1     -13.317  26.435  25.547  0.00  0.00    +0.379 N 
ATOM     24  C   UNL     1     -14.458  27.272  25.943  0.00  0.00    -0.096 C 
ATOM     25  H   UNL     1     -12.402  27.070  25.583  0.00  0.00    -0.082 HD
ATOM     26  C   UNL     1     -13.093  25.252  26.478  0.00  0.00    -0.064 C 
ATOM     27  C   UNL     1     -11.872  24.408  26.017  0.00  0.00    +0.066 C 
ENDBRANCH  19  20
ENDBRANCH  18  19
ENDBRANCH  14  15
ENDBRANCH  12  13
TORSDOF 6
ENDMDL
