MODEL 1
REMARK VINA RESULT:      -9.0      0.000      0.000
REMARK  Name = C:\Users\Docking\Desktop\test protocol\1iep_ligandH.pdb
REMARK  8 active torsions:
REMARK  status: ('A' for Active; 'I' for Inactive)
REMARK    1  A    between atoms: _5  and  _11
REMARK    2  A    between atoms: _19  and  _21
REMARK    3  A    between atoms: _22  and  _66
REMARK    4  A    between atoms: _27  and  _30
REMARK    5  A    between atoms: _32  and  _33
REMARK    6  A    between atoms: _38  and  _43
REMARK    7  A    between atoms: _43  and  _46
REMARK    8  A    between atoms: _53  and  _55
REMARK                            x       y       z     vdW  Elec       q    Type
REMARK                         _______ _______ _______ _____ _____    ______ ____
ROOT
ATOM     10  C   UNL     1      36.779  32.657  20.718  0.00  0.00    +0.038 A 
ATOM     11  C   UNL     1      35.384  32.532  20.494  0.00  0.00    +0.047 A 
ATOM     12  C   UNL     1      34.853  31.509  19.605  0.00  0.00    +0.035 A 
ATOM     32  C   UNL     1      35.772  30.629  18.963  0.00  0.00    +0.024 A 
ATOM     33  C   UNL     1      37.193  30.743  19.178  0.00  0.00    +0.007 A 
ATOM     34  C   UNL     1      37.723  31.751  20.052  0.00  0.00    -0.029 A 
ATOM     35  C   UNL     1      39.256  31.831  20.240  0.00  0.00    +0.045 C 
ENDROOT
BRANCH  10   9
ATOM      4  C   UNL     1      38.345  34.163  24.997  0.00  0.00    +0.077 A 
ATOM      5  C   UNL     1      38.221  32.854  25.570  0.00  0.00    +0.048 A 
ATOM      6  C   UNL     1      37.744  31.822  24.731  0.00  0.00    +0.116 A 
ATOM      7  N   UNL     1      37.418  32.090  23.419  0.00  0.00    -0.223 NA
ATOM      8  C   UNL     1      37.548  33.365  22.899  0.00  0.00    +0.220 A 
ATOM      9  N   UNL     1      37.234  33.656  21.581  0.00  0.00    -0.283 N 
ATOM     36  H   UNL     1      37.336  34.611  21.237  0.00  0.00    +0.155 HD
ATOM     37  N   UNL     1      38.000  34.368  23.680  0.00  0.00    -0.214 NA
BRANCH   4   3
ATOM      1  C   UNL     1      38.806  37.815  26.322  0.00  0.00    +0.020 A 
ATOM      2  C   UNL     1      38.294  36.696  25.565  0.00  0.00    +0.013 A 
ATOM      3  C   UNL     1      38.837  35.357  25.755  0.00  0.00    +0.019 A 
ATOM     38  C   UNL     1      39.905  35.182  26.729  0.00  0.00    +0.120 A 
ATOM     39  N   UNL     1      40.378  36.279  27.443  0.00  0.00    -0.263 NA
ATOM     40  C   UNL     1      39.865  37.572  27.266  0.00  0.00    +0.111 A 
ENDBRANCH   4   3
ENDBRANCH  10   9
BRANCH  12  13
ATOM     13  N   UNL     1      33.448  31.340  19.333  0.00  0.00    -0.281 N 
ATOM     14  C   UNL     1      32.644  32.097  18.497  0.00  0.00    +0.248 C 
ATOM     30  O   UNL     1      32.968  33.174  18.017  0.00  0.00    -0.270 OA
ATOM     31  H   UNL     1      32.989  30.567  19.816  0.00  0.00    +0.155 HD
BRANCH  14  15
ATOM     15  C   UNL     1      31.279  31.594  18.155  0.00  0.00    +0.037 A 
ATOM     16  C   UNL     1      30.467  30.873  19.139  0.00  0.00    +0.013 A 
ATOM     17  C   UNL     1      29.161  30.383  18.778  0.00  0.00    +0.005 A 
ATOM     18  C   UNL     1      28.657  30.614  17.426  0.00  0.00    -0.033 A 
ATOM     28  C   UNL     1      29.481  31.337  16.472  0.00  0.00    +0.005 A 
ATOM     29  C   UNL     1      30.763  31.817  16.822  0.00  0.00    +0.013 A 
BRANCH  18  19
ATOM     19  C   UNL     1      27.283  30.108  16.948  0.00  0.00    +0.119 C 
BRANCH  19  20
ATOM     20  N   UNL     1      26.648  29.008  17.733  0.00  0.00    -0.302 NA
ATOM     21  C   UNL     1      27.421  27.692  17.608  0.00  0.00    +0.066 C 
ATOM     22  C   UNL     1      26.756  26.558  18.453  0.00  0.00    -0.064 C 
ATOM     23  N   UNL     1      25.304  26.378  18.006  0.00  0.00    +0.379 N 
ATOM     24  C   UNL     1      24.692  25.273  18.759  0.00  0.00    -0.096 C 
ATOM     25  H   UNL     1      25.315  26.088  16.930  0.00  0.00    -0.082 HD
ATOM     26  C   UNL     1      24.528  27.682  18.125  0.00  0.00    -0.064 C 
ATOM     27  C   UNL     1      25.215  28.810  17.305  0.00  0.00    +0.066 C 
ENDBRANCH  19  20
ENDBRANCH  18  19
ENDBRANCH  14  15
ENDBRANCH  12  13
TORSDOF 6
ENDMDL
MODEL 2
REMARK VINA RESULT:      -8.6      4.983     16.301
REMARK  Name = C:\Users\Docking\Desktop\test protocol\1iep_ligandH.pdb
REMARK  8 active torsions:
REMARK  status: ('A' for Active; 'I' for Inactive)
REMARK    1  A    between atoms: _5  and  _11
REMARK    2  A    between atoms: _19  and  _21
REMARK    3  A    between atoms: _22  and  _66
REMARK    4  A    between atoms: _27  and  _30
REMARK    5  A    between atoms: _32  and  _33
REMARK    6  A    between atoms: _38  and  _43
REMARK    7  A    between atoms: _43  and  _46
REMARK    8  A    between atoms: _53  and  _55
REMARK                            x       y       z     vdW  Elec       q    Type
REMARK                         _______ _______ _______ _____ _____    ______ ____
ROOT
ATOM     10  C   UNL     1      23.862  25.116  17.449  0.00  0.00    +0.038 A 
ATOM     11  C   UNL     1      24.951  25.995  17.217  0.00  0.00    +0.047 A 
ATOM     12  C   UNL     1      25.661  26.621  18.322  0.00  0.00    +0.035 A 
ATOM     32  C   UNL     1      25.236  26.328  19.651  0.00  0.00    +0.024 A 
ATOM     33  C   UNL     1      24.131  25.438  19.904  0.00  0.00    +0.007 A 
ATOM     34  C   UNL     1      23.425  24.819  18.818  0.00  0.00    -0.029 A 
ATOM     35  C   UNL     1      22.243  23.878  19.149  0.00  0.00    +0.045 C 
ENDROOT
BRANCH  10   9
ATOM      4  C   UNL     1      23.095  21.475  14.417  0.00  0.00    +0.077 A 
ATOM      5  C   UNL     1      24.082  20.656  15.059  0.00  0.00    +0.048 A 
ATOM      6  C   UNL     1      24.770  21.211  16.160  0.00  0.00    +0.116 A 
ATOM      7  N   UNL     1      24.484  22.491  16.581  0.00  0.00    -0.223 NA
ATOM      8  C   UNL     1      23.527  23.256  15.940  0.00  0.00    +0.220 A 
ATOM      9  N   UNL     1      23.217  24.543  16.351  0.00  0.00    -0.283 N 
ATOM     36  H   UNL     1      22.509  25.077  15.847  0.00  0.00    +0.155 HD
ATOM     37  N   UNL     1      22.857  22.749  14.884  0.00  0.00    -0.214 NA
BRANCH   4   3
ATOM      1  C   UNL     1      21.212  21.407  10.989  0.00  0.00    +0.020 A 
ATOM      2  C   UNL     1      22.003  21.888  12.099  0.00  0.00    +0.013 A 
ATOM      3  C   UNL     1      22.281  21.028  13.243  0.00  0.00    +0.019 A 
ATOM     38  C   UNL     1      21.741  19.677  13.232  0.00  0.00    +0.120 A 
ATOM     39  N   UNL     1      20.982  19.242  12.150  0.00  0.00    -0.263 NA
ATOM     40  C   UNL     1      20.706  20.061  11.045  0.00  0.00    +0.111 A 
ENDBRANCH   4   3
ENDBRANCH  10   9
BRANCH  12  13
ATOM     13  N   UNL     1      26.768  27.528  18.148  0.00  0.00    -0.281 N 
ATOM     14  C   UNL     1      26.757  28.783  17.563  0.00  0.00    +0.248 C 
ATOM     30  O   UNL     1      25.830  29.231  16.904  0.00  0.00    -0.270 OA
ATOM     31  H   UNL     1      27.670  27.205  18.499  0.00  0.00    +0.155 HD
BRANCH  14  15
ATOM     15  C   UNL     1      27.955  29.664  17.719  0.00  0.00    +0.037 A 
ATOM     16  C   UNL     1      28.829  29.557  18.890  0.00  0.00    +0.013 A 
ATOM     17  C   UNL     1      29.968  30.430  19.024  0.00  0.00    +0.005 A 
ATOM     18  C   UNL     1      30.241  31.417  17.982  0.00  0.00    -0.033 A 
ATOM     28  C   UNL     1      29.360  31.498  16.828  0.00  0.00    +0.005 A 
ATOM     29  C   UNL     1      28.242  30.644  16.694  0.00  0.00    +0.013 A 
BRANCH  18  19
ATOM     19  C   UNL     1      31.421  32.403  18.053  0.00  0.00    +0.119 C 
BRANCH  19  20
ATOM     20  N   UNL     1      32.798  31.824  18.051  0.00  0.00    -0.302 NA
ATOM     21  C   UNL     1      33.283  31.491  19.465  0.00  0.00    +0.066 C 
ATOM     22  C   UNL     1      34.716  30.865  19.442  0.00  0.00    -0.064 C 
ATOM     23  N   UNL     1      35.680  31.830  18.751  0.00  0.00    +0.379 N 
ATOM     24  C   UNL     1      37.039  31.270  18.779  0.00  0.00    -0.096 C 
ATOM     25  H   UNL     1      35.692  32.776  19.340  0.00  0.00    -0.082 HD
ATOM     26  C   UNL     1      35.203  32.168  17.345  0.00  0.00    -0.064 C 
ATOM     27  C   UNL     1      33.768  32.762  17.377  0.00  0.00    +0.066 C 
ENDBRANCH  19  20
ENDBRANCH  18  19
ENDBRANCH  14  15
ENDBRANCH  12  13
TORSDOF 6
ENDMDL
MODEL 3
REMARK VINA RESULT:      -8.6      1.855     12.922
REMARK  Name = C:\Users\Docking\Desktop\test protocol\1iep_ligandH.pdb
REMARK  8 active torsions:
REMARK  status: ('A' for Active; 'I' for Inactive)
REMARK    1  A    between atoms: _5  and  _11
REMARK    2  A    between atoms: _19  and  _21
REMARK    3  A    between atoms: _22  and  _66
REMARK    4  A    between atoms: _27  and  _30
REMARK    5  A    between atoms: _32  and  _33
REMARK    6  A    between atoms: _38  and  _43
REMARK    7  A    between atoms: _43  and  _46
REMARK    8  A    between atoms: _53  and  _55
REMARK                            x       y       z     vdW  Elec       q    Type
REMARK                         _______ _______ _______ _____ _____    ______ ____
ROOT
ATOM     10  C   UNL     1      31.468  31.925  17.680  0.00  0.00    +0.038 A 
ATOM     11  C   UNL     1      32.252  31.925  18.862  0.00  0.00    +0.047 A 
ATOM     12  C   UNL     1      33.681  32.197  18.818  0.00  0.00    +0.035 A 
ATOM     32  C   UNL     1      34.278  32.468  17.552  0.00  0.00    +0.024 A 
ATOM     33  C   UNL     1      33.496  32.471  16.340  0.00  0.00    +0.007 A 
ATOM     34  C   UNL     1      32.087  32.201  16.378  0.00  0.00    -0.029 A 
ATOM     35  C   UNL     1      31.300  32.211  15.047  0.00  0.00    +0.045 C 
ENDROOT
BRANCH  10   9
ATOM      4  C   UNL     1      27.755  28.894  17.924  0.00  0.00    +0.077 A 
ATOM      5  C   UNL     1      28.608  27.746  17.815  0.00  0.00    +0.048 A 
ATOM      6  C   UNL     1      29.996  27.979  17.690  0.00  0.00    +0.116 A 
ATOM      7  N   UNL     1      30.483  29.268  17.677  0.00  0.00    -0.223 NA
ATOM      8  C   UNL     1      29.633  30.353  17.783  0.00  0.00    +0.220 A 
ATOM      9  N   UNL     1      30.101  31.658  17.781  0.00  0.00    -0.283 N 
ATOM     36  H   UNL     1      29.440  32.431  17.854  0.00  0.00    +0.155 HD
ATOM     37  N   UNL     1      28.303  30.157  17.902  0.00  0.00    -0.214 NA
BRANCH   4   3
ATOM      1  C   UNL     1      23.920  29.004  17.159  0.00  0.00    +0.020 A 
ATOM      2  C   UNL     1      25.350  29.100  16.970  0.00  0.00    +0.013 A 
ATOM      3  C   UNL     1      26.267  28.811  18.065  0.00  0.00    +0.019 A 
ATOM     38  C   UNL     1      25.701  28.424  19.349  0.00  0.00    +0.120 A 
ATOM     39  N   UNL     1      24.320  28.341  19.502  0.00  0.00    -0.263 NA
ATOM     40  C   UNL     1      23.428  28.619  18.455  0.00  0.00    +0.111 A 
ENDBRANCH   4   3
ENDBRANCH  10   9
BRANCH  12  13
ATOM     13  N   UNL     1      34.529  32.203  19.983  0.00  0.00    -0.281 N 
ATOM     14  C   UNL     1      35.297  31.164  20.483  0.00  0.00    +0.248 C 
ATOM     30  O   UNL     1      35.205  30.000  20.121  0.00  0.00    -0.270 OA
ATOM     31  H   UNL     1      34.568  33.079  20.504  0.00  0.00    +0.155 HD
BRANCH  14  15
ATOM     15  C   UNL     1      36.304  31.458  21.548  0.00  0.00    +0.037 A 
ATOM     16  C   UNL     1      37.506  32.244  21.261  0.00  0.00    +0.013 A 
ATOM     17  C   UNL     1      38.470  32.498  22.303  0.00  0.00    +0.005 A 
ATOM     18  C   UNL     1      38.233  31.966  23.643  0.00  0.00    -0.033 A 
ATOM     28  C   UNL     1      37.029  31.193  23.901  0.00  0.00    +0.005 A 
ATOM     29  C   UNL     1      36.083  30.941  22.882  0.00  0.00    +0.013 A 
BRANCH  18  19
ATOM     19  C   UNL     1      39.217  32.170  24.810  0.00  0.00    +0.119 C 
BRANCH  19  20
ATOM     20  N   UNL     1      39.538  33.576  25.196  0.00  0.00    -0.302 NA
ATOM     21  C   UNL     1      40.257  33.652  26.546  0.00  0.00    +0.066 C 
ATOM     22  C   UNL     1      40.605  35.129  26.923  0.00  0.00    -0.064 C 
ATOM     23  N   UNL     1      39.323  35.963  26.945  0.00  0.00    +0.379 N 
ATOM     24  C   UNL     1      39.639  37.338  27.356  0.00  0.00    -0.096 C 
ATOM     25  H   UNL     1      38.648  35.525  27.717  0.00  0.00    -0.082 HD
ATOM     26  C   UNL     1      38.601  35.891  25.607  0.00  0.00    -0.064 C 
ATOM     27  C   UNL     1      38.285  34.417  25.227  0.00  0.00    +0.066 C 
ENDBRANCH  19  20
ENDBRANCH  18  19
ENDBRANCH  14  15
ENDBRANCH  12  13
TORSDOF 6
ENDMDL
MODEL 4
REMARK VINA RESULT:      -8.5      2.266     13.207
REMARK  Name = C:\Users\Docking\Desktop\test protocol\1iep_ligandH.pdb
REMARK  8 active torsions:
REMARK  status: ('A' for Active; 'I' for Inactive)
REMARK    1  A    between atoms: _5  and  _11
REMARK    2  A    between atoms: _19  and  _21
REMARK    3  A    between atoms: _22  and  _66
REMARK    4  A    between atoms: _27  and  _30
REMARK    5  A    between atoms: _32  and  _33
REMARK    6  A    between atoms: _38  and  _43
REMARK    7  A    between atoms: _43  and  _46
REMARK    8  A    between atoms: _53  and  _55
REMARK                            x       y       z     vdW  Elec       q    Type
REMARK                         _______ _______ _______ _____ _____    ______ ____
ROOT
ATOM     10  C   UNL     1      31.378  32.045  17.616  0.00  0.00    +0.038 A 
ATOM     11  C   UNL     1      32.100  32.202  18.827  0.00  0.00    +0.047 A 
ATOM     12  C   UNL     1      33.520  32.513  18.822  0.00  0.00    +0.035 A 
ATOM     32  C   UNL     1      34.175  32.661  17.564  0.00  0.00    +0.024 A 
ATOM     33  C   UNL     1      33.457  32.503  16.323  0.00  0.00    +0.007 A 
ATOM     34  C   UNL     1      32.056  32.194  16.323  0.00  0.00    -0.029 A 
ATOM     35  C   UNL     1      31.339  32.030  14.962  0.00  0.00    +0.045 C 
ENDROOT
BRANCH  10   9
ATOM      4  C   UNL     1      27.734  28.929  17.841  0.00  0.00    +0.077 A 
ATOM      5  C   UNL     1      28.619  27.801  17.801  0.00  0.00    +0.048 A 
ATOM      6  C   UNL     1      30.004  28.065  17.716  0.00  0.00    +0.116 A 
ATOM      7  N   UNL     1      30.460  29.365  17.674  0.00  0.00    -0.223 NA
ATOM      8  C   UNL     1      29.579  30.430  17.713  0.00  0.00    +0.220 A 
ATOM      9  N   UNL     1      30.015  31.746  17.680  0.00  0.00    -0.283 N 
ATOM     36  H   UNL     1      29.334  32.504  17.703  0.00  0.00    +0.155 HD
ATOM     37  N   UNL     1      28.251  30.204  17.793  0.00  0.00    -0.214 NA
BRANCH   4   3
ATOM      1  C   UNL     1      23.926  28.929  16.947  0.00  0.00    +0.020 A 
ATOM      2  C   UNL     1      25.358  29.056  16.804  0.00  0.00    +0.013 A 
ATOM      3  C   UNL     1      26.244  28.812  17.935  0.00  0.00    +0.019 A 
ATOM     38  C   UNL     1      25.645  28.439  19.207  0.00  0.00    +0.120 A 
ATOM     39  N   UNL     1      24.263  28.326  19.316  0.00  0.00    -0.263 NA
ATOM     40  C   UNL     1      23.400  28.559  18.235  0.00  0.00    +0.111 A 
ENDBRANCH   4   3
ENDBRANCH  10   9
BRANCH  12  13
ATOM     13  N   UNL     1      34.307  32.676  20.019  0.00  0.00    -0.281 N 
ATOM     14  C   UNL     1      35.057  31.719  20.682  0.00  0.00    +0.248 C 
ATOM     30  O   UNL     1      34.993  30.518  20.464  0.00  0.00    -0.270 OA
ATOM     31  H   UNL     1      34.311  33.611  20.428  0.00  0.00    +0.155 HD
BRANCH  14  15
ATOM     15  C   UNL     1      36.004  32.157  21.752  0.00  0.00    +0.037 A 
ATOM     16  C   UNL     1      36.484  31.222  22.773  0.00  0.00    +0.013 A 
ATOM     17  C   UNL     1      37.383  31.675  23.804  0.00  0.00    +0.005 A 
ATOM     18  C   UNL     1      37.811  33.072  23.818  0.00  0.00    -0.033 A 
ATOM     28  C   UNL     1      37.323  33.977  22.791  0.00  0.00    +0.005 A 
ATOM     29  C   UNL     1      36.441  33.537  21.779  0.00  0.00    +0.013 A 
BRANCH  18  19
ATOM     19  C   UNL     1      38.752  33.647  24.893  0.00  0.00    +0.119 C 
BRANCH  19  20
ATOM     20  N   UNL     1      39.936  34.425  24.419  0.00  0.00    -0.302 NA
ATOM     21  C   UNL     1      41.028  33.517  23.847  0.00  0.00    +0.066 C 
ATOM     22  C   UNL     1      42.249  34.348  23.336  0.00  0.00    -0.064 C 
ATOM     23  N   UNL     1      42.799  35.199  24.481  0.00  0.00    +0.379 N 
ATOM     24  C   UNL     1      43.983  35.938  24.020  0.00  0.00    -0.096 C 
ATOM     25  H   UNL     1      43.127  34.506  25.290  0.00  0.00    -0.082 HD
ATOM     26  C   UNL     1      41.719  36.103  25.059  0.00  0.00    -0.064 C 
ATOM     27  C   UNL     1      40.497  35.270  25.537  0.00  0.00    +0.066 C 
ENDBRANCH  19  20
ENDBRANCH  18  19
ENDBRANCH  14  15
ENDBRANCH  12  13
TORSDOF 6
ENDMDL
MODEL 5
REMARK VINA RESULT:      -8.5      2.576      3.549
REMARK  Name = C:\Users\Docking\Desktop\test protocol\1iep_ligandH.pdb
REMARK  8 active torsions:
REMARK  status: ('A' for Active; 'I' for Inactive)
REMARK    1  A    between atoms: _5  and  _11
REMARK    2  A    between atoms: _19  and  _21
REMARK    3  A    between atoms: _22  and  _66
REMARK    4  A    between atoms: _27  and  _30
REMARK    5  A    between atoms: _32  and  _33
REMARK    6  A    between atoms: _38  and  _43
REMARK    7  A    between atoms: _43  and  _46
REMARK    8  A    between atoms: _53  and  _55
REMARK                            x       y       z     vdW  Elec       q    Type
REMARK                         _______ _______ _______ _____ _____    ______ ____
ROOT
ATOM     10  C   UNL     1      34.502  30.785  20.172  0.00  0.00    +0.038 A 
ATOM     11  C   UNL     1      33.092  30.734  20.030  0.00  0.00    +0.047 A 
ATOM     12  C   UNL     1      32.433  29.566  19.468  0.00  0.00    +0.035 A 
ATOM     32  C   UNL     1      33.242  28.464  19.062  0.00  0.00    +0.024 A 
ATOM     33  C   UNL     1      34.677  28.499  19.197  0.00  0.00    +0.007 A 
ATOM     34  C   UNL     1      35.332  29.650  19.749  0.00  0.00    -0.029 A 
ATOM     35  C   UNL     1      36.874  29.635  19.864  0.00  0.00    +0.045 C 
ENDROOT
BRANCH  10   9
ATOM      4  C   UNL     1      36.038  33.385  23.902  0.00  0.00    +0.077 A 
ATOM      5  C   UNL     1      35.626  32.385  24.845  0.00  0.00    +0.048 A 
ATOM      6  C   UNL     1      35.016  31.219  24.329  0.00  0.00    +0.116 A 
ATOM      7  N   UNL     1      34.837  31.075  22.970  0.00  0.00    -0.223 NA
ATOM      8  C   UNL     1      35.245  32.059  22.089  0.00  0.00    +0.220 A 
ATOM      9  N   UNL     1      35.082  31.932  20.718  0.00  0.00    -0.283 N 
ATOM     36  H   UNL     1      35.389  32.684  20.102  0.00  0.00    +0.155 HD
ATOM     37  N   UNL     1      35.828  33.183  22.556  0.00  0.00    -0.214 NA
BRANCH   4   3
ATOM      1  C   UNL     1      36.782  37.187  24.441  0.00  0.00    +0.020 A 
ATOM      2  C   UNL     1      36.102  35.976  24.044  0.00  0.00    +0.013 A 
ATOM      3  C   UNL     1      36.699  34.670  24.292  0.00  0.00    +0.019 A 
ATOM     38  C   UNL     1      37.996  34.624  24.950  0.00  0.00    +0.120 A 
ATOM     39  N   UNL     1      38.629  35.807  25.320  0.00  0.00    -0.263 NA
ATOM     40  C   UNL     1      38.064  37.069  25.085  0.00  0.00    +0.111 A 
ENDBRANCH   4   3
ENDBRANCH  10   9
BRANCH  12  13
ATOM     13  N   UNL     1      31.005  29.461  19.293  0.00  0.00    -0.281 N 
ATOM     14  C   UNL     1      30.202  30.160  18.407  0.00  0.00    +0.248 C 
ATOM     30  O   UNL     1      30.563  31.142  17.775  0.00  0.00    -0.270 OA
ATOM     31  H   UNL     1      30.529  28.789  19.895  0.00  0.00    +0.155 HD
BRANCH  14  15
ATOM     15  C   UNL     1      28.791  29.713  18.205  0.00  0.00    +0.037 A 
ATOM     16  C   UNL     1      28.129  28.826  19.165  0.00  0.00    +0.013 A 
ATOM     17  C   UNL     1      26.772  28.396  18.938  0.00  0.00    +0.005 A 
ATOM     18  C   UNL     1      26.067  28.855  17.743  0.00  0.00    -0.033 A 
ATOM     28  C   UNL     1      26.745  29.739  16.810  0.00  0.00    +0.005 A 
ATOM     29  C   UNL     1      28.075  30.161  17.029  0.00  0.00    +0.013 A 
BRANCH  18  19
ATOM     19  C   UNL     1      24.625  28.430  17.409  0.00  0.00    +0.119 C 
BRANCH  19  20
ATOM     20  N   UNL     1      23.540  29.419  17.682  0.00  0.00    -0.302 NA
ATOM     21  C   UNL     1      22.870  29.177  19.038  0.00  0.00    +0.066 C 
ATOM     22  C   UNL     1      21.753  30.234  19.318  0.00  0.00    -0.064 C 
ATOM     23  N   UNL     1      20.721  30.192  18.189  0.00  0.00    +0.379 N 
ATOM     24  C   UNL     1      19.639  31.144  18.479  0.00  0.00    -0.096 C 
ATOM     25  H   UNL     1      20.277  29.169  18.175  0.00  0.00    -0.082 HD
ATOM     26  C   UNL     1      21.379  30.429  16.837  0.00  0.00    -0.064 C 
ATOM     27  C   UNL     1      22.507  29.391  16.582  0.00  0.00    +0.066 C 
ENDBRANCH  19  20
ENDBRANCH  18  19
ENDBRANCH  14  15
ENDBRANCH  12  13
TORSDOF 6
ENDMDL
