MODEL 1
REMARK VINA RESULT:      -7.4      0.000      0.000
REMARK  Name = C:\Users\Docking\Desktop\test protocol\1iep_ligandH.pdb
REMARK  8 active torsions:
REMARK  status: ('A' for Active; 'I' for Inactive)
REMARK    1  A    between atoms: _5  and  _11
REMARK    2  A    between atoms: _19  and  _21
REMARK    3  A    between atoms: _22  and  _66
REMARK    4  A    between atoms: _27  and  _30
REMARK    5  A    between atoms: _32  and  _33
REMARK    6  A    between atoms: _38  and  _43
REMARK    7  A    between atoms: _43  and  _46
REMARK    8  A    between atoms: _53  and  _55
REMARK                            x       y       z     vdW  Elec       q    Type
REMARK                         _______ _______ _______ _____ _____    ______ ____
ROOT
ATOM     10  C   UNL     1     113.208  13.317  59.411  0.00  0.00    +0.038 A 
ATOM     11  C   UNL     1     112.712  12.118  58.838  0.00  0.00    +0.047 A 
ATOM     12  C   UNL     1     112.382  12.041  57.423  0.00  0.00    +0.035 A 
ATOM     32  C   UNL     1     112.573  13.203  56.621  0.00  0.00    +0.024 A 
ATOM     33  C   UNL     1     113.075  14.430  57.187  0.00  0.00    +0.007 A 
ATOM     34  C   UNL     1     113.400  14.513  58.582  0.00  0.00    -0.029 A 
ATOM     35  C   UNL     1     113.928  15.856  59.137  0.00  0.00    +0.045 C 
ENDROOT
BRANCH  10   9
ATOM      4  C   UNL     1     116.292  12.953  63.071  0.00  0.00    +0.077 A 
ATOM      5  C   UNL     1     117.392  12.677  62.194  0.00  0.00    +0.048 A 
ATOM      6  C   UNL     1     117.121  12.630  60.808  0.00  0.00    +0.116 A 
ATOM      7  N   UNL     1     115.841  12.845  60.345  0.00  0.00    -0.223 NA
ATOM      8  C   UNL     1     114.802  13.107  61.219  0.00  0.00    +0.220 A 
ATOM      9  N   UNL     1     113.508  13.335  60.775  0.00  0.00    -0.283 N 
ATOM     36  H   UNL     1     112.768  13.518  61.452  0.00  0.00    +0.155 HD
ATOM     37  N   UNL     1     115.035  13.156  62.547  0.00  0.00    -0.214 NA
BRANCH   4   3
ATOM      1  C   UNL     1     115.580  12.627  66.904  0.00  0.00    +0.020 A 
ATOM      2  C   UNL     1     115.408  12.520  65.473  0.00  0.00    +0.013 A 
ATOM      3  C   UNL     1     116.419  13.038  64.561  0.00  0.00    +0.019 A 
ATOM     38  C   UNL     1     117.602  13.663  65.132  0.00  0.00    +0.120 A 
ATOM     39  N   UNL     1     117.740  13.754  66.514  0.00  0.00    -0.263 NA
ATOM     40  C   UNL     1     116.772  13.260  67.402  0.00  0.00    +0.111 A 
ENDBRANCH   4   3
ENDBRANCH  10   9
BRANCH  12  13
ATOM     13  N   UNL     1     111.867  10.854  56.787  0.00  0.00    -0.281 N 
ATOM     14  C   UNL     1     110.543  10.484  56.618  0.00  0.00    +0.248 C 
ATOM     30  O   UNL     1     109.599  11.019  57.180  0.00  0.00    -0.270 OA
ATOM     31  H   UNL     1     112.564  10.207  56.416  0.00  0.00    +0.155 HD
BRANCH  14  15
ATOM     15  C   UNL     1     110.222   9.347  55.702  0.00  0.00    +0.037 A 
ATOM     16  C   UNL     1     111.254   8.397  55.279  0.00  0.00    +0.013 A 
ATOM     17  C   UNL     1     110.921   7.320  54.382  0.00  0.00    +0.005 A 
ATOM     18  C   UNL     1     109.547   7.185  53.903  0.00  0.00    -0.033 A 
ATOM     28  C   UNL     1     108.542   8.139  54.343  0.00  0.00    +0.005 A 
ATOM     29  C   UNL     1     108.865   9.197  55.221  0.00  0.00    +0.013 A 
BRANCH  18  19
ATOM     19  C   UNL     1     109.106   6.078  52.927  0.00  0.00    +0.119 C 
BRANCH  19  20
ATOM     20  N   UNL     1     109.684   6.110  51.550  0.00  0.00    -0.302 NA
ATOM     21  C   UNL     1     108.794   6.881  50.571  0.00  0.00    +0.066 C 
ATOM     22  C   UNL     1     109.425   6.924  49.141  0.00  0.00    -0.064 C 
ATOM     23  N   UNL     1     109.662   5.495  48.648  0.00  0.00    +0.379 N 
ATOM     24  C   UNL     1     110.201   5.531  47.281  0.00  0.00    -0.096 C 
ATOM     25  H   UNL     1     108.673   4.983  48.609  0.00  0.00    -0.082 HD
ATOM     26  C   UNL     1     110.544   4.721  49.618  0.00  0.00    -0.064 C 
ATOM     27  C   UNL     1     109.923   4.710  51.042  0.00  0.00    +0.066 C 
ENDBRANCH  19  20
ENDBRANCH  18  19
ENDBRANCH  14  15
ENDBRANCH  12  13
TORSDOF 6
ENDMDL
MODEL 2
REMARK VINA RESULT:      -7.3      2.500     13.316
REMARK  Name = C:\Users\Docking\Desktop\test protocol\1iep_ligandH.pdb
REMARK  8 active torsions:
REMARK  status: ('A' for Active; 'I' for Inactive)
REMARK    1  A    between atoms: _5  and  _11
REMARK    2  A    between atoms: _19  and  _21
REMARK    3  A    between atoms: _22  and  _66
REMARK    4  A    between atoms: _27  and  _30
REMARK    5  A    between atoms: _32  and  _33
REMARK    6  A    between atoms: _38  and  _43
REMARK    7  A    between atoms: _43  and  _46
REMARK    8  A    between atoms: _53  and  _55
REMARK                            x       y       z     vdW  Elec       q    Type
REMARK                         _______ _______ _______ _____ _____    ______ ____
ROOT
ATOM     10  C   UNL     1     112.316  12.965  57.718  0.00  0.00    +0.038 A 
ATOM     11  C   UNL     1     112.743  12.682  59.041  0.00  0.00    +0.047 A 
ATOM     12  C   UNL     1     113.710  13.532  59.717  0.00  0.00    +0.035 A 
ATOM     32  C   UNL     1     114.221  14.664  59.018  0.00  0.00    +0.024 A 
ATOM     33  C   UNL     1     113.799  14.966  57.673  0.00  0.00    +0.007 A 
ATOM     34  C   UNL     1     112.847  14.130  56.999  0.00  0.00    -0.029 A 
ATOM     35  C   UNL     1     112.436  14.498  55.555  0.00  0.00    +0.045 C 
ENDROOT
BRANCH  10   9
ATOM      4  C   UNL     1     111.181   9.191  54.979  0.00  0.00    +0.077 A 
ATOM      5  C   UNL     1     112.558   8.903  54.701  0.00  0.00    +0.048 A 
ATOM      6  C   UNL     1     113.528   9.755  55.277  0.00  0.00    +0.116 A 
ATOM      7  N   UNL     1     113.137  10.812  56.070  0.00  0.00    -0.223 NA
ATOM      8  C   UNL     1     111.800  11.063  56.316  0.00  0.00    +0.220 A 
ATOM      9  N   UNL     1     111.385  12.116  57.116  0.00  0.00    -0.283 N 
ATOM     36  H   UNL     1     110.389  12.272  57.267  0.00  0.00    +0.155 HD
ATOM     37  N   UNL     1     110.855  10.265  55.776  0.00  0.00    -0.214 NA
BRANCH   4   3
ATOM      1  C   UNL     1     107.580   7.929  54.117  0.00  0.00    +0.020 A 
ATOM      2  C   UNL     1     108.644   8.745  54.654  0.00  0.00    +0.013 A 
ATOM      3  C   UNL     1     110.040   8.381  54.446  0.00  0.00    +0.019 A 
ATOM     38  C   UNL     1     110.327   7.175  53.683  0.00  0.00    +0.120 A 
ATOM     39  N   UNL     1     109.282   6.408  53.180  0.00  0.00    -0.263 NA
ATOM     40  C   UNL     1     107.935   6.747  53.375  0.00  0.00    +0.111 A 
ENDBRANCH   4   3
ENDBRANCH  10   9
BRANCH  12  13
ATOM     13  N   UNL     1     114.187  13.289  61.057  0.00  0.00    -0.281 N 
ATOM     14  C   UNL     1     115.409  12.765  61.444  0.00  0.00    +0.248 C 
ATOM     30  O   UNL     1     116.200  12.224  60.686  0.00  0.00    -0.270 OA
ATOM     31  H   UNL     1     113.545  13.534  61.811  0.00  0.00    +0.155 HD
BRANCH  14  15
ATOM     15  C   UNL     1     115.804  12.841  62.884  0.00  0.00    +0.037 A 
ATOM     16  C   UNL     1     117.020  13.543  63.302  0.00  0.00    +0.013 A 
ATOM     17  C   UNL     1     117.386  13.586  64.696  0.00  0.00    +0.005 A 
ATOM     18  C   UNL     1     116.534  12.926  65.681  0.00  0.00    -0.033 A 
ATOM     28  C   UNL     1     115.330  12.242  65.239  0.00  0.00    +0.005 A 
ATOM     29  C   UNL     1     114.968  12.196  63.874  0.00  0.00    +0.013 A 
BRANCH  18  19
ATOM     19  C   UNL     1     116.859  12.904  67.187  0.00  0.00    +0.119 C 
BRANCH  19  20
ATOM     20  N   UNL     1     115.851  12.277  68.094  0.00  0.00    -0.302 NA
ATOM     21  C   UNL     1     115.605  13.120  69.348  0.00  0.00    +0.066 C 
ATOM     22  C   UNL     1     114.533  12.462  70.276  0.00  0.00    -0.064 C 
ATOM     23  N   UNL     1     114.986  11.050  70.652  0.00  0.00    +0.379 N 
ATOM     24  C   UNL     1     114.007  10.450  71.571  0.00  0.00    -0.096 C 
ATOM     25  H   UNL     1     115.953  11.140  71.200  0.00  0.00    -0.082 HD
ATOM     26  C   UNL     1     115.235  10.206  69.411  0.00  0.00    -0.064 C 
ATOM     27  C   UNL     1     116.281  10.884  68.482  0.00  0.00    +0.066 C 
ENDBRANCH  19  20
ENDBRANCH  18  19
ENDBRANCH  14  15
ENDBRANCH  12  13
TORSDOF 6
ENDMDL
MODEL 3
REMARK VINA RESULT:      -7.1     12.801     20.027
REMARK  Name = C:\Users\Docking\Desktop\test protocol\1iep_ligandH.pdb
REMARK  8 active torsions:
REMARK  status: ('A' for Active; 'I' for Inactive)
REMARK    1  A    between atoms: _5  and  _11
REMARK    2  A    between atoms: _19  and  _21
REMARK    3  A    between atoms: _22  and  _66
REMARK    4  A    between atoms: _27  and  _30
REMARK    5  A    between atoms: _32  and  _33
REMARK    6  A    between atoms: _38  and  _43
REMARK    7  A    between atoms: _43  and  _46
REMARK    8  A    between atoms: _53  and  _55
REMARK                            x       y       z     vdW  Elec       q    Type
REMARK                         _______ _______ _______ _____ _____    ______ ____
ROOT
ATOM     10  C   UNL     1     100.147  -1.887  58.852  0.00  0.00    +0.038 A 
ATOM     11  C   UNL     1     101.502  -1.506  59.024  0.00  0.00    +0.047 A 
ATOM     12  C   UNL     1     102.117  -1.484  60.342  0.00  0.00    +0.035 A 
ATOM     32  C   UNL     1     101.322  -1.859  61.464  0.00  0.00    +0.024 A 
ATOM     33  C   UNL     1      99.942  -2.248  61.308  0.00  0.00    +0.007 A 
ATOM     34  C   UNL     1      99.330  -2.269  60.011  0.00  0.00    -0.029 A 
ATOM     35  C   UNL     1      97.845  -2.688  59.904  0.00  0.00    +0.045 C 
ENDROOT
BRANCH  10   9
ATOM      4  C   UNL     1      99.400  -3.946  54.581  0.00  0.00    +0.077 A 
ATOM      5  C   UNL     1     100.172  -5.101  54.937  0.00  0.00    +0.048 A 
ATOM      6  C   UNL     1     100.750  -5.124  56.226  0.00  0.00    +0.116 A 
ATOM      7  N   UNL     1     100.563  -4.064  57.087  0.00  0.00    -0.223 NA
ATOM      8  C   UNL     1      99.815  -2.964  56.712  0.00  0.00    +0.220 A 
ATOM      9  N   UNL     1      99.607  -1.890  57.564  0.00  0.00    -0.283 N 
ATOM     36  H   UNL     1      99.055  -1.094  57.247  0.00  0.00    +0.155 HD
ATOM     37  N   UNL     1      99.253  -2.918  55.485  0.00  0.00    -0.214 NA
BRANCH   4   3
ATOM      1  C   UNL     1      97.540  -2.391  51.512  0.00  0.00    +0.020 A 
ATOM      2  C   UNL     1      98.184  -2.501  52.801  0.00  0.00    +0.013 A 
ATOM      3  C   UNL     1      98.723  -3.776  53.257  0.00  0.00    +0.019 A 
ATOM     38  C   UNL     1      98.595  -4.928  52.377  0.00  0.00    +0.120 A 
ATOM     39  N   UNL     1      97.969  -4.792  51.143  0.00  0.00    -0.263 NA
ATOM     40  C   UNL     1      97.444  -3.571  50.694  0.00  0.00    +0.111 A 
ENDBRANCH   4   3
ENDBRANCH  10   9
BRANCH  12  13
ATOM     13  N   UNL     1     103.486  -1.098  60.578  0.00  0.00    -0.281 N 
ATOM     14  C   UNL     1     104.530  -1.064  59.669  0.00  0.00    +0.248 C 
ATOM     30  O   UNL     1     104.494  -1.568  58.556  0.00  0.00    -0.270 OA
ATOM     31  H   UNL     1     103.713  -0.816  61.532  0.00  0.00    +0.155 HD
BRANCH  14  15
ATOM     15  C   UNL     1     105.804  -0.386  60.057  0.00  0.00    +0.037 A 
ATOM     16  C   UNL     1     106.997  -1.157  60.415  0.00  0.00    +0.013 A 
ATOM     17  C   UNL     1     108.208  -0.478  60.802  0.00  0.00    +0.005 A 
ATOM     18  C   UNL     1     108.232   0.983  60.832  0.00  0.00    -0.033 A 
ATOM     28  C   UNL     1     107.035   1.723  60.467  0.00  0.00    +0.005 A 
ATOM     29  C   UNL     1     105.846   1.061  60.088  0.00  0.00    +0.013 A 
BRANCH  18  19
ATOM     19  C   UNL     1     109.473   1.791  61.253  0.00  0.00    +0.119 C 
BRANCH  19  20
ATOM     20  N   UNL     1     109.790   1.847  62.711  0.00  0.00    -0.302 NA
ATOM     21  C   UNL     1     108.526   1.836  63.575  0.00  0.00    +0.066 C 
ATOM     22  C   UNL     1     108.877   1.873  65.098  0.00  0.00    -0.064 C 
ATOM     23  N   UNL     1     109.724   3.111  65.394  0.00  0.00    +0.379 N 
ATOM     24  C   UNL     1     110.007   3.179  66.835  0.00  0.00    -0.096 C 
ATOM     25  H   UNL     1     109.118   4.007  65.125  0.00  0.00    -0.082 HD
ATOM     26  C   UNL     1     110.982   3.131  64.538  0.00  0.00    -0.064 C 
ATOM     27  C   UNL     1     110.623   3.065  63.027  0.00  0.00    +0.066 C 
ENDBRANCH  19  20
ENDBRANCH  18  19
ENDBRANCH  14  15
ENDBRANCH  12  13
TORSDOF 6
ENDMDL
MODEL 4
REMARK VINA RESULT:      -7.1      1.749      2.221
REMARK  Name = C:\Users\Docking\Desktop\test protocol\1iep_ligandH.pdb
REMARK  8 active torsions:
REMARK  status: ('A' for Active; 'I' for Inactive)
REMARK    1  A    between atoms: _5  and  _11
REMARK    2  A    between atoms: _19  and  _21
REMARK    3  A    between atoms: _22  and  _66
REMARK    4  A    between atoms: _27  and  _30
REMARK    5  A    between atoms: _32  and  _33
REMARK    6  A    between atoms: _38  and  _43
REMARK    7  A    between atoms: _43  and  _46
REMARK    8  A    between atoms: _53  and  _55
REMARK                            x       y       z     vdW  Elec       q    Type
REMARK                         _______ _______ _______ _____ _____    ______ ____
ROOT
ATOM     10  C   UNL     1     113.720  14.075  60.627  0.00  0.00    +0.038 A 
ATOM     11  C   UNL     1     113.143  13.198  59.674  0.00  0.00    +0.047 A 
ATOM     12  C   UNL     1     112.989  13.595  58.283  0.00  0.00    +0.035 A 
ATOM     32  C   UNL     1     113.438  14.891  57.896  0.00  0.00    +0.024 A 
ATOM     33  C   UNL     1     114.026  15.796  58.853  0.00  0.00    +0.007 A 
ATOM     34  C   UNL     1     114.178  15.411  60.227  0.00  0.00    -0.029 A 
ATOM     35  C   UNL     1     114.810  16.424  61.210  0.00  0.00    +0.045 C 
ENDROOT
BRANCH  10   9
ATOM      4  C   UNL     1     116.191  12.033  64.200  0.00  0.00    +0.077 A 
ATOM      5  C   UNL     1     117.322  11.783  63.354  0.00  0.00    +0.048 A 
ATOM      6  C   UNL     1     117.225  12.189  62.004  0.00  0.00    +0.116 A 
ATOM      7  N   UNL     1     116.078  12.799  61.545  0.00  0.00    -0.223 NA
ATOM      8  C   UNL     1     115.004  13.023  62.387  0.00  0.00    +0.220 A 
ATOM      9  N   UNL     1     113.844  13.642  61.949  0.00  0.00    -0.283 N 
ATOM     36  H   UNL     1     113.071  13.783  62.600  0.00  0.00    +0.155 HD
ATOM     37  N   UNL     1     115.072  12.644  63.680  0.00  0.00    -0.214 NA
BRANCH   4   3
ATOM      1  C   UNL     1     115.633  12.170  68.069  0.00  0.00    +0.020 A 
ATOM      2  C   UNL     1     115.660  12.575  66.682  0.00  0.00    +0.013 A 
ATOM      3  C   UNL     1     116.143  11.666  65.650  0.00  0.00    +0.019 A 
ATOM     38  C   UNL     1     116.594  10.344  66.058  0.00  0.00    +0.120 A 
ATOM     39  N   UNL     1     116.559   9.983  67.401  0.00  0.00    -0.263 NA
ATOM     40  C   UNL     1     116.098  10.850  68.403  0.00  0.00    +0.111 A 
ENDBRANCH   4   3
ENDBRANCH  10   9
BRANCH  12  13
ATOM     13  N   UNL     1     112.403  12.750  57.272  0.00  0.00    -0.281 N 
ATOM     14  C   UNL     1     112.846  11.513  56.833  0.00  0.00    +0.248 C 
ATOM     30  O   UNL     1     113.942  11.039  57.095  0.00  0.00    -0.270 OA
ATOM     31  H   UNL     1     111.558  13.108  56.825  0.00  0.00    +0.155 HD
BRANCH  14  15
ATOM     15  C   UNL     1     111.949  10.690  55.966  0.00  0.00    +0.037 A 
ATOM     16  C   UNL     1     112.308  10.379  54.580  0.00  0.00    +0.013 A 
ATOM     17  C   UNL     1     111.416   9.597  53.760  0.00  0.00    +0.005 A 
ATOM     18  C   UNL     1     110.156   9.120  54.326  0.00  0.00    -0.033 A 
ATOM     28  C   UNL     1     109.828   9.440  55.705  0.00  0.00    +0.005 A 
ATOM     29  C   UNL     1     110.699  10.206  56.511  0.00  0.00    +0.013 A 
BRANCH  18  19
ATOM     19  C   UNL     1     109.135   8.298  53.518  0.00  0.00    +0.119 C 
BRANCH  19  20
ATOM     20  N   UNL     1     109.470   8.001  52.093  0.00  0.00    -0.302 NA
ATOM     21  C   UNL     1     109.041   9.132  51.154  0.00  0.00    +0.066 C 
ATOM     22  C   UNL     1     109.419   8.815  49.671  0.00  0.00    -0.064 C 
ATOM     23  N   UNL     1     108.775   7.491  49.255  0.00  0.00    +0.379 N 
ATOM     24  C   UNL     1     109.081   7.219  47.843  0.00  0.00    -0.096 C 
ATOM     25  H   UNL     1     107.670   7.611  49.345  0.00  0.00    -0.082 HD
ATOM     26  C   UNL     1     109.194   6.362  50.185  0.00  0.00    -0.064 C 
ATOM     27  C   UNL     1     108.840   6.700  51.660  0.00  0.00    +0.066 C 
ENDBRANCH  19  20
ENDBRANCH  18  19
ENDBRANCH  14  15
ENDBRANCH  12  13
TORSDOF 6
ENDMDL
MODEL 5
REMARK VINA RESULT:      -7.0      2.215     13.822
REMARK  Name = C:\Users\Docking\Desktop\test protocol\1iep_ligandH.pdb
REMARK  8 active torsions:
REMARK  status: ('A' for Active; 'I' for Inactive)
REMARK    1  A    between atoms: _5  and  _11
REMARK    2  A    between atoms: _19  and  _21
REMARK    3  A    between atoms: _22  and  _66
REMARK    4  A    between atoms: _27  and  _30
REMARK    5  A    between atoms: _32  and  _33
REMARK    6  A    between atoms: _38  and  _43
REMARK    7  A    between atoms: _43  and  _46
REMARK    8  A    between atoms: _53  and  _55
REMARK                            x       y       z     vdW  Elec       q    Type
REMARK                         _______ _______ _______ _____ _____    ______ ____
ROOT
ATOM     10  C   UNL     1     108.990   9.045  52.476  0.00  0.00    +0.038 A 
ATOM     11  C   UNL     1     110.002   9.738  53.189  0.00  0.00    +0.047 A 
ATOM     12  C   UNL     1     110.035   9.735  54.643  0.00  0.00    +0.035 A 
ATOM     32  C   UNL     1     109.023   9.013  55.340  0.00  0.00    +0.024 A 
ATOM     33  C   UNL     1     107.987   8.303  54.632  0.00  0.00    +0.007 A 
ATOM     34  C   UNL     1     107.948   8.305  53.198  0.00  0.00    -0.029 A 
ATOM     35  C   UNL     1     106.809   7.533  52.491  0.00  0.00    +0.045 C 
ENDROOT
BRANCH  10   9
ATOM      4  C   UNL     1     110.052   7.132  48.204  0.00  0.00    +0.077 A 
ATOM      5  C   UNL     1     110.649   5.974  48.805  0.00  0.00    +0.048 A 
ATOM      6  C   UNL     1     110.669   5.913  50.216  0.00  0.00    +0.116 A 
ATOM      7  N   UNL     1     110.129   6.939  50.962  0.00  0.00    -0.223 NA
ATOM      8  C   UNL     1     109.562   8.042  50.351  0.00  0.00    +0.220 A 
ATOM      9  N   UNL     1     109.007   9.081  51.080  0.00  0.00    -0.283 N 
ATOM     36  H   UNL     1     108.605   9.882  50.592  0.00  0.00    +0.155 HD
ATOM     37  N   UNL     1     109.532   8.125  49.004  0.00  0.00    -0.214 NA
BRANCH   4   3
ATOM      1  C   UNL     1     109.883   6.500  44.348  0.00  0.00    +0.020 A 
ATOM      2  C   UNL     1     109.984   6.244  45.766  0.00  0.00    +0.013 A 
ATOM      3  C   UNL     1     109.952   7.341  46.725  0.00  0.00    +0.019 A 
ATOM     38  C   UNL     1     109.815   8.696  46.212  0.00  0.00    +0.120 A 
ATOM     39  N   UNL     1     109.722   8.912  44.841  0.00  0.00    -0.263 NA
ATOM     40  C   UNL     1     109.753   7.865  43.908  0.00  0.00    +0.111 A 
ENDBRANCH   4   3
ENDBRANCH  10   9
BRANCH  12  13
ATOM     13  N   UNL     1     111.033  10.428  55.420  0.00  0.00    -0.281 N 
ATOM     14  C   UNL     1     111.522  11.710  55.230  0.00  0.00    +0.248 C 
ATOM     30  O   UNL     1     111.328  12.382  54.228  0.00  0.00    -0.270 OA
ATOM     31  H   UNL     1     111.427   9.909  56.206  0.00  0.00    +0.155 HD
BRANCH  14  15
ATOM     15  C   UNL     1     112.359  12.329  56.302  0.00  0.00    +0.037 A 
ATOM     16  C   UNL     1     111.876  12.428  57.682  0.00  0.00    +0.013 A 
ATOM     17  C   UNL     1     112.697  13.046  58.693  0.00  0.00    +0.005 A 
ATOM     18  C   UNL     1     114.011  13.569  58.328  0.00  0.00    -0.033 A 
ATOM     28  C   UNL     1     114.467  13.453  56.953  0.00  0.00    +0.005 A 
ATOM     29  C   UNL     1     113.665  12.849  55.959  0.00  0.00    +0.013 A 
BRANCH  18  19
ATOM     19  C   UNL     1     114.945  14.263  59.337  0.00  0.00    +0.119 C 
BRANCH  19  20
ATOM     20  N   UNL     1     115.422  13.452  60.497  0.00  0.00    -0.302 NA
ATOM     21  C   UNL     1     115.548  11.966  60.146  0.00  0.00    +0.066 C 
ATOM     22  C   UNL     1     116.070  11.136  61.364  0.00  0.00    -0.064 C 
ATOM     23  N   UNL     1     115.127  11.334  62.553  0.00  0.00    +0.379 N 
ATOM     24  C   UNL     1     115.583  10.509  63.682  0.00  0.00    -0.096 C 
ATOM     25  H   UNL     1     114.120  10.966  62.250  0.00  0.00    -0.082 HD
ATOM     26  C   UNL     1     114.994  12.808  62.907  0.00  0.00    -0.064 C 
ATOM     27  C   UNL     1     114.503  13.628  61.681  0.00  0.00    +0.066 C 
ENDBRANCH  19  20
ENDBRANCH  18  19
ENDBRANCH  14  15
ENDBRANCH  12  13
TORSDOF 6
ENDMDL
