MODEL 1
REMARK VINA RESULT:      -9.2      0.000      0.000
REMARK  Name = C:\Users\Docking\Desktop\test protocol\1iep_ligandH.pdb
REMARK  8 active torsions:
REMARK  status: ('A' for Active; 'I' for Inactive)
REMARK    1  A    between atoms: _5  and  _11
REMARK    2  A    between atoms: _19  and  _21
REMARK    3  A    between atoms: _22  and  _66
REMARK    4  A    between atoms: _27  and  _30
REMARK    5  A    between atoms: _32  and  _33
REMARK    6  A    between atoms: _38  and  _43
REMARK    7  A    between atoms: _43  and  _46
REMARK    8  A    between atoms: _53  and  _55
REMARK                            x       y       z     vdW  Elec       q    Type
REMARK                         _______ _______ _______ _____ _____    ______ ____
ROOT
ATOM     10  C   UNL     1      44.992 104.546  28.392  0.00  0.00    +0.038 A 
ATOM     11  C   UNL     1      46.354 104.697  28.023  0.00  0.00    +0.047 A 
ATOM     12  C   UNL     1      47.417 104.593  29.010  0.00  0.00    +0.035 A 
ATOM     32  C   UNL     1      47.058 104.331  30.364  0.00  0.00    +0.024 A 
ATOM     33  C   UNL     1      45.680 104.176  30.757  0.00  0.00    +0.007 A 
ATOM     34  C   UNL     1      44.626 104.280  29.788  0.00  0.00    -0.029 A 
ATOM     35  C   UNL     1      43.166 104.111  30.267  0.00  0.00    +0.045 C 
ENDROOT
BRANCH  10   9
ATOM      4  C   UNL     1      42.587 107.046  25.075  0.00  0.00    +0.077 A 
ATOM      5  C   UNL     1      43.328 108.242  25.355  0.00  0.00    +0.048 A 
ATOM      6  C   UNL     1      44.314 108.174  26.364  0.00  0.00    +0.116 A 
ATOM      7  N   UNL     1      44.535 106.992  27.037  0.00  0.00    -0.223 NA
ATOM      8  C   UNL     1      43.802 105.857  26.744  0.00  0.00    +0.220 A 
ATOM      9  N   UNL     1      44.012 104.655  27.403  0.00  0.00    -0.283 N 
ATOM     36  H   UNL     1      43.445 103.842  27.163  0.00  0.00    +0.155 HD
ATOM     37  N   UNL     1      42.853 105.897  25.785  0.00  0.00    -0.214 NA
BRANCH   4   3
ATOM      1  C   UNL     1      40.724 106.861  21.641  0.00  0.00    +0.020 A 
ATOM      2  C   UNL     1      41.797 106.948  22.605  0.00  0.00    +0.013 A 
ATOM      3  C   UNL     1      41.514 106.958  24.035  0.00  0.00    +0.019 A 
ATOM     38  C   UNL     1      40.125 106.879  24.459  0.00  0.00    +0.120 A 
ATOM     39  N   UNL     1      39.113 106.798  23.508  0.00  0.00    -0.263 NA
ATOM     40  C   UNL     1      39.372 106.788  22.129  0.00  0.00    +0.111 A 
ENDBRANCH   4   3
ENDBRANCH  10   9
BRANCH  12  13
ATOM     13  N   UNL     1      48.816 104.745  28.696  0.00  0.00    -0.281 N 
ATOM     14  C   UNL     1      49.450 105.847  28.146  0.00  0.00    +0.248 C 
ATOM     30  O   UNL     1      48.871 106.797  27.641  0.00  0.00    -0.270 OA
ATOM     31  H   UNL     1      49.411 103.943  28.903  0.00  0.00    +0.155 HD
BRANCH  14  15
ATOM     15  C   UNL     1      50.944 105.894  28.145  0.00  0.00    +0.037 A 
ATOM     16  C   UNL     1      51.737 104.871  28.831  0.00  0.00    +0.013 A 
ATOM     17  C   UNL     1      53.177 104.949  28.828  0.00  0.00    +0.005 A 
ATOM     18  C   UNL     1      53.832 106.056  28.135  0.00  0.00    -0.033 A 
ATOM     28  C   UNL     1      53.021 107.054  27.458  0.00  0.00    +0.005 A 
ATOM     29  C   UNL     1      51.610 106.981  27.459  0.00  0.00    +0.013 A 
BRANCH  18  19
ATOM     19  C   UNL     1      55.362 106.231  28.099  0.00  0.00    +0.119 C 
BRANCH  19  20
ATOM     20  N   UNL     1      56.040 106.587  29.381  0.00  0.00    -0.302 NA
ATOM     21  C   UNL     1      57.326 107.385  29.148  0.00  0.00    +0.066 C 
ATOM     22  C   UNL     1      58.011 107.768  30.500  0.00  0.00    -0.064 C 
ATOM     23  N   UNL     1      58.300 106.497  31.301  0.00  0.00    +0.379 N 
ATOM     24  C   UNL     1      58.996 106.849  32.547  0.00  0.00    -0.096 C 
ATOM     25  H   UNL     1      58.990 105.865  30.694  0.00  0.00    -0.082 HD
ATOM     26  C   UNL     1      57.027 105.696  31.534  0.00  0.00    -0.064 C 
ATOM     27  C   UNL     1      56.339 105.346  30.185  0.00  0.00    +0.066 C 
ENDBRANCH  19  20
ENDBRANCH  18  19
ENDBRANCH  14  15
ENDBRANCH  12  13
TORSDOF 6
ENDMDL
MODEL 2
REMARK VINA RESULT:      -9.0     20.245     25.637
REMARK  Name = C:\Users\Docking\Desktop\test protocol\1iep_ligandH.pdb
REMARK  8 active torsions:
REMARK  status: ('A' for Active; 'I' for Inactive)
REMARK    1  A    between atoms: _5  and  _11
REMARK    2  A    between atoms: _19  and  _21
REMARK    3  A    between atoms: _22  and  _66
REMARK    4  A    between atoms: _27  and  _30
REMARK    5  A    between atoms: _32  and  _33
REMARK    6  A    between atoms: _38  and  _43
REMARK    7  A    between atoms: _43  and  _46
REMARK    8  A    between atoms: _53  and  _55
REMARK                            x       y       z     vdW  Elec       q    Type
REMARK                         _______ _______ _______ _____ _____    ______ ____
ROOT
ATOM     10  C   UNL     1      61.213  85.904  33.980  0.00  0.00    +0.038 A 
ATOM     11  C   UNL     1      59.907  86.442  34.110  0.00  0.00    +0.047 A 
ATOM     12  C   UNL     1      59.507  87.633  33.376  0.00  0.00    +0.035 A 
ATOM     32  C   UNL     1      60.462  88.250  32.518  0.00  0.00    +0.024 A 
ATOM     33  C   UNL     1      61.795  87.718  32.375  0.00  0.00    +0.007 A 
ATOM     34  C   UNL     1      62.196  86.545  33.098  0.00  0.00    -0.029 A 
ATOM     35  C   UNL     1      63.639  86.022  32.911  0.00  0.00    +0.045 C 
ENDROOT
BRANCH  10   9
ATOM      4  C   UNL     1      61.102  81.157  34.681  0.00  0.00    +0.077 A 
ATOM      5  C   UNL     1      60.296  80.944  33.514  0.00  0.00    +0.048 A 
ATOM      6  C   UNL     1      59.925  82.084  32.765  0.00  0.00    +0.116 A 
ATOM      7  N   UNL     1      60.336  83.337  33.162  0.00  0.00    -0.223 NA
ATOM      8  C   UNL     1      61.112  83.508  34.294  0.00  0.00    +0.220 A 
ATOM      9  N   UNL     1      61.543  84.759  34.708  0.00  0.00    -0.283 N 
ATOM     36  H   UNL     1      62.108  84.843  35.553  0.00  0.00    +0.155 HD
ATOM     37  N   UNL     1      61.478  82.436  35.027  0.00  0.00    -0.214 NA
BRANCH   4   3
ATOM      1  C   UNL     1      62.604  79.192  37.711  0.00  0.00    +0.020 A 
ATOM      2  C   UNL     1      62.162  80.293  36.887  0.00  0.00    +0.013 A 
ATOM      3  C   UNL     1      61.577  80.054  35.574  0.00  0.00    +0.019 A 
ATOM     38  C   UNL     1      61.453  78.677  35.120  0.00  0.00    +0.120 A 
ATOM     39  N   UNL     1      61.889  77.636  35.934  0.00  0.00    -0.263 NA
ATOM     40  C   UNL     1      62.455  77.855  37.199  0.00  0.00    +0.111 A 
ENDBRANCH   4   3
ENDBRANCH  10   9
BRANCH  12  13
ATOM     13  N   UNL     1      58.197  88.228  33.474  0.00  0.00    -0.281 N 
ATOM     14  C   UNL     1      57.701  89.033  34.487  0.00  0.00    +0.248 C 
ATOM     30  O   UNL     1      58.240  89.189  35.572  0.00  0.00    -0.270 OA
ATOM     31  H   UNL     1      57.559  88.033  32.703  0.00  0.00    +0.155 HD
BRANCH  14  15
ATOM     15  C   UNL     1      56.413  89.758  34.267  0.00  0.00    +0.037 A 
ATOM     16  C   UNL     1      55.140  89.208  34.741  0.00  0.00    +0.013 A 
ATOM     17  C   UNL     1      53.910  89.920  34.501  0.00  0.00    +0.005 A 
ATOM     18  C   UNL     1      53.947  91.191  33.783  0.00  0.00    -0.033 A 
ATOM     28  C   UNL     1      55.224  91.717  33.328  0.00  0.00    +0.005 A 
ATOM     29  C   UNL     1      56.431  91.021  33.561  0.00  0.00    +0.013 A 
BRANCH  18  19
ATOM     19  C   UNL     1      52.681  92.009  33.464  0.00  0.00    +0.119 C 
BRANCH  19  20
ATOM     20  N   UNL     1      51.621  92.065  34.514  0.00  0.00    -0.302 NA
ATOM     21  C   UNL     1      50.218  91.897  33.923  0.00  0.00    +0.066 C 
ATOM     22  C   UNL     1      49.122  91.936  35.037  0.00  0.00    -0.064 C 
ATOM     23  N   UNL     1      49.231  93.252  35.810  0.00  0.00    +0.379 N 
ATOM     24  C   UNL     1      48.166  93.317  36.821  0.00  0.00    -0.096 C 
ATOM     25  H   UNL     1      49.063  94.083  35.087  0.00  0.00    -0.082 HD
ATOM     26  C   UNL     1      50.624  93.428  36.399  0.00  0.00    -0.064 C 
ATOM     27  C   UNL     1      51.707  93.358  35.286  0.00  0.00    +0.066 C 
ENDBRANCH  19  20
ENDBRANCH  18  19
ENDBRANCH  14  15
ENDBRANCH  12  13
TORSDOF 6
ENDMDL
MODEL 3
REMARK VINA RESULT:      -8.4      6.125     14.992
REMARK  Name = C:\Users\Docking\Desktop\test protocol\1iep_ligandH.pdb
REMARK  8 active torsions:
REMARK  status: ('A' for Active; 'I' for Inactive)
REMARK    1  A    between atoms: _5  and  _11
REMARK    2  A    between atoms: _19  and  _21
REMARK    3  A    between atoms: _22  and  _66
REMARK    4  A    between atoms: _27  and  _30
REMARK    5  A    between atoms: _32  and  _33
REMARK    6  A    between atoms: _38  and  _43
REMARK    7  A    between atoms: _43  and  _46
REMARK    8  A    between atoms: _53  and  _55
REMARK                            x       y       z     vdW  Elec       q    Type
REMARK                         _______ _______ _______ _____ _____    ______ ____
ROOT
ATOM     10  C   UNL     1      42.331 105.809  25.329  0.00  0.00    +0.038 A 
ATOM     11  C   UNL     1      41.085 105.320  25.797  0.00  0.00    +0.047 A 
ATOM     12  C   UNL     1      39.840 105.675  25.134  0.00  0.00    +0.035 A 
ATOM     32  C   UNL     1      39.902 106.527  23.993  0.00  0.00    +0.024 A 
ATOM     33  C   UNL     1      41.160 107.034  23.504  0.00  0.00    +0.007 A 
ATOM     34  C   UNL     1      42.391 106.689  24.156  0.00  0.00    -0.029 A 
ATOM     35  C   UNL     1      43.710 107.267  23.592  0.00  0.00    +0.045 C 
ENDROOT
BRANCH  10   9
ATOM      4  C   UNL     1      45.487 106.300  28.911  0.00  0.00    +0.077 A 
ATOM      5  C   UNL     1      44.770 107.411  29.469  0.00  0.00    +0.048 A 
ATOM      6  C   UNL     1      43.598 107.829  28.800  0.00  0.00    +0.116 A 
ATOM      7  N   UNL     1      43.183 107.177  27.659  0.00  0.00    -0.223 NA
ATOM      8  C   UNL     1      43.899 106.111  27.146  0.00  0.00    +0.220 A 
ATOM      9  N   UNL     1      43.495 105.436  26.005  0.00  0.00    -0.283 N 
ATOM     36  H   UNL     1      44.055 104.659  25.654  0.00  0.00    +0.155 HD
ATOM     37  N   UNL     1      45.022 105.693  27.766  0.00  0.00    -0.214 NA
BRANCH   4   3
ATOM      1  C   UNL     1      48.976 105.983  30.652  0.00  0.00    +0.020 A 
ATOM      2  C   UNL     1      47.783 106.575  30.091  0.00  0.00    +0.013 A 
ATOM      3  C   UNL     1      46.742 105.740  29.506  0.00  0.00    +0.019 A 
ATOM     38  C   UNL     1      46.939 104.298  29.505  0.00  0.00    +0.120 A 
ATOM     39  N   UNL     1      48.099 103.757  30.051  0.00  0.00    -0.263 NA
ATOM     40  C   UNL     1      49.108 104.550  30.616  0.00  0.00    +0.111 A 
ENDBRANCH   4   3
ENDBRANCH  10   9
BRANCH  12  13
ATOM     13  N   UNL     1      38.544 105.216  25.569  0.00  0.00    -0.281 N 
ATOM     14  C   UNL     1      37.734 104.262  24.974  0.00  0.00    +0.248 C 
ATOM     30  O   UNL     1      37.909 103.810  23.852  0.00  0.00    -0.270 OA
ATOM     31  H   UNL     1      38.179 105.646  26.419  0.00  0.00    +0.155 HD
BRANCH  14  15
ATOM     15  C   UNL     1      36.551 103.747  25.728  0.00  0.00    +0.037 A 
ATOM     16  C   UNL     1      35.666 104.653  26.465  0.00  0.00    +0.013 A 
ATOM     17  C   UNL     1      34.542 104.128  27.198  0.00  0.00    +0.005 A 
ATOM     18  C   UNL     1      34.296 102.688  27.197  0.00  0.00    -0.033 A 
ATOM     28  C   UNL     1      35.187 101.812  26.454  0.00  0.00    +0.005 A 
ATOM     29  C   UNL     1      36.290 102.323  25.735  0.00  0.00    +0.013 A 
BRANCH  18  19
ATOM     19  C   UNL     1      33.133 102.038  27.970  0.00  0.00    +0.119 C 
BRANCH  19  20
ATOM     20  N   UNL     1      33.437 101.476  29.320  0.00  0.00    -0.302 NA
ATOM     21  C   UNL     1      32.647 100.195  29.601  0.00  0.00    +0.066 C 
ATOM     22  C   UNL     1      32.994  99.609  31.008  0.00  0.00    -0.064 C 
ATOM     23  N   UNL     1      32.715 100.664  32.080  0.00  0.00    +0.379 N 
ATOM     24  C   UNL     1      32.986 100.097  33.409  0.00  0.00    -0.096 C 
ATOM     25  H   UNL     1      31.630 100.914  32.033  0.00  0.00    -0.082 HD
ATOM     26  C   UNL     1      33.495 101.942  31.806  0.00  0.00    -0.064 C 
ATOM     27  C   UNL     1      33.165 102.500  30.394  0.00  0.00    +0.066 C 
ENDBRANCH  19  20
ENDBRANCH  18  19
ENDBRANCH  14  15
ENDBRANCH  12  13
TORSDOF 6
ENDMDL
MODEL 4
REMARK VINA RESULT:      -8.2      2.560     13.267
REMARK  Name = C:\Users\Docking\Desktop\test protocol\1iep_ligandH.pdb
REMARK  8 active torsions:
REMARK  status: ('A' for Active; 'I' for Inactive)
REMARK    1  A    between atoms: _5  and  _11
REMARK    2  A    between atoms: _19  and  _21
REMARK    3  A    between atoms: _22  and  _66
REMARK    4  A    between atoms: _27  and  _30
REMARK    5  A    between atoms: _32  and  _33
REMARK    6  A    between atoms: _38  and  _43
REMARK    7  A    between atoms: _43  and  _46
REMARK    8  A    between atoms: _53  and  _55
REMARK                            x       y       z     vdW  Elec       q    Type
REMARK                         _______ _______ _______ _____ _____    ______ ____
ROOT
ATOM     10  C   UNL     1      48.652 105.834  29.114  0.00  0.00    +0.038 A 
ATOM     11  C   UNL     1      47.692 105.966  28.078  0.00  0.00    +0.047 A 
ATOM     12  C   UNL     1      46.277 106.120  28.379  0.00  0.00    +0.035 A 
ATOM     32  C   UNL     1      45.876 106.138  29.747  0.00  0.00    +0.024 A 
ATOM     33  C   UNL     1      46.838 106.004  30.812  0.00  0.00    +0.007 A 
ATOM     34  C   UNL     1      48.235 105.849  30.521  0.00  0.00    -0.029 A 
ATOM     35  C   UNL     1      49.222 105.703  31.702  0.00  0.00    +0.045 C 
ENDROOT
BRANCH  10   9
ATOM      4  C   UNL     1      52.779 107.543  27.357  0.00  0.00    +0.077 A 
ATOM      5  C   UNL     1      52.199 108.826  27.082  0.00  0.00    +0.048 A 
ATOM      6  C   UNL     1      50.834 109.003  27.400  0.00  0.00    +0.116 A 
ATOM      7  N   UNL     1      50.112 107.967  27.953  0.00  0.00    -0.223 NA
ATOM      8  C   UNL     1      50.702 106.742  28.204  0.00  0.00    +0.220 A 
ATOM      9  N   UNL     1      49.997 105.689  28.767  0.00  0.00    -0.283 N 
ATOM     36  H   UNL     1      50.467 104.798  28.931  0.00  0.00    +0.155 HD
ATOM     37  N   UNL     1      52.004 106.547  27.908  0.00  0.00    -0.214 NA
BRANCH   4   3
ATOM      1  C   UNL     1      56.358 105.983  27.592  0.00  0.00    +0.020 A 
ATOM      2  C   UNL     1      54.979 106.277  27.903  0.00  0.00    +0.013 A 
ATOM      3  C   UNL     1      54.211 107.203  27.080  0.00  0.00    +0.019 A 
ATOM     38  C   UNL     1      54.873 107.818  25.940  0.00  0.00    +0.120 A 
ATOM     39  N   UNL     1      56.203 107.516  25.665  0.00  0.00    -0.263 NA
ATOM     40  C   UNL     1      56.953 106.628  26.451  0.00  0.00    +0.111 A 
ENDBRANCH   4   3
ENDBRANCH  10   9
BRANCH  12  13
ATOM     13  N   UNL     1      45.256 106.251  27.370  0.00  0.00    -0.281 N 
ATOM     14  C   UNL     1      44.422 105.264  26.869  0.00  0.00    +0.248 C 
ATOM     30  O   UNL     1      44.575 104.067  27.062  0.00  0.00    -0.270 OA
ATOM     31  H   UNL     1      45.132 107.184  26.977  0.00  0.00    +0.155 HD
BRANCH  14  15
ATOM     15  C   UNL     1      43.259 105.664  26.020  0.00  0.00    +0.037 A 
ATOM     16  C   UNL     1      43.444 106.465  24.807  0.00  0.00    +0.013 A 
ATOM     17  C   UNL     1      42.303 106.851  24.014  0.00  0.00    +0.005 A 
ATOM     18  C   UNL     1      40.967 106.435  24.433  0.00  0.00    -0.033 A 
ATOM     28  C   UNL     1      40.813 105.637  25.638  0.00  0.00    +0.005 A 
ATOM     29  C   UNL     1      41.928 105.257  26.418  0.00  0.00    +0.013 A 
BRANCH  18  19
ATOM     19  C   UNL     1      39.691 106.820  23.661  0.00  0.00    +0.119 C 
BRANCH  19  20
ATOM     20  N   UNL     1      38.403 106.226  24.129  0.00  0.00    -0.302 NA
ATOM     21  C   UNL     1      37.665 105.495  23.004  0.00  0.00    +0.066 C 
ATOM     22  C   UNL     1      36.331 104.861  23.516  0.00  0.00    -0.064 C 
ATOM     23  N   UNL     1      35.449 105.955  24.122  0.00  0.00    +0.379 N 
ATOM     24  C   UNL     1      34.170 105.372  24.552  0.00  0.00    -0.096 C 
ATOM     25  H   UNL     1      35.230 106.696  23.318  0.00  0.00    -0.082 HD
ATOM     26  C   UNL     1      36.177 106.689  25.240  0.00  0.00    -0.064 C 
ATOM     27  C   UNL     1      37.515 107.290  24.727  0.00  0.00    +0.066 C 
ENDBRANCH  19  20
ENDBRANCH  18  19
ENDBRANCH  14  15
ENDBRANCH  12  13
TORSDOF 6
ENDMDL
MODEL 5
REMARK VINA RESULT:      -8.1      6.295     10.734
REMARK  Name = C:\Users\Docking\Desktop\test protocol\1iep_ligandH.pdb
REMARK  8 active torsions:
REMARK  status: ('A' for Active; 'I' for Inactive)
REMARK    1  A    between atoms: _5  and  _11
REMARK    2  A    between atoms: _19  and  _21
REMARK    3  A    between atoms: _22  and  _66
REMARK    4  A    between atoms: _27  and  _30
REMARK    5  A    between atoms: _32  and  _33
REMARK    6  A    between atoms: _38  and  _43
REMARK    7  A    between atoms: _43  and  _46
REMARK    8  A    between atoms: _53  and  _55
REMARK                            x       y       z     vdW  Elec       q    Type
REMARK                         _______ _______ _______ _____ _____    ______ ____
ROOT
ATOM     10  C   UNL     1      49.116 106.953  29.177  0.00  0.00    +0.038 A 
ATOM     11  C   UNL     1      48.635 108.245  28.845  0.00  0.00    +0.047 A 
ATOM     12  C   UNL     1      49.362 109.104  27.923  0.00  0.00    +0.035 A 
ATOM     32  C   UNL     1      50.574 108.614  27.356  0.00  0.00    +0.024 A 
ATOM     33  C   UNL     1      51.078 107.304  27.683  0.00  0.00    +0.007 A 
ATOM     34  C   UNL     1      50.367 106.453  28.594  0.00  0.00    -0.029 A 
ATOM     35  C   UNL     1      50.957 105.060  28.914  0.00  0.00    +0.045 C 
ENDROOT
BRANCH  10   9
ATOM      4  C   UNL     1      45.484 103.985  30.197  0.00  0.00    +0.077 A 
ATOM      5  C   UNL     1      45.001 104.017  28.847  0.00  0.00    +0.048 A 
ATOM      6  C   UNL     1      45.711 104.816  27.922  0.00  0.00    +0.116 A 
ATOM      7  N   UNL     1      46.821 105.524  28.329  0.00  0.00    -0.223 NA
ATOM      8  C   UNL     1      47.260 105.472  29.639  0.00  0.00    +0.220 A 
ATOM      9  N   UNL     1      48.378 106.170  30.068  0.00  0.00    -0.283 N 
ATOM     36  H   UNL     1      48.665 106.111  31.045  0.00  0.00    +0.155 HD
ATOM     37  N   UNL     1      46.598 104.718  30.542  0.00  0.00    -0.214 NA
BRANCH   4   3
ATOM      1  C   UNL     1      42.926 101.869  32.266  0.00  0.00    +0.020 A 
ATOM      2  C   UNL     1      43.499 102.635  31.183  0.00  0.00    +0.013 A 
ATOM      3  C   UNL     1      44.844 103.185  31.289  0.00  0.00    +0.019 A 
ATOM     38  C   UNL     1      45.590 102.940  32.514  0.00  0.00    +0.120 A 
ATOM     39  N   UNL     1      45.013 102.200  33.541  0.00  0.00    -0.263 NA
ATOM     40  C   UNL     1      43.718 101.667  33.451  0.00  0.00    +0.111 A 
ENDBRANCH   4   3
ENDBRANCH  10   9
BRANCH  12  13
ATOM     13  N   UNL     1      48.926 110.429  27.554  0.00  0.00    -0.281 N 
ATOM     14  C   UNL     1      49.468 111.642  27.945  0.00  0.00    +0.248 C 
ATOM     30  O   UNL     1      50.281 111.778  28.847  0.00  0.00    -0.270 OA
ATOM     31  H   UNL     1      48.122 110.477  26.929  0.00  0.00    +0.155 HD
BRANCH  14  15
ATOM     15  C   UNL     1      49.031 112.887  27.242  0.00  0.00    +0.037 A 
ATOM     16  C   UNL     1      49.655 114.181  27.531  0.00  0.00    +0.013 A 
ATOM     17  C   UNL     1      49.203 115.370  26.852  0.00  0.00    +0.005 A 
ATOM     18  C   UNL     1      48.122 115.268  25.874  0.00  0.00    -0.033 A 
ATOM     28  C   UNL     1      47.525 113.971  25.603  0.00  0.00    +0.005 A 
ATOM     29  C   UNL     1      47.964 112.804  26.268  0.00  0.00    +0.013 A 
BRANCH  18  19
ATOM     19  C   UNL     1      47.562 116.487  25.117  0.00  0.00    +0.119 C 
BRANCH  19  20
ATOM     20  N   UNL     1      46.491 117.279  25.792  0.00  0.00    -0.302 NA
ATOM     21  C   UNL     1      45.247 117.428  24.912  0.00  0.00    +0.066 C 
ATOM     22  C   UNL     1      44.128 118.240  25.642  0.00  0.00    -0.064 C 
ATOM     23  N   UNL     1      44.675 119.610  26.044  0.00  0.00    +0.379 N 
ATOM     24  C   UNL     1      43.608 120.398  26.679  0.00  0.00    -0.096 C 
ATOM     25  H   UNL     1      44.977 120.141  25.111  0.00  0.00    -0.082 HD
ATOM     26  C   UNL     1      45.914 119.471  26.917  0.00  0.00    -0.064 C 
ATOM     27  C   UNL     1      47.009 118.638  26.193  0.00  0.00    +0.066 C 
ENDBRANCH  19  20
ENDBRANCH  18  19
ENDBRANCH  14  15
ENDBRANCH  12  13
TORSDOF 6
ENDMDL
