MODEL 1
REMARK VINA RESULT:      -7.3      0.000      0.000
REMARK  Name = C:\Users\Docking\Desktop\test protocol\1iep_ligandH.pdb
REMARK  8 active torsions:
REMARK  status: ('A' for Active; 'I' for Inactive)
REMARK    1  A    between atoms: _5  and  _11
REMARK    2  A    between atoms: _19  and  _21
REMARK    3  A    between atoms: _22  and  _66
REMARK    4  A    between atoms: _27  and  _30
REMARK    5  A    between atoms: _32  and  _33
REMARK    6  A    between atoms: _38  and  _43
REMARK    7  A    between atoms: _43  and  _46
REMARK    8  A    between atoms: _53  and  _55
REMARK                            x       y       z     vdW  Elec       q    Type
REMARK                         _______ _______ _______ _____ _____    ______ ____
ROOT
ATOM     10  C   UNL     1      52.924  15.184  65.802  0.00  0.00    +0.038 A 
ATOM     11  C   UNL     1      52.055  14.217  65.236  0.00  0.00    +0.047 A 
ATOM     12  C   UNL     1      51.967  12.872  65.783  0.00  0.00    +0.035 A 
ATOM     32  C   UNL     1      52.778  12.547  66.909  0.00  0.00    +0.024 A 
ATOM     33  C   UNL     1      53.668  13.517  67.496  0.00  0.00    +0.007 A 
ATOM     34  C   UNL     1      53.761  14.845  66.959  0.00  0.00    -0.029 A 
ATOM     35  C   UNL     1      54.737  15.842  67.625  0.00  0.00    +0.045 C 
ENDROOT
BRANCH  10   9
ATOM      4  C   UNL     1      54.456  18.291  62.479  0.00  0.00    +0.077 A 
ATOM      5  C   UNL     1      55.258  17.294  61.831  0.00  0.00    +0.048 A 
ATOM      6  C   UNL     1      55.254  15.995  62.388  0.00  0.00    +0.116 A 
ATOM      7  N   UNL     1      54.500  15.726  63.510  0.00  0.00    -0.223 NA
ATOM      8  C   UNL     1      53.739  16.711  64.112  0.00  0.00    +0.220 A 
ATOM      9  N   UNL     1      52.968  16.460  65.236  0.00  0.00    -0.283 N 
ATOM     36  H   UNL     1      52.426  17.216  65.655  0.00  0.00    +0.155 HD
ATOM     37  N   UNL     1      53.727  17.959  63.600  0.00  0.00    -0.214 NA
BRANCH   4   3
ATOM      1  C   UNL     1      53.682  22.122  62.308  0.00  0.00    +0.020 A 
ATOM      2  C   UNL     1      53.756  20.769  62.810  0.00  0.00    +0.013 A 
ATOM      3  C   UNL     1      54.353  19.708  62.008  0.00  0.00    +0.019 A 
ATOM     38  C   UNL     1      54.872  20.053  60.693  0.00  0.00    +0.120 A 
ATOM     39  N   UNL     1      54.785  21.364  60.235  0.00  0.00    -0.263 NA
ATOM     40  C   UNL     1      54.211  22.393  60.997  0.00  0.00    +0.111 A 
ENDBRANCH   4   3
ENDBRANCH  10   9
BRANCH  12  13
ATOM     13  N   UNL     1      51.109  11.845  65.246  0.00  0.00    -0.281 N 
ATOM     14  C   UNL     1      49.796  11.567  65.589  0.00  0.00    +0.248 C 
ATOM     30  O   UNL     1      49.226  12.025  66.569  0.00  0.00    -0.270 OA
ATOM     31  H   UNL     1      51.519  11.252  64.525  0.00  0.00    +0.155 HD
BRANCH  14  15
ATOM     15  C   UNL     1      49.007  10.634  64.729  0.00  0.00    +0.037 A 
ATOM     16  C   UNL     1      47.716  10.100  65.172  0.00  0.00    +0.013 A 
ATOM     17  C   UNL     1      46.983   9.188  64.330  0.00  0.00    +0.005 A 
ATOM     18  C   UNL     1      47.540   8.806  63.034  0.00  0.00    -0.033 A 
ATOM     28  C   UNL     1      48.819   9.355  62.617  0.00  0.00    +0.005 A 
ATOM     29  C   UNL     1      49.541  10.248  63.440  0.00  0.00    +0.013 A 
BRANCH  18  19
ATOM     19  C   UNL     1      46.837   7.823  62.079  0.00  0.00    +0.119 C 
BRANCH  19  20
ATOM     20  N   UNL     1      46.547   6.454  62.600  0.00  0.00    -0.302 NA
ATOM     21  C   UNL     1      46.771   5.375  61.537  0.00  0.00    +0.066 C 
ATOM     22  C   UNL     1      46.484   3.947  62.105  0.00  0.00    -0.064 C 
ATOM     23  N   UNL     1      45.052   3.891  62.639  0.00  0.00    +0.379 N 
ATOM     24  C   UNL     1      44.761   2.533  63.122  0.00  0.00    -0.096 C 
ATOM     25  H   UNL     1      44.365   4.103  61.787  0.00  0.00    -0.082 HD
ATOM     26  C   UNL     1      44.820   4.962  63.696  0.00  0.00    -0.064 C 
ATOM     27  C   UNL     1      45.136   6.375  63.129  0.00  0.00    +0.066 C 
ENDBRANCH  19  20
ENDBRANCH  18  19
ENDBRANCH  14  15
ENDBRANCH  12  13
TORSDOF 6
ENDMDL
MODEL 2
REMARK VINA RESULT:      -7.2      1.783      2.470
REMARK  Name = C:\Users\Docking\Desktop\test protocol\1iep_ligandH.pdb
REMARK  8 active torsions:
REMARK  status: ('A' for Active; 'I' for Inactive)
REMARK    1  A    between atoms: _5  and  _11
REMARK    2  A    between atoms: _19  and  _21
REMARK    3  A    between atoms: _22  and  _66
REMARK    4  A    between atoms: _27  and  _30
REMARK    5  A    between atoms: _32  and  _33
REMARK    6  A    between atoms: _38  and  _43
REMARK    7  A    between atoms: _43  and  _46
REMARK    8  A    between atoms: _53  and  _55
REMARK                            x       y       z     vdW  Elec       q    Type
REMARK                         _______ _______ _______ _____ _____    ______ ____
ROOT
ATOM     10  C   UNL     1      51.510  13.956  66.801  0.00  0.00    +0.038 A 
ATOM     11  C   UNL     1      50.596  13.321  65.923  0.00  0.00    +0.047 A 
ATOM     12  C   UNL     1      50.119  11.971  66.180  0.00  0.00    +0.035 A 
ATOM     32  C   UNL     1      50.593  11.298  67.344  0.00  0.00    +0.024 A 
ATOM     33  C   UNL     1      51.523  11.929  68.247  0.00  0.00    +0.007 A 
ATOM     34  C   UNL     1      51.999  13.260  67.997  0.00  0.00    -0.029 A 
ATOM     35  C   UNL     1      53.001  13.884  68.996  0.00  0.00    +0.045 C 
ENDROOT
BRANCH  10   9
ATOM      4  C   UNL     1      54.430  17.051  64.579  0.00  0.00    +0.077 A 
ATOM      5  C   UNL     1      55.191  15.994  63.979  0.00  0.00    +0.048 A 
ATOM      6  C   UNL     1      54.803  14.667  64.273  0.00  0.00    +0.116 A 
ATOM      7  N   UNL     1      53.732  14.428  65.106  0.00  0.00    -0.223 NA
ATOM      8  C   UNL     1      53.020  15.471  65.670  0.00  0.00    +0.220 A 
ATOM      9  N   UNL     1      51.934  15.254  66.505  0.00  0.00    -0.283 N 
ATOM     36  H   UNL     1      51.440  16.050  66.907  0.00  0.00    +0.155 HD
ATOM     37  N   UNL     1      53.371  16.747  65.406  0.00  0.00    -0.214 NA
BRANCH   4   3
ATOM      1  C   UNL     1      54.528  20.647  63.044  0.00  0.00    +0.020 A 
ATOM      2  C   UNL     1      54.225  19.244  63.206  0.00  0.00    +0.013 A 
ATOM      3  C   UNL     1      54.715  18.505  64.362  0.00  0.00    +0.019 A 
ATOM     38  C   UNL     1      55.514  19.221  65.345  0.00  0.00    +0.120 A 
ATOM     39  N   UNL     1      55.791  20.572  65.162  0.00  0.00    -0.263 NA
ATOM     40  C   UNL     1      55.327  21.293  64.052  0.00  0.00    +0.111 A 
ENDBRANCH   4   3
ENDBRANCH  10   9
BRANCH  12  13
ATOM     13  N   UNL     1      49.197  11.271  65.320  0.00  0.00    -0.281 N 
ATOM     14  C   UNL     1      49.475  10.604  64.138  0.00  0.00    +0.248 C 
ATOM     30  O   UNL     1      50.530  10.689  63.528  0.00  0.00    -0.270 OA
ATOM     31  H   UNL     1      48.222  11.268  65.619  0.00  0.00    +0.155 HD
BRANCH  14  15
ATOM     15  C   UNL     1      48.423   9.726  63.541  0.00  0.00    +0.037 A 
ATOM     16  C   UNL     1      47.245   9.318  64.312  0.00  0.00    +0.013 A 
ATOM     17  C   UNL     1      46.254   8.457  63.718  0.00  0.00    +0.005 A 
ATOM     18  C   UNL     1      46.436   7.998  62.343  0.00  0.00    -0.033 A 
ATOM     28  C   UNL     1      47.611   8.422  61.599  0.00  0.00    +0.005 A 
ATOM     29  C   UNL     1      48.585   9.266  62.179  0.00  0.00    +0.013 A 
BRANCH  18  19
ATOM     19  C   UNL     1      45.440   7.061  61.635  0.00  0.00    +0.119 C 
BRANCH  19  20
ATOM     20  N   UNL     1      45.558   5.599  61.918  0.00  0.00    -0.302 NA
ATOM     21  C   UNL     1      44.954   5.225  63.274  0.00  0.00    +0.066 C 
ATOM     22  C   UNL     1      45.066   3.689  63.543  0.00  0.00    -0.064 C 
ATOM     23  N   UNL     1      46.535   3.267  63.470  0.00  0.00    +0.379 N 
ATOM     24  C   UNL     1      46.650   1.835  63.779  0.00  0.00    -0.096 C 
ATOM     25  H   UNL     1      47.088   3.829  64.258  0.00  0.00    -0.082 HD
ATOM     26  C   UNL     1      47.144   3.638  62.125  0.00  0.00    -0.064 C 
ATOM     27  C   UNL     1      47.001   5.161  61.854  0.00  0.00    +0.066 C 
ENDBRANCH  19  20
ENDBRANCH  18  19
ENDBRANCH  14  15
ENDBRANCH  12  13
TORSDOF 6
ENDMDL
MODEL 3
REMARK VINA RESULT:      -6.8     17.899     23.497
REMARK  Name = C:\Users\Docking\Desktop\test protocol\1iep_ligandH.pdb
REMARK  8 active torsions:
REMARK  status: ('A' for Active; 'I' for Inactive)
REMARK    1  A    between atoms: _5  and  _11
REMARK    2  A    between atoms: _19  and  _21
REMARK    3  A    between atoms: _22  and  _66
REMARK    4  A    between atoms: _27  and  _30
REMARK    5  A    between atoms: _32  and  _33
REMARK    6  A    between atoms: _38  and  _43
REMARK    7  A    between atoms: _43  and  _46
REMARK    8  A    between atoms: _53  and  _55
REMARK                            x       y       z     vdW  Elec       q    Type
REMARK                         _______ _______ _______ _____ _____    ______ ____
ROOT
ATOM     10  C   UNL     1      52.227   3.777  45.286  0.00  0.00    +0.038 A 
ATOM     11  C   UNL     1      51.956   5.167  45.218  0.00  0.00    +0.047 A 
ATOM     12  C   UNL     1      53.030   6.147  45.275  0.00  0.00    +0.035 A 
ATOM     32  C   UNL     1      54.369   5.675  45.398  0.00  0.00    +0.024 A 
ATOM     33  C   UNL     1      54.663   4.265  45.470  0.00  0.00    +0.007 A 
ATOM     34  C   UNL     1      53.607   3.294  45.416  0.00  0.00    -0.029 A 
ATOM     35  C   UNL     1      53.980   1.796  45.504  0.00  0.00    +0.045 C 
ENDROOT
BRANCH  10   9
ATOM      4  C   UNL     1      49.179   0.979  42.853  0.00  0.00    +0.077 A 
ATOM      5  C   UNL     1      49.747   1.356  41.591  0.00  0.00    +0.048 A 
ATOM      6  C   UNL     1      50.818   2.278  41.611  0.00  0.00    +0.116 A 
ATOM      7  N   UNL     1      51.278   2.778  42.810  0.00  0.00    -0.223 NA
ATOM      8  C   UNL     1      50.706   2.395  44.009  0.00  0.00    +0.220 A 
ATOM      9  N   UNL     1      51.158   2.880  45.227  0.00  0.00    -0.283 N 
ATOM     36  H   UNL     1      50.704   2.579  46.089  0.00  0.00    +0.155 HD
ATOM     37  N   UNL     1      49.681   1.518  44.016  0.00  0.00    -0.214 NA
BRANCH   4   3
ATOM      1  C   UNL     1      46.532  -1.474  44.363  0.00  0.00    +0.020 A 
ATOM      2  C   UNL     1      47.635  -0.544  44.280  0.00  0.00    +0.013 A 
ATOM      3  C   UNL     1      48.044   0.013  42.996  0.00  0.00    +0.019 A 
ATOM     38  C   UNL     1      47.309  -0.393  41.808  0.00  0.00    +0.120 A 
ATOM     39  N   UNL     1      46.252  -1.291  41.919  0.00  0.00    -0.263 NA
ATOM     40  C   UNL     1      45.851  -1.835  43.148  0.00  0.00    +0.111 A 
ENDBRANCH   4   3
ENDBRANCH  10   9
BRANCH  12  13
ATOM     13  N   UNL     1      52.815   7.571  45.219  0.00  0.00    -0.281 N 
ATOM     14  C   UNL     1      52.148   8.369  46.135  0.00  0.00    +0.248 C 
ATOM     30  O   UNL     1      51.446   7.943  47.040  0.00  0.00    -0.270 OA
ATOM     31  H   UNL     1      53.201   8.050  44.406  0.00  0.00    +0.155 HD
BRANCH  14  15
ATOM     15  C   UNL     1      52.266   9.854  46.020  0.00  0.00    +0.037 A 
ATOM     16  C   UNL     1      51.079  10.702  45.876  0.00  0.00    +0.013 A 
ATOM     17  C   UNL     1      51.222  12.130  45.749  0.00  0.00    +0.005 A 
ATOM     18  C   UNL     1      52.558  12.721  45.768  0.00  0.00    -0.033 A 
ATOM     28  C   UNL     1      53.718  11.857  45.918  0.00  0.00    +0.005 A 
ATOM     29  C   UNL     1      53.582  10.456  46.041  0.00  0.00    +0.013 A 
BRANCH  18  19
ATOM     19  C   UNL     1      52.806  14.234  45.619  0.00  0.00    +0.119 C 
BRANCH  19  20
ATOM     20  N   UNL     1      51.637  15.141  45.820  0.00  0.00    -0.302 NA
ATOM     21  C   UNL     1      51.765  16.431  45.005  0.00  0.00    +0.066 C 
ATOM     22  C   UNL     1      50.523  17.359  45.210  0.00  0.00    -0.064 C 
ATOM     23  N   UNL     1      50.365  17.673  46.699  0.00  0.00    +0.379 N 
ATOM     24  C   UNL     1      49.233  18.592  46.890  0.00  0.00    -0.096 C 
ATOM     25  H   UNL     1      51.289  18.200  47.034  0.00  0.00    -0.082 HD
ATOM     26  C   UNL     1      50.240  16.395  47.518  0.00  0.00    -0.064 C 
ATOM     27  C   UNL     1      51.465  15.467  47.283  0.00  0.00    +0.066 C 
ENDBRANCH  19  20
ENDBRANCH  18  19
ENDBRANCH  14  15
ENDBRANCH  12  13
TORSDOF 6
ENDMDL
MODEL 4
REMARK VINA RESULT:      -6.8      2.580      3.791
REMARK  Name = C:\Users\Docking\Desktop\test protocol\1iep_ligandH.pdb
REMARK  8 active torsions:
REMARK  status: ('A' for Active; 'I' for Inactive)
REMARK    1  A    between atoms: _5  and  _11
REMARK    2  A    between atoms: _19  and  _21
REMARK    3  A    between atoms: _22  and  _66
REMARK    4  A    between atoms: _27  and  _30
REMARK    5  A    between atoms: _32  and  _33
REMARK    6  A    between atoms: _38  and  _43
REMARK    7  A    between atoms: _43  and  _46
REMARK    8  A    between atoms: _53  and  _55
REMARK                            x       y       z     vdW  Elec       q    Type
REMARK                         _______ _______ _______ _____ _____    ______ ____
ROOT
ATOM     10  C   UNL     1      53.908  16.748  63.299  0.00  0.00    +0.038 A 
ATOM     11  C   UNL     1      53.030  15.660  63.539  0.00  0.00    +0.047 A 
ATOM     12  C   UNL     1      53.181  14.816  64.714  0.00  0.00    +0.035 A 
ATOM     32  C   UNL     1      54.235  15.111  65.627  0.00  0.00    +0.024 A 
ATOM     33  C   UNL     1      55.138  16.212  65.398  0.00  0.00    +0.007 A 
ATOM     34  C   UNL     1      54.995  17.046  64.239  0.00  0.00    -0.029 A 
ATOM     35  C   UNL     1      55.995  18.209  64.041  0.00  0.00    +0.045 C 
ENDROOT
BRANCH  10   9
ATOM      4  C   UNL     1      54.623  17.673  58.644  0.00  0.00    +0.077 A 
ATOM      5  C   UNL     1      55.470  16.526  58.485  0.00  0.00    +0.048 A 
ATOM      6  C   UNL     1      55.702  15.728  59.628  0.00  0.00    +0.116 A 
ATOM      7  N   UNL     1      55.125  16.061  60.834  0.00  0.00    -0.223 NA
ATOM      8  C   UNL     1      54.315  17.175  60.953  0.00  0.00    +0.220 A 
ATOM      9  N   UNL     1      53.717  17.525  62.154  0.00  0.00    -0.283 N 
ATOM     36  H   UNL     1      53.132  18.359  62.203  0.00  0.00    +0.155 HD
ATOM     37  N   UNL     1      54.079  17.955  59.877  0.00  0.00    -0.214 NA
BRANCH   4   3
ATOM      1  C   UNL     1      52.632  19.828  56.057  0.00  0.00    +0.020 A 
ATOM      2  C   UNL     1      52.909  18.914  57.141  0.00  0.00    +0.013 A 
ATOM      3  C   UNL     1      54.281  18.612  57.529  0.00  0.00    +0.019 A 
ATOM     38  C   UNL     1      55.359  19.259  56.796  0.00  0.00    +0.120 A 
ATOM     39  N   UNL     1      55.062  20.135  55.756  0.00  0.00    -0.263 NA
ATOM     40  C   UNL     1      53.746  20.431  55.372  0.00  0.00    +0.111 A 
ENDBRANCH   4   3
ENDBRANCH  10   9
BRANCH  12  13
ATOM     13  N   UNL     1      52.325  13.693  65.006  0.00  0.00    -0.281 N 
ATOM     14  C   UNL     1      51.419  13.560  66.046  0.00  0.00    +0.248 C 
ATOM     30  O   UNL     1      51.362  14.306  67.012  0.00  0.00    -0.270 OA
ATOM     31  H   UNL     1      52.395  12.900  64.369  0.00  0.00    +0.155 HD
BRANCH  14  15
ATOM     15  C   UNL     1      50.446  12.426  66.015  0.00  0.00    +0.037 A 
ATOM     16  C   UNL     1      50.391  11.502  64.880  0.00  0.00    +0.013 A 
ATOM     17  C   UNL     1      49.431  10.427  64.868  0.00  0.00    +0.005 A 
ATOM     18  C   UNL     1      48.518  10.270  65.997  0.00  0.00    -0.033 A 
ATOM     28  C   UNL     1      48.597  11.198  67.113  0.00  0.00    +0.005 A 
ATOM     29  C   UNL     1      49.536  12.253  67.128  0.00  0.00    +0.013 A 
BRANCH  18  19
ATOM     19  C   UNL     1      47.448   9.164  66.059  0.00  0.00    +0.119 C 
BRANCH  19  20
ATOM     20  N   UNL     1      47.185   8.395  64.806  0.00  0.00    -0.302 NA
ATOM     21  C   UNL     1      45.904   8.857  64.106  0.00  0.00    +0.066 C 
ATOM     22  C   UNL     1      45.657   8.058  62.786  0.00  0.00    -0.064 C 
ATOM     23  N   UNL     1      45.592   6.563  63.103  0.00  0.00    +0.379 N 
ATOM     24  C   UNL     1      45.302   5.813  61.872  0.00  0.00    -0.096 C 
ATOM     25  H   UNL     1      44.741   6.403  63.805  0.00  0.00    -0.082 HD
ATOM     26  C   UNL     1      46.861   6.095  63.801  0.00  0.00    -0.064 C 
ATOM     27  C   UNL     1      47.113   6.916  65.097  0.00  0.00    +0.066 C 
ENDBRANCH  19  20
ENDBRANCH  18  19
ENDBRANCH  14  15
ENDBRANCH  12  13
TORSDOF 6
ENDMDL
MODEL 5
REMARK VINA RESULT:      -6.7      5.104     13.910
REMARK  Name = C:\Users\Docking\Desktop\test protocol\1iep_ligandH.pdb
REMARK  8 active torsions:
REMARK  status: ('A' for Active; 'I' for Inactive)
REMARK    1  A    between atoms: _5  and  _11
REMARK    2  A    between atoms: _19  and  _21
REMARK    3  A    between atoms: _22  and  _66
REMARK    4  A    between atoms: _27  and  _30
REMARK    5  A    between atoms: _32  and  _33
REMARK    6  A    between atoms: _38  and  _43
REMARK    7  A    between atoms: _43  and  _46
REMARK    8  A    between atoms: _53  and  _55
REMARK                            x       y       z     vdW  Elec       q    Type
REMARK                         _______ _______ _______ _____ _____    ______ ____
ROOT
ATOM     10  C   UNL     1      47.087   7.805  63.205  0.00  0.00    +0.038 A 
ATOM     11  C   UNL     1      47.679   8.541  64.263  0.00  0.00    +0.047 A 
ATOM     12  C   UNL     1      48.631   9.608  63.996  0.00  0.00    +0.035 A 
ATOM     32  C   UNL     1      48.955   9.900  62.639  0.00  0.00    +0.024 A 
ATOM     33  C   UNL     1      48.364   9.161  61.552  0.00  0.00    +0.007 A 
ATOM     34  C   UNL     1      47.426   8.106  61.809  0.00  0.00    -0.029 A 
ATOM     35  C   UNL     1      46.828   7.343  60.604  0.00  0.00    +0.045 C 
ENDROOT
BRANCH  10   9
ATOM      4  C   UNL     1      46.007   3.209  64.075  0.00  0.00    +0.077 A 
ATOM      5  C   UNL     1      47.362   2.789  63.860  0.00  0.00    +0.048 A 
ATOM      6  C   UNL     1      48.305   3.786  63.521  0.00  0.00    +0.116 A 
ATOM      7  N   UNL     1      47.910   5.101  63.407  0.00  0.00    -0.223 NA
ATOM      8  C   UNL     1      46.595   5.472  63.619  0.00  0.00    +0.220 A 
ATOM      9  N   UNL     1      46.178   6.791  63.518  0.00  0.00    -0.283 N 
ATOM     36  H   UNL     1      45.198   7.023  63.675  0.00  0.00    +0.155 HD
ATOM     37  N   UNL     1      45.676   4.540  63.943  0.00  0.00    -0.214 NA
BRANCH   4   3
ATOM      1  C   UNL     1      43.229   1.317  66.075  0.00  0.00    +0.020 A 
ATOM      2  C   UNL     1      44.299   2.239  65.771  0.00  0.00    +0.013 A 
ATOM      3  C   UNL     1      44.897   2.275  64.442  0.00  0.00    +0.019 A 
ATOM     38  C   UNL     1      44.384   1.359  63.435  0.00  0.00    +0.120 A 
ATOM     39  N   UNL     1      43.353   0.481  63.756  0.00  0.00    -0.263 NA
ATOM     40  C   UNL     1      42.771   0.436  65.032  0.00  0.00    +0.111 A 
ENDBRANCH   4   3
ENDBRANCH  10   9
BRANCH  12  13
ATOM     13  N   UNL     1      49.270  10.384  65.030  0.00  0.00    -0.281 N 
ATOM     14  C   UNL     1      50.579  10.295  65.475  0.00  0.00    +0.248 C 
ATOM     30  O   UNL     1      51.342   9.382  65.198  0.00  0.00    -0.270 OA
ATOM     31  H   UNL     1      48.687  11.085  65.488  0.00  0.00    +0.155 HD
BRANCH  14  15
ATOM     15  C   UNL     1      51.111  11.367  66.370  0.00  0.00    +0.037 A 
ATOM     16  C   UNL     1      52.085  11.064  67.423  0.00  0.00    +0.013 A 
ATOM     17  C   UNL     1      52.569  12.114  68.283  0.00  0.00    +0.005 A 
ATOM     18  C   UNL     1      52.082  13.478  68.094  0.00  0.00    -0.033 A 
ATOM     28  C   UNL     1      51.120  13.751  67.039  0.00  0.00    +0.005 A 
ATOM     29  C   UNL     1      50.642  12.725  66.194  0.00  0.00    +0.013 A 
BRANCH  18  19
ATOM     19  C   UNL     1      52.528  14.657  68.979  0.00  0.00    +0.119 C 
BRANCH  19  20
ATOM     20  N   UNL     1      51.456  15.481  69.612  0.00  0.00    -0.302 NA
ATOM     21  C   UNL     1      52.010  16.767  70.232  0.00  0.00    +0.066 C 
ATOM     22  C   UNL     1      50.872  17.627  70.870  0.00  0.00    -0.064 C 
ATOM     23  N   UNL     1      50.134  16.795  71.920  0.00  0.00    +0.379 N 
ATOM     24  C   UNL     1      49.101  17.619  72.564  0.00  0.00    -0.096 C 
ATOM     25  H   UNL     1      50.874  16.507  72.704  0.00  0.00    -0.082 HD
ATOM     26  C   UNL     1      49.583  15.512  71.314  0.00  0.00    -0.064 C 
ATOM     27  C   UNL     1      50.718  14.679  70.656  0.00  0.00    +0.066 C 
ENDBRANCH  19  20
ENDBRANCH  18  19
ENDBRANCH  14  15
ENDBRANCH  12  13
TORSDOF 6
ENDMDL
