MODEL 1
REMARK VINA RESULT:      -8.6      0.000      0.000
REMARK  Name = C:\Users\Docking\Desktop\test protocol\1iep_ligandH.pdb
REMARK  8 active torsions:
REMARK  status: ('A' for Active; 'I' for Inactive)
REMARK    1  A    between atoms: _5  and  _11
REMARK    2  A    between atoms: _19  and  _21
REMARK    3  A    between atoms: _22  and  _66
REMARK    4  A    between atoms: _27  and  _30
REMARK    5  A    between atoms: _32  and  _33
REMARK    6  A    between atoms: _38  and  _43
REMARK    7  A    between atoms: _43  and  _46
REMARK    8  A    between atoms: _53  and  _55
REMARK                            x       y       z     vdW  Elec       q    Type
REMARK                         _______ _______ _______ _____ _____    ______ ____
ROOT
ATOM     10  C   UNL     1      20.040  25.582   3.819  0.00  0.00    +0.038 A 
ATOM     11  C   UNL     1      18.727  25.443   4.336  0.00  0.00    +0.047 A 
ATOM     12  C   UNL     1      18.026  24.170   4.279  0.00  0.00    +0.035 A 
ATOM     32  C   UNL     1      18.694  23.057   3.690  0.00  0.00    +0.024 A 
ATOM     33  C   UNL     1      20.028  23.181   3.158  0.00  0.00    +0.007 A 
ATOM     34  C   UNL     1      20.724  24.435   3.209  0.00  0.00    -0.029 A 
ATOM     35  C   UNL     1      22.150  24.511   2.618  0.00  0.00    +0.045 C 
ENDROOT
BRANCH  10   9
ATOM      4  C   UNL     1      21.348  29.794   1.924  0.00  0.00    +0.077 A 
ATOM      5  C   UNL     1      20.758  29.474   0.657  0.00  0.00    +0.048 A 
ATOM      6  C   UNL     1      20.134  28.213   0.531  0.00  0.00    +0.116 A 
ATOM      7  N   UNL     1      20.107  27.344   1.601  0.00  0.00    -0.223 NA
ATOM      8  C   UNL     1      20.687  27.683   2.809  0.00  0.00    +0.220 A 
ATOM      9  N   UNL     1      20.666  26.828   3.900  0.00  0.00    -0.283 N 
ATOM     36  H   UNL     1      21.111  27.112   4.772  0.00  0.00    +0.155 HD
ATOM     37  N   UNL     1      21.291  28.881   2.954  0.00  0.00    -0.214 NA
BRANCH   4   3
ATOM      1  C   UNL     1      22.543  33.076   3.684  0.00  0.00    +0.020 A 
ATOM      2  C   UNL     1      21.849  31.830   3.454  0.00  0.00    +0.013 A 
ATOM      3  C   UNL     1      22.041  31.089   2.214  0.00  0.00    +0.019 A 
ATOM     38  C   UNL     1      22.949  31.640   1.220  0.00  0.00    +0.120 A 
ATOM     39  N   UNL     1      23.603  32.843   1.468  0.00  0.00    -0.263 NA
ATOM     40  C   UNL     1      23.425  33.566   2.658  0.00  0.00    +0.111 A 
ENDBRANCH   4   3
ENDBRANCH  10   9
BRANCH  12  13
ATOM     13  N   UNL     1      16.689  23.971   4.780  0.00  0.00    -0.281 N 
ATOM     14  C   UNL     1      16.158  22.831   5.362  0.00  0.00    +0.248 C 
ATOM     30  O   UNL     1      16.694  21.733   5.345  0.00  0.00    -0.270 OA
ATOM     31  H   UNL     1      16.057  24.767   4.697  0.00  0.00    +0.155 HD
BRANCH  14  15
ATOM     15  C   UNL     1      14.834  22.920   6.049  0.00  0.00    +0.037 A 
ATOM     16  C   UNL     1      13.636  23.371   5.336  0.00  0.00    +0.013 A 
ATOM     17  C   UNL     1      12.375  23.464   6.027  0.00  0.00    +0.005 A 
ATOM     18  C   UNL     1      12.305  23.105   7.441  0.00  0.00    -0.033 A 
ATOM     28  C   UNL     1      13.508  22.656   8.123  0.00  0.00    +0.005 A 
ATOM     29  C   UNL     1      14.746  22.564   7.449  0.00  0.00    +0.013 A 
BRANCH  18  19
ATOM     19  C   UNL     1      11.006  23.194   8.264  0.00  0.00    +0.119 C 
BRANCH  19  20
ATOM     20  N   UNL     1      10.223  24.463   8.171  0.00  0.00    -0.302 NA
ATOM     21  C   UNL     1      10.957  25.639   8.820  0.00  0.00    +0.066 C 
ATOM     22  C   UNL     1      10.135  26.963   8.693  0.00  0.00    -0.064 C 
ATOM     23  N   UNL     1       8.757  26.767   9.328  0.00  0.00    +0.379 N 
ATOM     24  C   UNL     1       8.003  28.027   9.263  0.00  0.00    -0.096 C 
ATOM     25  H   UNL     1       8.913  26.521  10.405  0.00  0.00    -0.082 HD
ATOM     26  C   UNL     1       8.022  25.597   8.691  0.00  0.00    -0.064 C 
ATOM     27  C   UNL     1       8.861  24.293   8.796  0.00  0.00    +0.066 C 
ENDBRANCH  19  20
ENDBRANCH  18  19
ENDBRANCH  14  15
ENDBRANCH  12  13
TORSDOF 6
ENDMDL
MODEL 2
REMARK VINA RESULT:      -8.2      2.392     12.088
REMARK  Name = C:\Users\Docking\Desktop\test protocol\1iep_ligandH.pdb
REMARK  8 active torsions:
REMARK  status: ('A' for Active; 'I' for Inactive)
REMARK    1  A    between atoms: _5  and  _11
REMARK    2  A    between atoms: _19  and  _21
REMARK    3  A    between atoms: _22  and  _66
REMARK    4  A    between atoms: _27  and  _30
REMARK    5  A    between atoms: _32  and  _33
REMARK    6  A    between atoms: _38  and  _43
REMARK    7  A    between atoms: _43  and  _46
REMARK    8  A    between atoms: _53  and  _55
REMARK                            x       y       z     vdW  Elec       q    Type
REMARK                         _______ _______ _______ _____ _____    ______ ____
ROOT
ATOM     10  C   UNL     1      12.100  22.973   8.251  0.00  0.00    +0.038 A 
ATOM     11  C   UNL     1      13.291  23.318   7.563  0.00  0.00    +0.047 A 
ATOM     12  C   UNL     1      14.587  22.829   8.009  0.00  0.00    +0.035 A 
ATOM     32  C   UNL     1      14.631  21.988   9.159  0.00  0.00    +0.024 A 
ATOM     33  C   UNL     1      13.430  21.627   9.870  0.00  0.00    +0.007 A 
ATOM     34  C   UNL     1      12.150  22.109   9.436  0.00  0.00    -0.029 A 
ATOM     35  C   UNL     1      10.896  21.696  10.242  0.00  0.00    +0.045 C 
ENDROOT
BRANCH  10   9
ATOM      4  C   UNL     1       8.776  26.421   7.929  0.00  0.00    +0.077 A 
ATOM      5  C   UNL     1       9.513  27.294   8.797  0.00  0.00    +0.048 A 
ATOM      6  C   UNL     1      10.739  26.815   9.310  0.00  0.00    +0.116 A 
ATOM      7  N   UNL     1      11.186  25.555   8.974  0.00  0.00    -0.223 NA
ATOM      8  C   UNL     1      10.450  24.738   8.136  0.00  0.00    +0.220 A 
ATOM      9  N   UNL     1      10.883  23.471   7.779  0.00  0.00    -0.283 N 
ATOM     36  H   UNL     1      10.308  22.896   7.164  0.00  0.00    +0.155 HD
ATOM     37  N   UNL     1       9.275  25.171   7.634  0.00  0.00    -0.214 NA
BRANCH   4   3
ATOM      1  C   UNL     1       5.140  27.759   7.393  0.00  0.00    +0.020 A 
ATOM      2  C   UNL     1       6.387  27.429   8.044  0.00  0.00    +0.013 A 
ATOM      3  C   UNL     1       7.465  26.784   7.305  0.00  0.00    +0.019 A 
ATOM     38  C   UNL     1       7.248  26.487   5.897  0.00  0.00    +0.120 A 
ATOM     39  N   UNL     1       6.036  26.815   5.297  0.00  0.00    -0.263 NA
ATOM     40  C   UNL     1       4.991  27.434   5.999  0.00  0.00    +0.111 A 
ENDBRANCH   4   3
ENDBRANCH  10   9
BRANCH  12  13
ATOM     13  N   UNL     1      15.831  23.153   7.356  0.00  0.00    -0.281 N 
ATOM     14  C   UNL     1      16.628  22.325   6.583  0.00  0.00    +0.248 C 
ATOM     30  O   UNL     1      16.499  21.111   6.512  0.00  0.00    -0.270 OA
ATOM     31  H   UNL     1      16.164  24.109   7.478  0.00  0.00    +0.155 HD
BRANCH  14  15
ATOM     15  C   UNL     1      17.737  22.929   5.785  0.00  0.00    +0.037 A 
ATOM     16  C   UNL     1      19.094  22.377   5.830  0.00  0.00    +0.013 A 
ATOM     17  C   UNL     1      20.149  22.990   5.063  0.00  0.00    +0.005 A 
ATOM     18  C   UNL     1      19.851  24.162   4.243  0.00  0.00    -0.033 A 
ATOM     28  C   UNL     1      18.496  24.686   4.213  0.00  0.00    +0.005 A 
ATOM     29  C   UNL     1      17.459  24.088   4.964  0.00  0.00    +0.013 A 
BRANCH  18  19
ATOM     19  C   UNL     1      20.920  24.893   3.409  0.00  0.00    +0.119 C 
BRANCH  19  20
ATOM     20  N   UNL     1      20.446  25.938   2.453  0.00  0.00    -0.302 NA
ATOM     21  C   UNL     1      20.874  25.636   1.014  0.00  0.00    +0.066 C 
ATOM     22  C   UNL     1      20.350  26.727   0.024  0.00  0.00    -0.064 C 
ATOM     23  N   UNL     1      20.861  28.100   0.465  0.00  0.00    +0.379 N 
ATOM     24  C   UNL     1      20.418  29.120  -0.496  0.00  0.00    -0.096 C 
ATOM     25  H   UNL     1      21.975  28.070   0.438  0.00  0.00    -0.082 HD
ATOM     26  C   UNL     1      20.442  28.406   1.896  0.00  0.00    -0.064 C 
ATOM     27  C   UNL     1      20.942  27.301   2.867  0.00  0.00    +0.066 C 
ENDBRANCH  19  20
ENDBRANCH  18  19
ENDBRANCH  14  15
ENDBRANCH  12  13
TORSDOF 6
ENDMDL
MODEL 3
REMARK VINA RESULT:      -8.1      9.364     13.501
REMARK  Name = C:\Users\Docking\Desktop\test protocol\1iep_ligandH.pdb
REMARK  8 active torsions:
REMARK  status: ('A' for Active; 'I' for Inactive)
REMARK    1  A    between atoms: _5  and  _11
REMARK    2  A    between atoms: _19  and  _21
REMARK    3  A    between atoms: _22  and  _66
REMARK    4  A    between atoms: _27  and  _30
REMARK    5  A    between atoms: _32  and  _33
REMARK    6  A    between atoms: _38  and  _43
REMARK    7  A    between atoms: _43  and  _46
REMARK    8  A    between atoms: _53  and  _55
REMARK                            x       y       z     vdW  Elec       q    Type
REMARK                         _______ _______ _______ _____ _____    ______ ____
ROOT
ATOM     10  C   UNL     1       9.430  25.749   8.505  0.00  0.00    +0.038 A 
ATOM     11  C   UNL     1       8.090  25.634   8.057  0.00  0.00    +0.047 A 
ATOM     12  C   UNL     1       7.160  26.747   8.173  0.00  0.00    +0.035 A 
ATOM     32  C   UNL     1       7.630  27.964   8.747  0.00  0.00    +0.024 A 
ATOM     33  C   UNL     1       8.989  28.098   9.208  0.00  0.00    +0.007 A 
ATOM     34  C   UNL     1       9.911  27.003   9.099  0.00  0.00    -0.029 A 
ATOM     35  C   UNL     1      11.355  27.201   9.616  0.00  0.00    +0.045 C 
ENDROOT
BRANCH  10   9
ATOM      4  C   UNL     1      11.713  21.920  10.284  0.00  0.00    +0.077 A 
ATOM      5  C   UNL     1      11.189  22.146  11.601  0.00  0.00    +0.048 A 
ATOM      6  C   UNL     1      10.342  23.262  11.779  0.00  0.00    +0.116 A 
ATOM      7  N   UNL     1      10.047  24.085  10.714  0.00  0.00    -0.223 NA
ATOM      8  C   UNL     1      10.570  23.840   9.457  0.00  0.00    +0.220 A 
ATOM      9  N   UNL     1      10.280  24.649   8.370  0.00  0.00    -0.283 N 
ATOM     36  H   UNL     1      10.692  24.439   7.461  0.00  0.00    +0.155 HD
ATOM     37  N   UNL     1      11.383  22.781   9.261  0.00  0.00    -0.214 NA
BRANCH   4   3
ATOM      1  C   UNL     1      14.845  19.832   9.221  0.00  0.00    +0.020 A 
ATOM      2  C   UNL     1      14.012  20.966   9.547  0.00  0.00    +0.013 A 
ATOM      3  C   UNL     1      12.620  20.781   9.936  0.00  0.00    +0.019 A 
ATOM     38  C   UNL     1      12.097  19.424   9.986  0.00  0.00    +0.120 A 
ATOM     39  N   UNL     1      12.923  18.351   9.665  0.00  0.00    -0.263 NA
ATOM     40  C   UNL     1      14.264  18.517   9.288  0.00  0.00    +0.111 A 
ENDBRANCH   4   3
ENDBRANCH  10   9
BRANCH  12  13
ATOM     13  N   UNL     1       5.785  26.686   7.743  0.00  0.00    -0.281 N 
ATOM     14  C   UNL     1       5.299  26.623   6.447  0.00  0.00    +0.248 C 
ATOM     30  O   UNL     1       5.972  26.826   5.447  0.00  0.00    -0.270 OA
ATOM     31  H   UNL     1       5.084  26.690   8.484  0.00  0.00    +0.155 HD
BRANCH  14  15
ATOM     15  C   UNL     1       3.855  26.303   6.231  0.00  0.00    +0.037 A 
ATOM     16  C   UNL     1       3.432  25.370   5.184  0.00  0.00    +0.013 A 
ATOM     17  C   UNL     1       2.032  25.092   4.986  0.00  0.00    +0.005 A 
ATOM     18  C   UNL     1       1.044  25.747   5.840  0.00  0.00    -0.033 A 
ATOM     28  C   UNL     1       1.492  26.664   6.875  0.00  0.00    +0.005 A 
ATOM     29  C   UNL     1       2.863  26.940   7.071  0.00  0.00    +0.013 A 
BRANCH  18  19
ATOM     19  C   UNL     1      -0.473  25.526   5.686  0.00  0.00    +0.119 C 
BRANCH  19  20
ATOM     20  N   UNL     1      -1.201  24.949   6.855  0.00  0.00    -0.302 NA
ATOM     21  C   UNL     1      -2.143  23.814   6.442  0.00  0.00    +0.066 C 
ATOM     22  C   UNL     1      -2.881  23.208   7.680  0.00  0.00    -0.064 C 
ATOM     23  N   UNL     1      -3.650  24.314   8.404  0.00  0.00    +0.379 N 
ATOM     24  C   UNL     1      -4.391  23.736   9.535  0.00  0.00    -0.096 C 
ATOM     25  H   UNL     1      -4.396  24.731   7.688  0.00  0.00    -0.082 HD
ATOM     26  C   UNL     1      -2.722  25.447   8.816  0.00  0.00    -0.064 C 
ATOM     27  C   UNL     1      -1.972  26.023   7.582  0.00  0.00    +0.066 C 
ENDBRANCH  19  20
ENDBRANCH  18  19
ENDBRANCH  14  15
ENDBRANCH  12  13
TORSDOF 6
ENDMDL
MODEL 4
REMARK VINA RESULT:      -8.0      4.951     12.707
REMARK  Name = C:\Users\Docking\Desktop\test protocol\1iep_ligandH.pdb
REMARK  8 active torsions:
REMARK  status: ('A' for Active; 'I' for Inactive)
REMARK    1  A    between atoms: _5  and  _11
REMARK    2  A    between atoms: _19  and  _21
REMARK    3  A    between atoms: _22  and  _66
REMARK    4  A    between atoms: _27  and  _30
REMARK    5  A    between atoms: _32  and  _33
REMARK    6  A    between atoms: _38  and  _43
REMARK    7  A    between atoms: _43  and  _46
REMARK    8  A    between atoms: _53  and  _55
REMARK                            x       y       z     vdW  Elec       q    Type
REMARK                         _______ _______ _______ _____ _____    ______ ____
ROOT
ATOM     10  C   UNL     1      14.355  22.290   7.035  0.00  0.00    +0.038 A 
ATOM     11  C   UNL     1      15.644  22.717   6.627  0.00  0.00    +0.047 A 
ATOM     12  C   UNL     1      16.540  21.825   5.907  0.00  0.00    +0.035 A 
ATOM     32  C   UNL     1      16.088  20.504   5.617  0.00  0.00    +0.024 A 
ATOM     33  C   UNL     1      14.781  20.053   6.025  0.00  0.00    +0.007 A 
ATOM     34  C   UNL     1      13.894  20.928   6.738  0.00  0.00    -0.029 A 
ATOM     35  C   UNL     1      12.507  20.389   7.156  0.00  0.00    +0.045 C 
ENDROOT
BRANCH  10   9
ATOM      4  C   UNL     1      10.787  25.496   7.196  0.00  0.00    +0.077 A 
ATOM      5  C   UNL     1      10.551  25.392   5.785  0.00  0.00    +0.048 A 
ATOM      6  C   UNL     1      11.374  24.508   5.053  0.00  0.00    +0.116 A 
ATOM      7  N   UNL     1      12.357  23.786   5.694  0.00  0.00    -0.223 NA
ATOM      8  C   UNL     1      12.559  23.910   7.056  0.00  0.00    +0.220 A 
ATOM      9  N   UNL     1      13.536  23.188   7.723  0.00  0.00    -0.283 N 
ATOM     36  H   UNL     1      13.659  23.314   8.728  0.00  0.00    +0.155 HD
ATOM     37  N   UNL     1      11.787  24.749   7.778  0.00  0.00    -0.214 NA
BRANCH   4   3
ATOM      1  C   UNL     1       9.709  27.729  10.221  0.00  0.00    +0.020 A 
ATOM      2  C   UNL     1      10.512  26.873   9.380  0.00  0.00    +0.013 A 
ATOM      3  C   UNL     1       9.997  26.384   8.107  0.00  0.00    +0.019 A 
ATOM     38  C   UNL     1       8.656  26.786   7.711  0.00  0.00    +0.120 A 
ATOM     39  N   UNL     1       7.905  27.610   8.543  0.00  0.00    -0.263 NA
ATOM     40  C   UNL     1       8.389  28.085   9.771  0.00  0.00    +0.111 A 
ENDBRANCH   4   3
ENDBRANCH  10   9
BRANCH  12  13
ATOM     13  N   UNL     1      17.863  22.200   5.474  0.00  0.00    -0.281 N 
ATOM     14  C   UNL     1      19.068  21.964   6.117  0.00  0.00    +0.248 C 
ATOM     30  O   UNL     1      19.171  21.580   7.272  0.00  0.00    -0.270 OA
ATOM     31  H   UNL     1      17.918  22.700   4.587  0.00  0.00    +0.155 HD
BRANCH  14  15
ATOM     15  C   UNL     1      20.342  22.204   5.372  0.00  0.00    +0.037 A 
ATOM     16  C   UNL     1      20.903  23.551   5.241  0.00  0.00    +0.013 A 
ATOM     17  C   UNL     1      22.124  23.756   4.503  0.00  0.00    +0.005 A 
ATOM     18  C   UNL     1      22.793  22.610   3.892  0.00  0.00    -0.033 A 
ATOM     28  C   UNL     1      22.217  21.284   4.043  0.00  0.00    +0.005 A 
ATOM     29  C   UNL     1      21.020  21.079   4.765  0.00  0.00    +0.013 A 
BRANCH  18  19
ATOM     19  C   UNL     1      24.089  22.739   3.070  0.00  0.00    +0.119 C 
BRANCH  19  20
ATOM     20  N   UNL     1      24.848  21.484   2.787  0.00  0.00    -0.302 NA
ATOM     21  C   UNL     1      25.896  21.192   3.864  0.00  0.00    +0.066 C 
ATOM     22  C   UNL     1      26.665  19.864   3.565  0.00  0.00    -0.064 C 
ATOM     23  N   UNL     1      27.317  19.955   2.184  0.00  0.00    +0.379 N 
ATOM     24  C   UNL     1      28.088  18.731   1.924  0.00  0.00    -0.096 C 
ATOM     25  H   UNL     1      28.034  20.809   2.205  0.00  0.00    -0.082 HD
ATOM     26  C   UNL     1      26.281  20.248   1.108  0.00  0.00    -0.064 C 
ATOM     27  C   UNL     1      25.503  21.554   1.430  0.00  0.00    +0.066 C 
ENDBRANCH  19  20
ENDBRANCH  18  19
ENDBRANCH  14  15
ENDBRANCH  12  13
TORSDOF 6
ENDMDL
MODEL 5
REMARK VINA RESULT:      -7.9      9.267     13.214
REMARK  Name = C:\Users\Docking\Desktop\test protocol\1iep_ligandH.pdb
REMARK  8 active torsions:
REMARK  status: ('A' for Active; 'I' for Inactive)
REMARK    1  A    between atoms: _5  and  _11
REMARK    2  A    between atoms: _19  and  _21
REMARK    3  A    between atoms: _22  and  _66
REMARK    4  A    between atoms: _27  and  _30
REMARK    5  A    between atoms: _32  and  _33
REMARK    6  A    between atoms: _38  and  _43
REMARK    7  A    between atoms: _43  and  _46
REMARK    8  A    between atoms: _53  and  _55
REMARK                            x       y       z     vdW  Elec       q    Type
REMARK                         _______ _______ _______ _____ _____    ______ ____
ROOT
ATOM     10  C   UNL     1       9.682  25.849   8.604  0.00  0.00    +0.038 A 
ATOM     11  C   UNL     1       8.422  25.566   8.018  0.00  0.00    +0.047 A 
ATOM     12  C   UNL     1       7.321  26.513   8.107  0.00  0.00    +0.035 A 
ATOM     32  C   UNL     1       7.540  27.741   8.797  0.00  0.00    +0.024 A 
ATOM     33  C   UNL     1       8.815  28.044   9.400  0.00  0.00    +0.007 A 
ATOM     34  C   UNL     1       9.903  27.112   9.318  0.00  0.00    -0.029 A 
ATOM     35  C   UNL     1      11.245  27.487   9.988  0.00  0.00    +0.045 C 
ENDROOT
BRANCH  10   9
ATOM      4  C   UNL     1      12.132  22.048  10.212  0.00  0.00    +0.077 A 
ATOM      5  C   UNL     1      11.326  21.954  11.394  0.00  0.00    +0.048 A 
ATOM      6  C   UNL     1      10.296  22.907  11.555  0.00  0.00    +0.116 A 
ATOM      7  N   UNL     1      10.095  23.878  10.597  0.00  0.00    -0.223 NA
ATOM      8  C   UNL     1      10.892  23.941   9.469  0.00  0.00    +0.220 A 
ATOM      9  N   UNL     1      10.703  24.904   8.489  0.00  0.00    -0.283 N 
ATOM     36  H   UNL     1      11.317  24.921   7.675  0.00  0.00    +0.155 HD
ATOM     37  N   UNL     1      11.884  23.043   9.293  0.00  0.00    -0.214 NA
BRANCH   4   3
ATOM      1  C   UNL     1      15.699  20.594   9.527  0.00  0.00    +0.020 A 
ATOM      2  C   UNL     1      14.649  21.539   9.833  0.00  0.00    +0.013 A 
ATOM      3  C   UNL     1      13.258  21.111   9.898  0.00  0.00    +0.019 A 
ATOM     38  C   UNL     1      12.959  19.710   9.646  0.00  0.00    +0.120 A 
ATOM     39  N   UNL     1      13.990  18.823   9.352  0.00  0.00    -0.263 NA
ATOM     40  C   UNL     1      15.333  19.223   9.285  0.00  0.00    +0.111 A 
ENDBRANCH   4   3
ENDBRANCH  10   9
BRANCH  12  13
ATOM     13  N   UNL     1       6.017  26.278   7.538  0.00  0.00    -0.281 N 
ATOM     14  C   UNL     1       5.215  27.171   6.847  0.00  0.00    +0.248 C 
ATOM     30  O   UNL     1       5.408  28.377   6.797  0.00  0.00    -0.270 OA
ATOM     31  H   UNL     1       5.639  25.338   7.661  0.00  0.00    +0.155 HD
BRANCH  14  15
ATOM     15  C   UNL     1       4.019  26.652   6.117  0.00  0.00    +0.037 A 
ATOM     16  C   UNL     1       2.755  26.398   6.814  0.00  0.00    +0.013 A 
ATOM     17  C   UNL     1       1.621  25.881   6.089  0.00  0.00    +0.005 A 
ATOM     18  C   UNL     1       1.746  25.616   4.658  0.00  0.00    -0.033 A 
ATOM     28  C   UNL     1       3.010  25.881   3.991  0.00  0.00    +0.005 A 
ATOM     29  C   UNL     1       4.124  26.387   4.698  0.00  0.00    +0.013 A 
BRANCH  18  19
ATOM     19  C   UNL     1       0.595  25.044   3.810  0.00  0.00    +0.119 C 
BRANCH  19  20
ATOM     20  N   UNL     1       0.360  23.571   3.880  0.00  0.00    -0.302 NA
ATOM     21  C   UNL     1       1.194  22.807   2.847  0.00  0.00    +0.066 C 
ATOM     22  C   UNL     1       0.953  21.265   2.949  0.00  0.00    -0.064 C 
ATOM     23  N   UNL     1      -0.537  20.971   2.767  0.00  0.00    +0.379 N 
ATOM     24  C   UNL     1      -0.758  19.518   2.804  0.00  0.00    -0.096 C 
ATOM     25  H   UNL     1      -0.831  21.332   1.754  0.00  0.00    -0.082 HD
ATOM     26  C   UNL     1      -1.373  21.729   3.788  0.00  0.00    -0.064 C 
ATOM     27  C   UNL     1      -1.105  23.257   3.698  0.00  0.00    +0.066 C 
ENDBRANCH  19  20
ENDBRANCH  18  19
ENDBRANCH  14  15
ENDBRANCH  12  13
TORSDOF 6
ENDMDL
