MODEL 1
REMARK VINA RESULT:      -8.4      0.000      0.000
REMARK  Name = C:\Users\Docking\Desktop\test protocol\1iep_ligandH.pdb
REMARK  8 active torsions:
REMARK  status: ('A' for Active; 'I' for Inactive)
REMARK    1  A    between atoms: _5  and  _11
REMARK    2  A    between atoms: _19  and  _21
REMARK    3  A    between atoms: _22  and  _66
REMARK    4  A    between atoms: _27  and  _30
REMARK    5  A    between atoms: _32  and  _33
REMARK    6  A    between atoms: _38  and  _43
REMARK    7  A    between atoms: _43  and  _46
REMARK    8  A    between atoms: _53  and  _55
REMARK                            x       y       z     vdW  Elec       q    Type
REMARK                         _______ _______ _______ _____ _____    ______ ____
ROOT
ATOM     10  C   UNL     1      20.200  25.545   4.443  0.00  0.00    +0.038 A 
ATOM     11  C   UNL     1      18.864  25.390   4.891  0.00  0.00    +0.047 A 
ATOM     12  C   UNL     1      18.243  24.076   4.964  0.00  0.00    +0.035 A 
ATOM     32  C   UNL     1      19.013  22.942   4.575  0.00  0.00    +0.024 A 
ATOM     33  C   UNL     1      20.373  23.082   4.116  0.00  0.00    +0.007 A 
ATOM     34  C   UNL     1      20.990  24.375   4.039  0.00  0.00    -0.029 A 
ATOM     35  C   UNL     1      22.448  24.466   3.533  0.00  0.00    +0.045 C 
ENDROOT
BRANCH  10   9
ATOM      4  C   UNL     1      21.321  29.579   2.095  0.00  0.00    +0.077 A 
ATOM      5  C   UNL     1      20.797  29.075   0.859  0.00  0.00    +0.048 A 
ATOM      6  C   UNL     1      20.255  27.770   0.867  0.00  0.00    +0.116 A 
ATOM      7  N   UNL     1      20.242  27.034   2.032  0.00  0.00    -0.223 NA
ATOM      8  C   UNL     1      20.757  27.549   3.207  0.00  0.00    +0.220 A 
ATOM      9  N   UNL     1      20.747  26.829   4.392  0.00  0.00    -0.283 N 
ATOM     36  H   UNL     1      21.143  27.242   5.236  0.00  0.00    +0.155 HD
ATOM     37  N   UNL     1      21.281  28.792   3.225  0.00  0.00    -0.214 NA
BRANCH   4   3
ATOM      1  C   UNL     1      23.465  32.799   1.513  0.00  0.00    +0.020 A 
ATOM      2  C   UNL     1      22.914  31.477   1.321  0.00  0.00    +0.013 A 
ATOM      3  C   UNL     1      21.924  30.941   2.247  0.00  0.00    +0.019 A 
ATOM     38  C   UNL     1      21.509  31.775   3.365  0.00  0.00    +0.120 A 
ATOM     39  N   UNL     1      22.058  33.044   3.525  0.00  0.00    -0.263 NA
ATOM     40  C   UNL     1      23.012  33.569   2.642  0.00  0.00    +0.111 A 
ENDBRANCH   4   3
ENDBRANCH  10   9
BRANCH  12  13
ATOM     13  N   UNL     1      16.887  23.858   5.404  0.00  0.00    -0.281 N 
ATOM     14  C   UNL     1      16.452  23.093   6.474  0.00  0.00    +0.248 C 
ATOM     30  O   UNL     1      17.152  22.303   7.089  0.00  0.00    -0.270 OA
ATOM     31  H   UNL     1      16.160  24.324   4.861  0.00  0.00    +0.155 HD
BRANCH  14  15
ATOM     15  C   UNL     1      15.028  23.211   6.914  0.00  0.00    +0.037 A 
ATOM     16  C   UNL     1      14.008  23.793   6.038  0.00  0.00    +0.013 A 
ATOM     17  C   UNL     1      12.645  23.910   6.494  0.00  0.00    +0.005 A 
ATOM     18  C   UNL     1      12.295  23.443   7.833  0.00  0.00    -0.033 A 
ATOM     28  C   UNL     1      13.326  22.865   8.679  0.00  0.00    +0.005 A 
ATOM     29  C   UNL     1      14.663  22.749   8.236  0.00  0.00    +0.013 A 
BRANCH  18  19
ATOM     19  C   UNL     1      10.871  23.549   8.410  0.00  0.00    +0.119 C 
BRANCH  19  20
ATOM     20  N   UNL     1      10.196  24.878   8.327  0.00  0.00    -0.302 NA
ATOM     21  C   UNL     1      10.925  25.944   9.150  0.00  0.00    +0.066 C 
ATOM     22  C   UNL     1      10.219  27.334   9.034  0.00  0.00    -0.064 C 
ATOM     23  N   UNL     1       8.763  27.203   9.485  0.00  0.00    +0.379 N 
ATOM     24  C   UNL     1       8.112  28.520   9.432  0.00  0.00    -0.096 C 
ATOM     25  H   UNL     1       8.768  26.870  10.549  0.00  0.00    -0.082 HD
ATOM     26  C   UNL     1       8.032  26.143   8.673  0.00  0.00    -0.064 C 
ATOM     27  C   UNL     1       8.758  24.773   8.772  0.00  0.00    +0.066 C 
ENDBRANCH  19  20
ENDBRANCH  18  19
ENDBRANCH  14  15
ENDBRANCH  12  13
TORSDOF 6
ENDMDL
MODEL 2
REMARK VINA RESULT:      -8.2      1.905     12.091
REMARK  Name = C:\Users\Docking\Desktop\test protocol\1iep_ligandH.pdb
REMARK  8 active torsions:
REMARK  status: ('A' for Active; 'I' for Inactive)
REMARK    1  A    between atoms: _5  and  _11
REMARK    2  A    between atoms: _19  and  _21
REMARK    3  A    between atoms: _22  and  _66
REMARK    4  A    between atoms: _27  and  _30
REMARK    5  A    between atoms: _32  and  _33
REMARK    6  A    between atoms: _38  and  _43
REMARK    7  A    between atoms: _43  and  _46
REMARK    8  A    between atoms: _53  and  _55
REMARK                            x       y       z     vdW  Elec       q    Type
REMARK                         _______ _______ _______ _____ _____    ______ ____
ROOT
ATOM     10  C   UNL     1      11.544  23.480   8.846  0.00  0.00    +0.038 A 
ATOM     11  C   UNL     1      12.660  23.678   7.992  0.00  0.00    +0.047 A 
ATOM     12  C   UNL     1      13.954  23.089   8.297  0.00  0.00    +0.035 A 
ATOM     32  C   UNL     1      14.077  22.301   9.479  0.00  0.00    +0.024 A 
ATOM     33  C   UNL     1      12.954  22.091  10.358  0.00  0.00    +0.007 A 
ATOM     34  C   UNL     1      11.675  22.672  10.064  0.00  0.00    -0.029 A 
ATOM     35  C   UNL     1      10.507  22.418  11.046  0.00  0.00    +0.045 C 
ENDROOT
BRANCH  10   9
ATOM      4  C   UNL     1       8.531  27.214   8.738  0.00  0.00    +0.077 A 
ATOM      5  C   UNL     1       9.454  28.055   9.444  0.00  0.00    +0.048 A 
ATOM      6  C   UNL     1      10.690  27.486   9.824  0.00  0.00    +0.116 A 
ATOM      7  N   UNL     1      10.972  26.173   9.514  0.00  0.00    -0.223 NA
ATOM      8  C   UNL     1      10.059  25.389   8.833  0.00  0.00    +0.220 A 
ATOM      9  N   UNL     1      10.325  24.069   8.505  0.00  0.00    -0.283 N 
ATOM     36  H   UNL     1       9.622  23.522   8.008  0.00  0.00    +0.155 HD
ATOM     37  N   UNL     1       8.871  25.909   8.461  0.00  0.00    -0.214 NA
BRANCH   4   3
ATOM      1  C   UNL     1       5.333  29.376   8.105  0.00  0.00    +0.020 A 
ATOM      2  C   UNL     1       6.638  28.984   8.585  0.00  0.00    +0.013 A 
ATOM      3  C   UNL     1       7.185  27.671   8.266  0.00  0.00    +0.019 A 
ATOM     38  C   UNL     1       6.381  26.773   7.452  0.00  0.00    +0.120 A 
ATOM     39  N   UNL     1       5.127  27.178   7.005  0.00  0.00    -0.263 NA
ATOM     40  C   UNL     1       4.589  28.438   7.307  0.00  0.00    +0.111 A 
ENDBRANCH   4   3
ENDBRANCH  10   9
BRANCH  12  13
ATOM     13  N   UNL     1      15.124  23.261   7.472  0.00  0.00    -0.281 N 
ATOM     14  C   UNL     1      15.309  22.855   6.161  0.00  0.00    +0.248 C 
ATOM     30  O   UNL     1      14.568  22.089   5.564  0.00  0.00    -0.270 OA
ATOM     31  H   UNL     1      15.912  23.741   7.908  0.00  0.00    +0.155 HD
BRANCH  14  15
ATOM     15  C   UNL     1      16.496  23.363   5.408  0.00  0.00    +0.037 A 
ATOM     16  C   UNL     1      16.344  24.060   4.128  0.00  0.00    +0.013 A 
ATOM     17  C   UNL     1      17.507  24.524   3.415  0.00  0.00    +0.005 A 
ATOM     18  C   UNL     1      18.834  24.295   3.981  0.00  0.00    -0.033 A 
ATOM     28  C   UNL     1      18.956  23.606   5.255  0.00  0.00    +0.005 A 
ATOM     29  C   UNL     1      17.818  23.149   5.957  0.00  0.00    +0.013 A 
BRANCH  18  19
ATOM     19  C   UNL     1      20.131  24.738   3.279  0.00  0.00    +0.119 C 
BRANCH  19  20
ATOM     20  N   UNL     1      20.106  26.045   2.557  0.00  0.00    -0.302 NA
ATOM     21  C   UNL     1      21.283  26.189   1.588  0.00  0.00    +0.066 C 
ATOM     22  C   UNL     1      21.229  27.553   0.826  0.00  0.00    -0.064 C 
ATOM     23  N   UNL     1      21.217  28.700   1.838  0.00  0.00    +0.379 N 
ATOM     24  C   UNL     1      21.225  29.985   1.123  0.00  0.00    -0.096 C 
ATOM     25  H   UNL     1      22.159  28.637   2.431  0.00  0.00    -0.082 HD
ATOM     26  C   UNL     1      20.051  28.563   2.807  0.00  0.00    -0.064 C 
ATOM     27  C   UNL     1      20.098  27.192   3.538  0.00  0.00    +0.066 C 
ENDBRANCH  19  20
ENDBRANCH  18  19
ENDBRANCH  14  15
ENDBRANCH  12  13
TORSDOF 6
ENDMDL
MODEL 3
REMARK VINA RESULT:      -8.1      3.756      7.419
REMARK  Name = C:\Users\Docking\Desktop\test protocol\1iep_ligandH.pdb
REMARK  8 active torsions:
REMARK  status: ('A' for Active; 'I' for Inactive)
REMARK    1  A    between atoms: _5  and  _11
REMARK    2  A    between atoms: _19  and  _21
REMARK    3  A    between atoms: _22  and  _66
REMARK    4  A    between atoms: _27  and  _30
REMARK    5  A    between atoms: _32  and  _33
REMARK    6  A    between atoms: _38  and  _43
REMARK    7  A    between atoms: _43  and  _46
REMARK    8  A    between atoms: _53  and  _55
REMARK                            x       y       z     vdW  Elec       q    Type
REMARK                         _______ _______ _______ _____ _____    ______ ____
ROOT
ATOM     10  C   UNL     1      14.787  22.960   8.308  0.00  0.00    +0.038 A 
ATOM     11  C   UNL     1      13.687  23.848   8.201  0.00  0.00    +0.047 A 
ATOM     12  C   UNL     1      12.371  23.481   8.700  0.00  0.00    +0.035 A 
ATOM     32  C   UNL     1      12.212  22.200   9.306  0.00  0.00    +0.024 A 
ATOM     33  C   UNL     1      13.319  21.284   9.422  0.00  0.00    +0.007 A 
ATOM     34  C   UNL     1      14.619  21.640   8.928  0.00  0.00    -0.029 A 
ATOM     35  C   UNL     1      15.768  20.616   9.074  0.00  0.00    +0.045 C 
ENDROOT
BRANCH  10   9
ATOM      4  C   UNL     1      17.909  23.587   4.716  0.00  0.00    +0.077 A 
ATOM      5  C   UNL     1      17.000  23.037   3.752  0.00  0.00    +0.048 A 
ATOM      6  C   UNL     1      15.742  22.597   4.222  0.00  0.00    +0.116 A 
ATOM      7  N   UNL     1      15.427  22.705   5.559  0.00  0.00    -0.223 NA
ATOM      8  C   UNL     1      16.327  23.239   6.463  0.00  0.00    +0.220 A 
ATOM      9  N   UNL     1      16.028  23.364   7.811  0.00  0.00    -0.283 N 
ATOM     36  H   UNL     1      16.722  23.757   8.447  0.00  0.00    +0.155 HD
ATOM     37  N   UNL     1      17.535  23.664   6.039  0.00  0.00    -0.214 NA
BRANCH   4   3
ATOM      1  C   UNL     1      21.745  24.344   4.816  0.00  0.00    +0.020 A 
ATOM      2  C   UNL     1      20.449  23.827   5.192  0.00  0.00    +0.013 A 
ATOM      3  C   UNL     1      19.274  24.097   4.373  0.00  0.00    +0.019 A 
ATOM     38  C   UNL     1      19.445  24.898   3.170  0.00  0.00    +0.120 A 
ATOM     39  N   UNL     1      20.705  25.383   2.834  0.00  0.00    -0.263 NA
ATOM     40  C   UNL     1      21.843  25.131   3.615  0.00  0.00    +0.111 A 
ENDBRANCH   4   3
ENDBRANCH  10   9
BRANCH  12  13
ATOM     13  N   UNL     1      11.215  24.338   8.612  0.00  0.00    -0.281 N 
ATOM     14  C   UNL     1      10.608  25.056   9.630  0.00  0.00    +0.248 C 
ATOM     30  O   UNL     1      10.841  24.901  10.819  0.00  0.00    -0.270 OA
ATOM     31  H   UNL     1      10.793  24.426   7.688  0.00  0.00    +0.155 HD
BRANCH  14  15
ATOM     15  C   UNL     1       9.584  26.085   9.275  0.00  0.00    +0.037 A 
ATOM     16  C   UNL     1       9.739  27.484   9.684  0.00  0.00    +0.013 A 
ATOM     17  C   UNL     1       8.728  28.453   9.344  0.00  0.00    +0.005 A 
ATOM     18  C   UNL     1       7.552  28.027   8.588  0.00  0.00    -0.033 A 
ATOM     28  C   UNL     1       7.427  26.634   8.190  0.00  0.00    +0.005 A 
ATOM     29  C   UNL     1       8.415  25.681   8.523  0.00  0.00    +0.013 A 
BRANCH  18  19
ATOM     19  C   UNL     1       6.414  28.988   8.199  0.00  0.00    +0.119 C 
BRANCH  19  20
ATOM     20  N   UNL     1       5.077  28.386   7.918  0.00  0.00    -0.302 NA
ATOM     21  C   UNL     1       4.812  28.252   6.416  0.00  0.00    +0.066 C 
ATOM     22  C   UNL     1       3.418  27.599   6.139  0.00  0.00    -0.064 C 
ATOM     23  N   UNL     1       2.326  28.434   6.809  0.00  0.00    +0.379 N 
ATOM     24  C   UNL     1       1.009  27.856   6.503  0.00  0.00    -0.096 C 
ATOM     25  H   UNL     1       2.359  29.455   6.363  0.00  0.00    -0.082 HD
ATOM     26  C   UNL     1       2.582  28.575   8.303  0.00  0.00    -0.064 C 
ATOM     27  C   UNL     1       3.982  29.197   8.567  0.00  0.00    +0.066 C 
ENDBRANCH  19  20
ENDBRANCH  18  19
ENDBRANCH  14  15
ENDBRANCH  12  13
TORSDOF 6
ENDMDL
MODEL 4
REMARK VINA RESULT:      -7.9      3.787     12.449
REMARK  Name = C:\Users\Docking\Desktop\test protocol\1iep_ligandH.pdb
REMARK  8 active torsions:
REMARK  status: ('A' for Active; 'I' for Inactive)
REMARK    1  A    between atoms: _5  and  _11
REMARK    2  A    between atoms: _19  and  _21
REMARK    3  A    between atoms: _22  and  _66
REMARK    4  A    between atoms: _27  and  _30
REMARK    5  A    between atoms: _32  and  _33
REMARK    6  A    between atoms: _38  and  _43
REMARK    7  A    between atoms: _43  and  _46
REMARK    8  A    between atoms: _53  and  _55
REMARK                            x       y       z     vdW  Elec       q    Type
REMARK                         _______ _______ _______ _____ _____    ______ ____
ROOT
ATOM     10  C   UNL     1      12.211  23.491   8.439  0.00  0.00    +0.038 A 
ATOM     11  C   UNL     1      13.387  23.749   7.689  0.00  0.00    +0.047 A 
ATOM     12  C   UNL     1      14.661  23.150   8.057  0.00  0.00    +0.035 A 
ATOM     32  C   UNL     1      14.700  22.291   9.194  0.00  0.00    +0.024 A 
ATOM     33  C   UNL     1      13.514  22.018   9.968  0.00  0.00    +0.007 A 
ATOM     34  C   UNL     1      12.256  22.608   9.611  0.00  0.00    -0.029 A 
ATOM     35  C   UNL     1      11.019  22.286  10.481  0.00  0.00    +0.045 C 
ENDROOT
BRANCH  10   9
ATOM      4  C   UNL     1       9.096  27.142   8.465  0.00  0.00    +0.077 A 
ATOM      5  C   UNL     1       9.907  27.905   9.370  0.00  0.00    +0.048 A 
ATOM      6  C   UNL     1      11.115  27.319   9.810  0.00  0.00    +0.116 A 
ATOM      7  N   UNL     1      11.475  26.063   9.372  0.00  0.00    -0.223 NA
ATOM      8  C   UNL     1      10.669  25.354   8.501  0.00  0.00    +0.220 A 
ATOM      9  N   UNL     1      11.015  24.093   8.041  0.00  0.00    -0.283 N 
ATOM     36  H   UNL     1      10.390  23.599   7.405  0.00  0.00    +0.155 HD
ATOM     37  N   UNL     1       9.510  25.891   8.067  0.00  0.00    -0.214 NA
BRANCH   4   3
ATOM      1  C   UNL     1       5.728  29.073   7.987  0.00  0.00    +0.020 A 
ATOM      2  C   UNL     1       6.978  28.639   8.568  0.00  0.00    +0.013 A 
ATOM      3  C   UNL     1       7.794  27.627   7.908  0.00  0.00    +0.019 A 
ATOM     38  C   UNL     1       7.313  27.071   6.653  0.00  0.00    +0.120 A 
ATOM     39  N   UNL     1       6.105  27.507   6.118  0.00  0.00    -0.263 NA
ATOM     40  C   UNL     1       5.310  28.479   6.745  0.00  0.00    +0.111 A 
ENDBRANCH   4   3
ENDBRANCH  10   9
BRANCH  12  13
ATOM     13  N   UNL     1      15.890  23.382   7.339  0.00  0.00    -0.281 N 
ATOM     14  C   UNL     1      16.270  22.863   6.112  0.00  0.00    +0.248 C 
ATOM     30  O   UNL     1      15.697  21.946   5.542  0.00  0.00    -0.270 OA
ATOM     31  H   UNL     1      16.560  24.005   7.790  0.00  0.00    +0.155 HD
BRANCH  14  15
ATOM     15  C   UNL     1      17.468  23.435   5.426  0.00  0.00    +0.037 A 
ATOM     16  C   UNL     1      17.328  24.378   4.313  0.00  0.00    +0.013 A 
ATOM     17  C   UNL     1      18.500  24.902   3.658  0.00  0.00    +0.005 A 
ATOM     18  C   UNL     1      19.823  24.484   4.115  0.00  0.00    -0.033 A 
ATOM     28  C   UNL     1      19.933  23.552   5.224  0.00  0.00    +0.005 A 
ATOM     29  C   UNL     1      18.787  23.035   5.869  0.00  0.00    +0.013 A 
BRANCH  18  19
ATOM     19  C   UNL     1      21.128  24.976   3.460  0.00  0.00    +0.119 C 
BRANCH  19  20
ATOM     20  N   UNL     1      22.081  23.936   2.971  0.00  0.00    -0.302 NA
ATOM     21  C   UNL     1      23.420  23.990   3.713  0.00  0.00    +0.066 C 
ATOM     22  C   UNL     1      24.397  22.881   3.203  0.00  0.00    -0.064 C 
ATOM     23  N   UNL     1      24.606  23.042   1.697  0.00  0.00    +0.379 N 
ATOM     24  C   UNL     1      25.570  22.037   1.225  0.00  0.00    -0.096 C 
ATOM     25  H   UNL     1      25.055  24.048   1.523  0.00  0.00    -0.082 HD
ATOM     26  C   UNL     1      23.280  22.993   0.952  0.00  0.00    -0.064 C 
ATOM     27  C   UNL     1      22.306  24.080   1.485  0.00  0.00    +0.066 C 
ENDBRANCH  19  20
ENDBRANCH  18  19
ENDBRANCH  14  15
ENDBRANCH  12  13
TORSDOF 6
ENDMDL
MODEL 5
REMARK VINA RESULT:      -7.9      1.774      2.787
REMARK  Name = C:\Users\Docking\Desktop\test protocol\1iep_ligandH.pdb
REMARK  8 active torsions:
REMARK  status: ('A' for Active; 'I' for Inactive)
REMARK    1  A    between atoms: _5  and  _11
REMARK    2  A    between atoms: _19  and  _21
REMARK    3  A    between atoms: _22  and  _66
REMARK    4  A    between atoms: _27  and  _30
REMARK    5  A    between atoms: _32  and  _33
REMARK    6  A    between atoms: _38  and  _43
REMARK    7  A    between atoms: _43  and  _46
REMARK    8  A    between atoms: _53  and  _55
REMARK                            x       y       z     vdW  Elec       q    Type
REMARK                         _______ _______ _______ _____ _____    ______ ____
ROOT
ATOM     10  C   UNL     1      20.248  25.857   4.042  0.00  0.00    +0.038 A 
ATOM     11  C   UNL     1      18.942  25.721   4.578  0.00  0.00    +0.047 A 
ATOM     12  C   UNL     1      18.257  24.438   4.574  0.00  0.00    +0.035 A 
ATOM     32  C   UNL     1      18.933  23.313   4.019  0.00  0.00    +0.024 A 
ATOM     33  C   UNL     1      20.260  23.433   3.469  0.00  0.00    +0.007 A 
ATOM     34  C   UNL     1      20.940  24.697   3.467  0.00  0.00    -0.029 A 
ATOM     35  C   UNL     1      22.359  24.769   2.858  0.00  0.00    +0.045 C 
ENDROOT
BRANCH  10   9
ATOM      4  C   UNL     1      21.561  29.975   1.955  0.00  0.00    +0.077 A 
ATOM      5  C   UNL     1      21.007  29.580   0.692  0.00  0.00    +0.048 A 
ATOM      6  C   UNL     1      20.399  28.307   0.619  0.00  0.00    +0.116 A 
ATOM      7  N   UNL     1      20.354  27.497   1.733  0.00  0.00    -0.223 NA
ATOM      8  C   UNL     1      20.900  27.907   2.936  0.00  0.00    +0.220 A 
ATOM      9  N   UNL     1      20.859  27.113   4.071  0.00  0.00    -0.283 N 
ATOM     36  H   UNL     1      21.279  27.449   4.937  0.00  0.00    +0.155 HD
ATOM     37  N   UNL     1      21.487  29.118   3.030  0.00  0.00    -0.214 NA
BRANCH   4   3
ATOM      1  C   UNL     1      23.842  33.127   1.552  0.00  0.00    +0.020 A 
ATOM      2  C   UNL     1      23.223  31.851   1.278  0.00  0.00    +0.013 A 
ATOM      3  C   UNL     1      22.234  31.291   2.191  0.00  0.00    +0.019 A 
ATOM     38  C   UNL     1      21.890  32.055   3.381  0.00  0.00    +0.120 A 
ATOM     39  N   UNL     1      22.504  33.281   3.619  0.00  0.00    -0.263 NA
ATOM     40  C   UNL     1      23.459  33.828   2.749  0.00  0.00    +0.111 A 
ENDBRANCH   4   3
ENDBRANCH  10   9
BRANCH  12  13
ATOM     13  N   UNL     1      16.927  24.241   5.097  0.00  0.00    -0.281 N 
ATOM     14  C   UNL     1      16.454  23.173   5.841  0.00  0.00    +0.248 C 
ATOM     30  O   UNL     1      17.050  22.116   5.989  0.00  0.00    -0.270 OA
ATOM     31  H   UNL     1      16.253  24.979   4.894  0.00  0.00    +0.155 HD
BRANCH  14  15
ATOM     15  C   UNL     1      15.120  23.289   6.505  0.00  0.00    +0.037 A 
ATOM     16  C   UNL     1      14.975  23.126   7.953  0.00  0.00    +0.013 A 
ATOM     17  C   UNL     1      13.674  23.226   8.566  0.00  0.00    +0.005 A 
ATOM     18  C   UNL     1      12.507  23.493   7.729  0.00  0.00    -0.033 A 
ATOM     28  C   UNL     1      12.680  23.656   6.295  0.00  0.00    +0.005 A 
ATOM     29  C   UNL     1      13.954  23.557   5.691  0.00  0.00    +0.013 A 
BRANCH  18  19
ATOM     19  C   UNL     1      11.078  23.595   8.294  0.00  0.00    +0.119 C 
BRANCH  19  20
ATOM     20  N   UNL     1      10.624  22.503   9.206  0.00  0.00    -0.302 NA
ATOM     21  C   UNL     1      10.809  21.118   8.580  0.00  0.00    +0.066 C 
ATOM     22  C   UNL     1      10.350  19.986   9.557  0.00  0.00    -0.064 C 
ATOM     23  N   UNL     1       8.888  20.214   9.945  0.00  0.00    +0.379 N 
ATOM     24  C   UNL     1       8.436  19.120  10.817  0.00  0.00    -0.096 C 
ATOM     25  H   UNL     1       8.281  20.175   9.011  0.00  0.00    -0.082 HD
ATOM     26  C   UNL     1       8.694  21.590  10.565  0.00  0.00    -0.064 C 
ATOM     27  C   UNL     1       9.181  22.706   9.598  0.00  0.00    +0.066 C 
ENDBRANCH  19  20
ENDBRANCH  18  19
ENDBRANCH  14  15
ENDBRANCH  12  13
TORSDOF 6
ENDMDL
