MODEL 1
REMARK VINA RESULT:      -8.9      0.000      0.000
REMARK  Name = C:\Users\Docking\Desktop\test protocol\1iep_ligandH.pdb
REMARK  8 active torsions:
REMARK  status: ('A' for Active; 'I' for Inactive)
REMARK    1  A    between atoms: _5  and  _11
REMARK    2  A    between atoms: _19  and  _21
REMARK    3  A    between atoms: _22  and  _66
REMARK    4  A    between atoms: _27  and  _30
REMARK    5  A    between atoms: _32  and  _33
REMARK    6  A    between atoms: _38  and  _43
REMARK    7  A    between atoms: _43  and  _46
REMARK    8  A    between atoms: _53  and  _55
REMARK                            x       y       z     vdW  Elec       q    Type
REMARK                         _______ _______ _______ _____ _____    ______ ____
ROOT
ATOM     10  C   UNL     1      90.258  90.618  84.883  0.00  0.00    +0.038 A 
ATOM     11  C   UNL     1      91.332  89.754  85.220  0.00  0.00    +0.047 A 
ATOM     12  C   UNL     1      92.634  89.890  84.587  0.00  0.00    +0.035 A 
ATOM     32  C   UNL     1      92.809  90.919  83.616  0.00  0.00    +0.024 A 
ATOM     33  C   UNL     1      91.729  91.805  83.261  0.00  0.00    +0.007 A 
ATOM     34  C   UNL     1      90.441  91.674  83.880  0.00  0.00    -0.029 A 
ATOM     35  C   UNL     1      89.317  92.648  83.456  0.00  0.00    +0.045 C 
ENDROOT
BRANCH  10   9
ATOM      4  C   UNL     1      87.073  91.707  88.304  0.00  0.00    +0.077 A 
ATOM      5  C   UNL     1      87.942  92.691  88.883  0.00  0.00    +0.048 A 
ATOM      6  C   UNL     1      89.203  92.881  88.275  0.00  0.00    +0.116 A 
ATOM      7  N   UNL     1      89.557  92.137  87.170  0.00  0.00    -0.223 NA
ATOM      8  C   UNL     1      88.696  91.195  86.638  0.00  0.00    +0.220 A 
ATOM      9  N   UNL     1      89.029  90.442  85.523  0.00  0.00    -0.283 N 
ATOM     36  H   UNL     1      88.369  89.752  85.165  0.00  0.00    +0.155 HD
ATOM     37  N   UNL     1      87.487  90.994  87.201  0.00  0.00    -0.214 NA
BRANCH   4   3
ATOM      1  C   UNL     1      83.803  91.734  90.451  0.00  0.00    +0.020 A 
ATOM      2  C   UNL     1      85.126  92.074  89.982  0.00  0.00    +0.013 A 
ATOM      3  C   UNL     1      85.707  91.393  88.831  0.00  0.00    +0.019 A 
ATOM     38  C   UNL     1      84.915  90.366  88.172  0.00  0.00    +0.120 A 
ATOM     39  N   UNL     1      83.644  90.059  88.646  0.00  0.00    -0.263 NA
ATOM     40  C   UNL     1      83.076  90.706  89.754  0.00  0.00    +0.111 A 
ENDBRANCH   4   3
ENDBRANCH  10   9
BRANCH  12  13
ATOM     13  N   UNL     1      93.759  89.038  84.883  0.00  0.00    -0.281 N 
ATOM     14  C   UNL     1      93.780  87.656  84.971  0.00  0.00    +0.248 C 
ATOM     30  O   UNL     1      92.783  86.951  85.018  0.00  0.00    -0.270 OA
ATOM     31  H   UNL     1      94.648  89.511  85.047  0.00  0.00    +0.155 HD
BRANCH  14  15
ATOM     15  C   UNL     1      95.099  86.956  85.028  0.00  0.00    +0.037 A 
ATOM     16  C   UNL     1      96.178  87.438  85.894  0.00  0.00    +0.013 A 
ATOM     17  C   UNL     1      97.447  86.754  85.918  0.00  0.00    +0.005 A 
ATOM     18  C   UNL     1      97.643  85.579  85.072  0.00  0.00    -0.033 A 
ATOM     28  C   UNL     1      96.554  85.119  84.226  0.00  0.00    +0.005 A 
ATOM     29  C   UNL     1      95.310  85.788  84.200  0.00  0.00    +0.013 A 
BRANCH  18  19
ATOM     19  C   UNL     1      98.971  84.800  85.018  0.00  0.00    +0.119 C 
BRANCH  19  20
ATOM     20  N   UNL     1      99.906  85.121  83.899  0.00  0.00    -0.302 NA
ATOM     21  C   UNL     1     100.562  86.494  84.075  0.00  0.00    +0.066 C 
ATOM     22  C   UNL     1     101.555  86.804  82.907  0.00  0.00    -0.064 C 
ATOM     23  N   UNL     1     100.809  86.726  81.574  0.00  0.00    +0.379 N 
ATOM     24  C   UNL     1     101.726  87.074  80.478  0.00  0.00    -0.096 C 
ATOM     25  H   UNL     1     100.000  87.492  81.594  0.00  0.00    -0.082 HD
ATOM     26  C   UNL     1     100.152  85.365  81.392  0.00  0.00    -0.064 C 
ATOM     27  C   UNL     1      99.190  85.054  82.573  0.00  0.00    +0.066 C 
ENDBRANCH  19  20
ENDBRANCH  18  19
ENDBRANCH  14  15
ENDBRANCH  12  13
TORSDOF 6
ENDMDL
MODEL 2
REMARK VINA RESULT:      -8.7      7.861     13.078
REMARK  Name = C:\Users\Docking\Desktop\test protocol\1iep_ligandH.pdb
REMARK  8 active torsions:
REMARK  status: ('A' for Active; 'I' for Inactive)
REMARK    1  A    between atoms: _5  and  _11
REMARK    2  A    between atoms: _19  and  _21
REMARK    3  A    between atoms: _22  and  _66
REMARK    4  A    between atoms: _27  and  _30
REMARK    5  A    between atoms: _32  and  _33
REMARK    6  A    between atoms: _38  and  _43
REMARK    7  A    between atoms: _43  and  _46
REMARK    8  A    between atoms: _53  and  _55
REMARK                            x       y       z     vdW  Elec       q    Type
REMARK                         _______ _______ _______ _____ _____    ______ ____
ROOT
ATOM     10  C   UNL     1      93.926  85.198  83.600  0.00  0.00    +0.038 A 
ATOM     11  C   UNL     1      93.590  83.833  83.790  0.00  0.00    +0.047 A 
ATOM     12  C   UNL     1      92.409  83.448  84.547  0.00  0.00    +0.035 A 
ATOM     32  C   UNL     1      91.591  84.479  85.094  0.00  0.00    +0.024 A 
ATOM     33  C   UNL     1      91.919  85.871  84.911  0.00  0.00    +0.007 A 
ATOM     34  C   UNL     1      93.084  86.257  84.168  0.00  0.00    -0.029 A 
ATOM     35  C   UNL     1      93.390  87.764  84.009  0.00  0.00    +0.045 C 
ENDROOT
BRANCH  10   9
ATOM      4  C   UNL     1      98.626  86.117  83.271  0.00  0.00    +0.077 A 
ATOM      5  C   UNL     1      98.810  85.990  84.688  0.00  0.00    +0.048 A 
ATOM      6  C   UNL     1      97.668  85.694  85.467  0.00  0.00    +0.116 A 
ATOM      7  N   UNL     1      96.440  85.539  84.863  0.00  0.00    -0.223 NA
ATOM      8  C   UNL     1      96.296  85.670  83.494  0.00  0.00    +0.220 A 
ATOM      9  N   UNL     1      95.072  85.511  82.864  0.00  0.00    -0.283 N 
ATOM     36  H   UNL     1      95.006  85.623  81.853  0.00  0.00    +0.155 HD
ATOM     37  N   UNL     1      97.371  85.954  82.728  0.00  0.00    -0.214 NA
BRANCH   4   3
ATOM      1  C   UNL     1     102.112  87.083  81.785  0.00  0.00    +0.020 A 
ATOM      2  C   UNL     1     101.076  86.797  82.750  0.00  0.00    +0.013 A 
ATOM      3  C   UNL     1      99.736  86.424  82.315  0.00  0.00    +0.019 A 
ATOM     38  C   UNL     1      99.475  86.349  80.885  0.00  0.00    +0.120 A 
ATOM     39  N   UNL     1     100.493  86.632  79.979  0.00  0.00    -0.263 NA
ATOM     40  C   UNL     1     101.786  86.993  80.386  0.00  0.00    +0.111 A 
ENDBRANCH   4   3
ENDBRANCH  10   9
BRANCH  12  13
ATOM     13  N   UNL     1      92.021  82.078  84.779  0.00  0.00    -0.281 N 
ATOM     14  C   UNL     1      92.774  81.065  85.350  0.00  0.00    +0.248 C 
ATOM     30  O   UNL     1      93.977  81.130  85.555  0.00  0.00    -0.270 OA
ATOM     31  H   UNL     1      91.077  81.825  84.488  0.00  0.00    +0.155 HD
BRANCH  14  15
ATOM     15  C   UNL     1      92.095  79.792  85.738  0.00  0.00    +0.037 A 
ATOM     16  C   UNL     1      90.920  79.305  85.010  0.00  0.00    +0.013 A 
ATOM     17  C   UNL     1      90.274  78.082  85.416  0.00  0.00    +0.005 A 
ATOM     18  C   UNL     1      90.803  77.336  86.554  0.00  0.00    -0.033 A 
ATOM     28  C   UNL     1      91.973  77.838  87.255  0.00  0.00    +0.005 A 
ATOM     29  C   UNL     1      92.609  79.037  86.861  0.00  0.00    +0.013 A 
BRANCH  18  19
ATOM     19  C   UNL     1      90.165  76.032  87.070  0.00  0.00    +0.119 C 
BRANCH  19  20
ATOM     20  N   UNL     1      89.837  74.985  86.057  0.00  0.00    -0.302 NA
ATOM     21  C   UNL     1      88.335  74.916  85.767  0.00  0.00    +0.066 C 
ATOM     22  C   UNL     1      88.013  73.831  84.689  0.00  0.00    -0.064 C 
ATOM     23  N   UNL     1      88.535  72.473  85.163  0.00  0.00    +0.379 N 
ATOM     24  C   UNL     1      88.182  71.440  84.179  0.00  0.00    -0.096 C 
ATOM     25  H   UNL     1      88.013  72.225  86.116  0.00  0.00    -0.082 HD
ATOM     26  C   UNL     1      90.027  72.533  85.457  0.00  0.00    -0.064 C 
ATOM     27  C   UNL     1      90.340  73.635  86.507  0.00  0.00    +0.066 C 
ENDBRANCH  19  20
ENDBRANCH  18  19
ENDBRANCH  14  15
ENDBRANCH  12  13
TORSDOF 6
ENDMDL
MODEL 3
REMARK VINA RESULT:      -8.5      2.313     13.185
REMARK  Name = C:\Users\Docking\Desktop\test protocol\1iep_ligandH.pdb
REMARK  8 active torsions:
REMARK  status: ('A' for Active; 'I' for Inactive)
REMARK    1  A    between atoms: _5  and  _11
REMARK    2  A    between atoms: _19  and  _21
REMARK    3  A    between atoms: _22  and  _66
REMARK    4  A    between atoms: _27  and  _30
REMARK    5  A    between atoms: _32  and  _33
REMARK    6  A    between atoms: _38  and  _43
REMARK    7  A    between atoms: _43  and  _46
REMARK    8  A    between atoms: _53  and  _55
REMARK                            x       y       z     vdW  Elec       q    Type
REMARK                         _______ _______ _______ _____ _____    ______ ____
ROOT
ATOM     10  C   UNL     1      92.625  90.162  84.787  0.00  0.00    +0.038 A 
ATOM     11  C   UNL     1      91.572  90.029  85.728  0.00  0.00    +0.047 A 
ATOM     12  C   UNL     1      90.298  90.703  85.532  0.00  0.00    +0.035 A 
ATOM     32  C   UNL     1      90.129  91.502  84.364  0.00  0.00    +0.024 A 
ATOM     33  C   UNL     1      91.189  91.649  83.397  0.00  0.00    +0.007 A 
ATOM     34  C   UNL     1      92.449  90.989  83.587  0.00  0.00    -0.029 A 
ATOM     35  C   UNL     1      93.552  91.188  82.521  0.00  0.00    +0.045 C 
ENDROOT
BRANCH  10   9
ATOM      4  C   UNL     1      95.465  86.308  84.440  0.00  0.00    +0.077 A 
ATOM      5  C   UNL     1      94.458  85.555  83.749  0.00  0.00    +0.048 A 
ATOM      6  C   UNL     1      93.221  86.194  83.509  0.00  0.00    +0.116 A 
ATOM      7  N   UNL     1      93.017  87.489  83.932  0.00  0.00    -0.223 NA
ATOM      8  C   UNL     1      94.008  88.187  84.597  0.00  0.00    +0.220 A 
ATOM      9  N   UNL     1      93.827  89.493  85.025  0.00  0.00    -0.283 N 
ATOM     36  H   UNL     1      94.581  89.971  85.519  0.00  0.00    +0.155 HD
ATOM     37  N   UNL     1      95.198  87.599  84.840  0.00  0.00    -0.214 NA
BRANCH   4   3
ATOM      1  C   UNL     1      98.816  85.504  86.290  0.00  0.00    +0.020 A 
ATOM      2  C   UNL     1      97.503  86.046  86.026  0.00  0.00    +0.013 A 
ATOM      3  C   UNL     1      96.825  85.773  84.765  0.00  0.00    +0.019 A 
ATOM     38  C   UNL     1      97.507  84.941  83.786  0.00  0.00    +0.120 A 
ATOM     39  N   UNL     1      98.772  84.434  84.067  0.00  0.00    -0.263 NA
ATOM     40  C   UNL     1      99.436  84.692  85.276  0.00  0.00    +0.111 A 
ENDBRANCH   4   3
ENDBRANCH  10   9
BRANCH  12  13
ATOM     13  N   UNL     1      89.196  90.612  86.457  0.00  0.00    -0.281 N 
ATOM     14  C   UNL     1      88.794  91.546  87.398  0.00  0.00    +0.248 C 
ATOM     30  O   UNL     1      89.456  92.516  87.734  0.00  0.00    -0.270 OA
ATOM     31  H   UNL     1      88.645  89.755  86.413  0.00  0.00    +0.155 HD
BRANCH  14  15
ATOM     15  C   UNL     1      87.473  91.368  88.073  0.00  0.00    +0.037 A 
ATOM     16  C   UNL     1      86.378  90.644  87.423  0.00  0.00    +0.013 A 
ATOM     17  C   UNL     1      85.108  90.502  88.089  0.00  0.00    +0.005 A 
ATOM     18  C   UNL     1      84.927  91.085  89.416  0.00  0.00    -0.033 A 
ATOM     28  C   UNL     1      86.031  91.794  90.041  0.00  0.00    +0.005 A 
ATOM     29  C   UNL     1      87.277  91.936  89.390  0.00  0.00    +0.013 A 
BRANCH  18  19
ATOM     19  C   UNL     1      83.599  91.000  90.193  0.00  0.00    +0.119 C 
BRANCH  19  20
ATOM     20  N   UNL     1      83.615  90.272  91.497  0.00  0.00    -0.302 NA
ATOM     21  C   UNL     1      83.378  88.770  91.319  0.00  0.00    +0.066 C 
ATOM     22  C   UNL     1      83.420  88.021  92.691  0.00  0.00    -0.064 C 
ATOM     23  N   UNL     1      82.377  88.626  93.632  0.00  0.00    +0.379 N 
ATOM     24  C   UNL     1      82.374  87.887  94.902  0.00  0.00    -0.096 C 
ATOM     25  H   UNL     1      81.376  88.490  93.158  0.00  0.00    -0.082 HD
ATOM     26  C   UNL     1      82.603  90.121  93.811  0.00  0.00    -0.064 C 
ATOM     27  C   UNL     1      82.588  90.851  92.440  0.00  0.00    +0.066 C 
ENDBRANCH  19  20
ENDBRANCH  18  19
ENDBRANCH  14  15
ENDBRANCH  12  13
TORSDOF 6
ENDMDL
MODEL 4
REMARK VINA RESULT:      -8.3     29.027     30.930
REMARK  Name = C:\Users\Docking\Desktop\test protocol\1iep_ligandH.pdb
REMARK  8 active torsions:
REMARK  status: ('A' for Active; 'I' for Inactive)
REMARK    1  A    between atoms: _5  and  _11
REMARK    2  A    between atoms: _19  and  _21
REMARK    3  A    between atoms: _22  and  _66
REMARK    4  A    between atoms: _27  and  _30
REMARK    5  A    between atoms: _32  and  _33
REMARK    6  A    between atoms: _38  and  _43
REMARK    7  A    between atoms: _43  and  _46
REMARK    8  A    between atoms: _53  and  _55
REMARK                            x       y       z     vdW  Elec       q    Type
REMARK                         _______ _______ _______ _____ _____    ______ ____
ROOT
ATOM     10  C   UNL     1     100.143  76.151 111.808  0.00  0.00    +0.038 A 
ATOM     11  C   UNL     1     101.188  76.965 112.316  0.00  0.00    +0.047 A 
ATOM     12  C   UNL     1     102.547  76.848 111.809  0.00  0.00    +0.035 A 
ATOM     32  C   UNL     1     102.805  75.893 110.782  0.00  0.00    +0.024 A 
ATOM     33  C   UNL     1     101.755  75.057 110.256  0.00  0.00    +0.007 A 
ATOM     34  C   UNL     1     100.414  75.166 110.754  0.00  0.00    -0.029 A 
ATOM     35  C   UNL     1      99.329  74.239 110.157  0.00  0.00    +0.045 C 
ENDROOT
BRANCH  10   9
ATOM      4  C   UNL     1      95.833  78.261 111.893  0.00  0.00    +0.077 A 
ATOM      5  C   UNL     1      96.182  79.149 110.822  0.00  0.00    +0.048 A 
ATOM      6  C   UNL     1      97.482  79.036 110.282  0.00  0.00    +0.116 A 
ATOM      7  N   UNL     1      98.360  78.100 110.783  0.00  0.00    -0.223 NA
ATOM      8  C   UNL     1      97.993  77.259 111.818  0.00  0.00    +0.220 A 
ATOM      9  N   UNL     1      98.858  76.305 112.332  0.00  0.00    -0.283 N 
ATOM     36  H   UNL     1      98.551  75.709 113.100  0.00  0.00    +0.155 HD
ATOM     37  N   UNL     1      96.757  77.349 112.352  0.00  0.00    -0.214 NA
BRANCH   4   3
ATOM      1  C   UNL     1      92.239  79.270 113.063  0.00  0.00    +0.020 A 
ATOM      2  C   UNL     1      93.517  79.322 112.391  0.00  0.00    +0.013 A 
ATOM      3  C   UNL     1      94.496  78.256 112.566  0.00  0.00    +0.019 A 
ATOM     38  C   UNL     1      94.147  77.142 113.434  0.00  0.00    +0.120 A 
ATOM     39  N   UNL     1      92.909  77.119 114.069  0.00  0.00    -0.263 NA
ATOM     40  C   UNL     1      91.960  78.140 113.910  0.00  0.00    +0.111 A 
ENDBRANCH   4   3
ENDBRANCH  10   9
BRANCH  12  13
ATOM     13  N   UNL     1     103.650  77.642 112.291  0.00  0.00    -0.281 N 
ATOM     14  C   UNL     1     104.011  78.922 111.905  0.00  0.00    +0.248 C 
ATOM     30  O   UNL     1     103.562  79.501 110.926  0.00  0.00    -0.270 OA
ATOM     31  H   UNL     1     104.236  77.206 113.003  0.00  0.00    +0.155 HD
BRANCH  14  15
ATOM     15  C   UNL     1     105.026  79.661 112.715  0.00  0.00    +0.037 A 
ATOM     16  C   UNL     1     104.649  80.810 113.542  0.00  0.00    +0.013 A 
ATOM     17  C   UNL     1     105.652  81.516 114.300  0.00  0.00    +0.005 A 
ATOM     18  C   UNL     1     107.042  81.073 114.235  0.00  0.00    -0.033 A 
ATOM     28  C   UNL     1     107.388  79.927 113.410  0.00  0.00    +0.005 A 
ATOM     29  C   UNL     1     106.408  79.234 112.665  0.00  0.00    +0.013 A 
BRANCH  18  19
ATOM     19  C   UNL     1     108.181  81.779 114.994  0.00  0.00    +0.119 C 
BRANCH  19  20
ATOM     20  N   UNL     1     108.816  82.958 114.332  0.00  0.00    -0.302 NA
ATOM     21  C   UNL     1     110.343  82.925 114.441  0.00  0.00    +0.066 C 
ATOM     22  C   UNL     1     110.992  84.153 113.723  0.00  0.00    -0.064 C 
ATOM     23  N   UNL     1     110.434  85.444 114.325  0.00  0.00    +0.379 N 
ATOM     24  C   UNL     1     111.085  86.601 113.692  0.00  0.00    -0.096 C 
ATOM     25  H   UNL     1     110.701  85.456 115.407  0.00  0.00    -0.082 HD
ATOM     26  C   UNL     1     108.916  85.484 114.223  0.00  0.00    -0.064 C 
ATOM     27  C   UNL     1     108.283  84.244 114.913  0.00  0.00    +0.066 C 
ENDBRANCH  19  20
ENDBRANCH  18  19
ENDBRANCH  14  15
ENDBRANCH  12  13
TORSDOF 6
ENDMDL
MODEL 5
REMARK VINA RESULT:      -8.3      2.714     13.051
REMARK  Name = C:\Users\Docking\Desktop\test protocol\1iep_ligandH.pdb
REMARK  8 active torsions:
REMARK  status: ('A' for Active; 'I' for Inactive)
REMARK    1  A    between atoms: _5  and  _11
REMARK    2  A    between atoms: _19  and  _21
REMARK    3  A    between atoms: _22  and  _66
REMARK    4  A    between atoms: _27  and  _30
REMARK    5  A    between atoms: _32  and  _33
REMARK    6  A    between atoms: _38  and  _43
REMARK    7  A    between atoms: _43  and  _46
REMARK    8  A    between atoms: _53  and  _55
REMARK                            x       y       z     vdW  Elec       q    Type
REMARK                         _______ _______ _______ _____ _____    ______ ____
ROOT
ATOM     10  C   UNL     1      93.403  86.869  84.364  0.00  0.00    +0.038 A 
ATOM     11  C   UNL     1      92.790  87.978  85.000  0.00  0.00    +0.047 A 
ATOM     12  C   UNL     1      91.568  87.821  85.774  0.00  0.00    +0.035 A 
ATOM     32  C   UNL     1      90.999  86.518  85.880  0.00  0.00    +0.024 A 
ATOM     33  C   UNL     1      91.608  85.380  85.238  0.00  0.00    +0.007 A 
ATOM     34  C   UNL     1      92.812  85.529  84.472  0.00  0.00    -0.029 A 
ATOM     35  C   UNL     1      93.418  84.275  83.800  0.00  0.00    +0.045 C 
ENDROOT
BRANCH  10   9
ATOM      4  C   UNL     1      98.183  87.129  84.017  0.00  0.00    +0.077 A 
ATOM      5  C   UNL     1      98.359  86.854  85.414  0.00  0.00    +0.048 A 
ATOM      6  C   UNL     1      97.193  86.659  86.188  0.00  0.00    +0.116 A 
ATOM      7  N   UNL     1      95.950  86.735  85.599  0.00  0.00    -0.223 NA
ATOM      8  C   UNL     1      95.816  87.004  84.249  0.00  0.00    +0.220 A 
ATOM      9  N   UNL     1      94.576  87.077  83.634  0.00  0.00    -0.283 N 
ATOM     36  H   UNL     1      94.519  87.285  82.637  0.00  0.00    +0.155 HD
ATOM     37  N   UNL     1      96.914  87.196  83.488  0.00  0.00    -0.214 NA
BRANCH   4   3
ATOM      1  C   UNL     1     101.710  87.046  82.326  0.00  0.00    +0.020 A 
ATOM      2  C   UNL     1     100.648  86.797  83.275  0.00  0.00    +0.013 A 
ATOM      3  C   UNL     1      99.318  87.356  83.067  0.00  0.00    +0.019 A 
ATOM     38  C   UNL     1      99.093  88.167  81.880  0.00  0.00    +0.120 A 
ATOM     39  N   UNL     1     100.134  88.391  80.985  0.00  0.00    -0.263 NA
ATOM     40  C   UNL     1     101.419  87.860  81.175  0.00  0.00    +0.111 A 
ENDBRANCH   4   3
ENDBRANCH  10   9
BRANCH  12  13
ATOM     13  N   UNL     1      90.896  88.911  86.436  0.00  0.00    -0.281 N 
ATOM     14  C   UNL     1      89.988  89.806  85.894  0.00  0.00    +0.248 C 
ATOM     30  O   UNL     1      89.775  89.937  84.698  0.00  0.00    -0.270 OA
ATOM     31  H   UNL     1      91.117  89.039  87.423  0.00  0.00    +0.155 HD
BRANCH  14  15
ATOM     15  C   UNL     1      89.213  90.694  86.814  0.00  0.00    +0.037 A 
ATOM     16  C   UNL     1      89.670  92.052  87.122  0.00  0.00    +0.013 A 
ATOM     17  C   UNL     1      88.913  92.881  88.026  0.00  0.00    +0.005 A 
ATOM     18  C   UNL     1      87.690  92.355  88.627  0.00  0.00    -0.033 A 
ATOM     28  C   UNL     1      87.257  91.007  88.299  0.00  0.00    +0.005 A 
ATOM     29  C   UNL     1      87.997  90.190  87.415  0.00  0.00    +0.013 A 
BRANCH  18  19
ATOM     19  C   UNL     1      86.831  93.162  89.618  0.00  0.00    +0.119 C 
BRANCH  19  20
ATOM     20  N   UNL     1      85.943  94.220  89.050  0.00  0.00    -0.302 NA
ATOM     21  C   UNL     1      85.492  93.887  87.625  0.00  0.00    +0.066 C 
ATOM     22  C   UNL     1      84.546  94.994  87.055  0.00  0.00    -0.064 C 
ATOM     23  N   UNL     1      85.263  96.344  87.093  0.00  0.00    +0.379 N 
ATOM     24  C   UNL     1      84.399  97.376  86.504  0.00  0.00    -0.096 C 
ATOM     25  H   UNL     1      86.174  96.261  86.456  0.00  0.00    -0.082 HD
ATOM     26  C   UNL     1      85.718  96.682  88.506  0.00  0.00    -0.064 C 
ATOM     27  C   UNL     1      86.634  95.562  89.075  0.00  0.00    +0.066 C 
ENDBRANCH  19  20
ENDBRANCH  18  19
ENDBRANCH  14  15
ENDBRANCH  12  13
TORSDOF 6
ENDMDL
