MODEL 1
REMARK VINA RESULT:      -9.1      0.000      0.000
REMARK  Name = C:\Users\Docking\Desktop\test protocol\1iep_ligandH.pdb
REMARK  8 active torsions:
REMARK  status: ('A' for Active; 'I' for Inactive)
REMARK    1  A    between atoms: _5  and  _11
REMARK    2  A    between atoms: _19  and  _21
REMARK    3  A    between atoms: _22  and  _66
REMARK    4  A    between atoms: _27  and  _30
REMARK    5  A    between atoms: _32  and  _33
REMARK    6  A    between atoms: _38  and  _43
REMARK    7  A    between atoms: _43  and  _46
REMARK    8  A    between atoms: _53  and  _55
REMARK                            x       y       z     vdW  Elec       q    Type
REMARK                         _______ _______ _______ _____ _____    ______ ____
ROOT
ATOM     10  C   UNL     1      95.480  88.647  83.689  0.00  0.00    +0.038 A 
ATOM     11  C   UNL     1      94.907  87.419  84.108  0.00  0.00    +0.047 A 
ATOM     12  C   UNL     1      93.666  87.387  84.867  0.00  0.00    +0.035 A 
ATOM     32  C   UNL     1      93.033  88.626  85.179  0.00  0.00    +0.024 A 
ATOM     33  C   UNL     1      93.602  89.883  84.761  0.00  0.00    +0.007 A 
ATOM     34  C   UNL     1      94.827  89.921  84.015  0.00  0.00    -0.029 A 
ATOM     35  C   UNL     1      95.394  91.298  83.599  0.00  0.00    +0.045 C 
ENDROOT
BRANCH  10   9
ATOM      4  C   UNL     1     100.271  88.579  83.422  0.00  0.00    +0.077 A 
ATOM      5  C   UNL     1     100.411  88.631  84.849  0.00  0.00    +0.048 A 
ATOM      6  C   UNL     1      99.225  88.682  85.615  0.00  0.00    +0.116 A 
ATOM      7  N   UNL     1      97.996  88.679  84.991  0.00  0.00    -0.223 NA
ATOM      8  C   UNL     1      97.897  88.630  83.612  0.00  0.00    +0.220 A 
ATOM      9  N   UNL     1      96.672  88.619  82.963  0.00  0.00    -0.283 N 
ATOM     36  H   UNL     1      96.642  88.589  81.944  0.00  0.00    +0.155 HD
ATOM     37  N   UNL     1      99.015  88.583  82.858  0.00  0.00    -0.214 NA
BRANCH   4   3
ATOM      1  C   UNL     1     103.711  87.691  81.786  0.00  0.00    +0.020 A 
ATOM      2  C   UNL     1     102.619  87.715  82.731  0.00  0.00    +0.013 A 
ATOM      3  C   UNL     1     101.431  88.519  82.477  0.00  0.00    +0.019 A 
ATOM     38  C   UNL     1     101.378  89.294  81.246  0.00  0.00    +0.120 A 
ATOM     39  N   UNL     1     102.446  89.252  80.355  0.00  0.00    -0.263 NA
ATOM     40  C   UNL     1     103.595  88.483  80.590  0.00  0.00    +0.111 A 
ENDBRANCH   4   3
ENDBRANCH  10   9
BRANCH  12  13
ATOM     13  N   UNL     1      93.042  86.171  85.327  0.00  0.00    -0.281 N 
ATOM     14  C   UNL     1      92.551  85.125  84.563  0.00  0.00    +0.248 C 
ATOM     30  O   UNL     1      92.380  85.172  83.354  0.00  0.00    -0.270 OA
ATOM     31  H   UNL     1      92.952  86.070  86.338  0.00  0.00    +0.155 HD
BRANCH  14  15
ATOM     15  C   UNL     1      92.183  83.846  85.243  0.00  0.00    +0.037 A 
ATOM     16  C   UNL     1      93.203  82.986  85.850  0.00  0.00    +0.013 A 
ATOM     17  C   UNL     1      92.822  81.749  86.484  0.00  0.00    +0.005 A 
ATOM     18  C   UNL     1      91.413  81.365  86.517  0.00  0.00    -0.033 A 
ATOM     28  C   UNL     1      90.422  82.239  85.912  0.00  0.00    +0.005 A 
ATOM     29  C   UNL     1      90.791  83.452  85.288  0.00  0.00    +0.013 A 
BRANCH  18  19
ATOM     19  C   UNL     1      90.919  80.053  87.154  0.00  0.00    +0.119 C 
BRANCH  19  20
ATOM     20  N   UNL     1      89.706  79.418  86.558  0.00  0.00    -0.302 NA
ATOM     21  C   UNL     1      88.618  79.162  87.604  0.00  0.00    +0.066 C 
ATOM     22  C   UNL     1      87.348  78.518  86.959  0.00  0.00    -0.064 C 
ATOM     23  N   UNL     1      87.740  77.217  86.256  0.00  0.00    +0.379 N 
ATOM     24  C   UNL     1      86.539  76.579  85.698  0.00  0.00    -0.096 C 
ATOM     25  H   UNL     1      88.161  76.530  87.027  0.00  0.00    -0.082 HD
ATOM     26  C   UNL     1      88.824  77.462  85.216  0.00  0.00    -0.064 C 
ATOM     27  C   UNL     1      90.070  78.129  85.862  0.00  0.00    +0.066 C 
ENDBRANCH  19  20
ENDBRANCH  18  19
ENDBRANCH  14  15
ENDBRANCH  12  13
TORSDOF 6
ENDMDL
MODEL 2
REMARK VINA RESULT:      -9.0      1.488      2.027
REMARK  Name = C:\Users\Docking\Desktop\test protocol\1iep_ligandH.pdb
REMARK  8 active torsions:
REMARK  status: ('A' for Active; 'I' for Inactive)
REMARK    1  A    between atoms: _5  and  _11
REMARK    2  A    between atoms: _19  and  _21
REMARK    3  A    between atoms: _22  and  _66
REMARK    4  A    between atoms: _27  and  _30
REMARK    5  A    between atoms: _32  and  _33
REMARK    6  A    between atoms: _38  and  _43
REMARK    7  A    between atoms: _43  and  _46
REMARK    8  A    between atoms: _53  and  _55
REMARK                            x       y       z     vdW  Elec       q    Type
REMARK                         _______ _______ _______ _____ _____    ______ ____
ROOT
ATOM     10  C   UNL     1      94.653  87.934  84.041  0.00  0.00    +0.038 A 
ATOM     11  C   UNL     1      94.176  86.627  84.319  0.00  0.00    +0.047 A 
ATOM     12  C   UNL     1      92.939  86.419  85.056  0.00  0.00    +0.035 A 
ATOM     32  C   UNL     1      92.211  87.564  85.491  0.00  0.00    +0.024 A 
ATOM     33  C   UNL     1      92.681  88.899  85.217  0.00  0.00    +0.007 A 
ATOM     34  C   UNL     1      93.902  89.111  84.493  0.00  0.00    -0.029 A 
ATOM     35  C   UNL     1      94.361  90.565  84.234  0.00  0.00    +0.045 C 
ENDROOT
BRANCH  10   9
ATOM      4  C   UNL     1      99.435  88.285  83.826  0.00  0.00    +0.077 A 
ATOM      5  C   UNL     1      99.564  88.206  85.253  0.00  0.00    +0.048 A 
ATOM      6  C   UNL     1      98.375  88.082  86.006  0.00  0.00    +0.116 A 
ATOM      7  N   UNL     1      97.153  88.042  85.369  0.00  0.00    -0.223 NA
ATOM      8  C   UNL     1      97.064  88.122  83.992  0.00  0.00    +0.220 A 
ATOM      9  N   UNL     1      95.847  88.076  83.330  0.00  0.00    -0.283 N 
ATOM     36  H   UNL     1      95.822  88.146  82.313  0.00  0.00    +0.155 HD
ATOM     37  N   UNL     1      98.185  88.242  83.250  0.00  0.00    -0.214 NA
BRANCH   4   3
ATOM      1  C   UNL     1     101.718  89.334  80.828  0.00  0.00    +0.020 A 
ATOM      2  C   UNL     1     100.566  89.243  81.695  0.00  0.00    +0.013 A 
ATOM      3  C   UNL     1     100.599  88.415  82.894  0.00  0.00    +0.019 A 
ATOM     38  C   UNL     1     101.823  87.685  83.189  0.00  0.00    +0.120 A 
ATOM     39  N   UNL     1     102.916  87.791  82.335  0.00  0.00    -0.263 NA
ATOM     40  C   UNL     1     102.895  88.584  81.178  0.00  0.00    +0.111 A 
ENDBRANCH   4   3
ENDBRANCH  10   9
BRANCH  12  13
ATOM     13  N   UNL     1      92.410  85.116  85.375  0.00  0.00    -0.281 N 
ATOM     14  C   UNL     1      92.971  83.879  85.103  0.00  0.00    +0.248 C 
ATOM     30  O   UNL     1      93.915  83.699  84.349  0.00  0.00    -0.270 OA
ATOM     31  H   UNL     1      91.513  85.104  85.861  0.00  0.00    +0.155 HD
BRANCH  14  15
ATOM     15  C   UNL     1      92.388  82.664  85.750  0.00  0.00    +0.037 A 
ATOM     16  C   UNL     1      90.951  82.385  85.689  0.00  0.00    +0.013 A 
ATOM     17  C   UNL     1      90.414  81.215  86.337  0.00  0.00    +0.005 A 
ATOM     18  C   UNL     1      91.315  80.313  87.050  0.00  0.00    -0.033 A 
ATOM     28  C   UNL     1      92.737  80.611  87.090  0.00  0.00    +0.005 A 
ATOM     29  C   UNL     1      93.268  81.758  86.458  0.00  0.00    +0.013 A 
BRANCH  18  19
ATOM     19  C   UNL     1      90.826  79.053  87.788  0.00  0.00    +0.119 C 
BRANCH  19  20
ATOM     20  N   UNL     1      90.609  77.823  86.969  0.00  0.00    -0.302 NA
ATOM     21  C   UNL     1      89.121  77.542  86.738  0.00  0.00    +0.066 C 
ATOM     22  C   UNL     1      88.913  76.264  85.861  0.00  0.00    -0.064 C 
ATOM     23  N   UNL     1      89.592  75.070  86.535  0.00  0.00    +0.379 N 
ATOM     24  C   UNL     1      89.349  73.856  85.743  0.00  0.00    -0.096 C 
ATOM     25  H   UNL     1      89.111  74.926  87.531  0.00  0.00    -0.082 HD
ATOM     26  C   UNL     1      91.070  75.342  86.772  0.00  0.00    -0.064 C 
ATOM     27  C   UNL     1      91.267  76.630  87.619  0.00  0.00    +0.066 C 
ENDBRANCH  19  20
ENDBRANCH  18  19
ENDBRANCH  14  15
ENDBRANCH  12  13
TORSDOF 6
ENDMDL
MODEL 3
REMARK VINA RESULT:      -8.5      7.636     12.021
REMARK  Name = C:\Users\Docking\Desktop\test protocol\1iep_ligandH.pdb
REMARK  8 active torsions:
REMARK  status: ('A' for Active; 'I' for Inactive)
REMARK    1  A    between atoms: _5  and  _11
REMARK    2  A    between atoms: _19  and  _21
REMARK    3  A    between atoms: _22  and  _66
REMARK    4  A    between atoms: _27  and  _30
REMARK    5  A    between atoms: _32  and  _33
REMARK    6  A    between atoms: _38  and  _43
REMARK    7  A    between atoms: _43  and  _46
REMARK    8  A    between atoms: _53  and  _55
REMARK                            x       y       z     vdW  Elec       q    Type
REMARK                         _______ _______ _______ _____ _____    ______ ____
ROOT
ATOM     10  C   UNL     1      91.767  88.299  86.076  0.00  0.00    +0.038 A 
ATOM     11  C   UNL     1      91.329  89.379  86.884  0.00  0.00    +0.047 A 
ATOM     12  C   UNL     1      89.943  89.819  86.866  0.00  0.00    +0.035 A 
ATOM     32  C   UNL     1      89.028  89.134  86.013  0.00  0.00    +0.024 A 
ATOM     33  C   UNL     1      89.456  88.035  85.184  0.00  0.00    +0.007 A 
ATOM     34  C   UNL     1      90.823  87.598  85.196  0.00  0.00    -0.029 A 
ATOM     35  C   UNL     1      91.227  86.418  84.282  0.00  0.00    +0.045 C 
ENDROOT
BRANCH  10   9
ATOM      4  C   UNL     1      96.353  88.741  84.731  0.00  0.00    +0.077 A 
ATOM      5  C   UNL     1      96.044  89.803  83.818  0.00  0.00    +0.048 A 
ATOM      6  C   UNL     1      94.692  90.201  83.718  0.00  0.00    +0.116 A 
ATOM      7  N   UNL     1      93.729  89.577  84.481  0.00  0.00    -0.223 NA
ATOM      8  C   UNL     1      94.060  88.554  85.351  0.00  0.00    +0.220 A 
ATOM      9  N   UNL     1      93.109  87.918  86.133  0.00  0.00    -0.283 N 
ATOM     36  H   UNL     1      93.393  87.163  86.757  0.00  0.00    +0.155 HD
ATOM     37  N   UNL     1      95.344  88.155  85.463  0.00  0.00    -0.214 NA
BRANCH   4   3
ATOM      1  C   UNL     1      99.440  86.877  86.248  0.00  0.00    +0.020 A 
ATOM      2  C   UNL     1      98.089  87.363  86.082  0.00  0.00    +0.013 A 
ATOM      3  C   UNL     1      97.736  88.211  84.951  0.00  0.00    +0.019 A 
ATOM     38  C   UNL     1      98.781  88.551  83.997  0.00  0.00    +0.120 A 
ATOM     39  N   UNL     1     100.073  88.070  84.183  0.00  0.00    -0.263 NA
ATOM     40  C   UNL     1     100.425  87.254  85.269  0.00  0.00    +0.111 A 
ENDBRANCH   4   3
ENDBRANCH  10   9
BRANCH  12  13
ATOM     13  N   UNL     1      89.442  90.914  87.658  0.00  0.00    -0.281 N 
ATOM     14  C   UNL     1      89.620  92.271  87.445  0.00  0.00    +0.248 C 
ATOM     30  O   UNL     1      90.421  92.747  86.654  0.00  0.00    -0.270 OA
ATOM     31  H   UNL     1      88.889  90.658  88.477  0.00  0.00    +0.155 HD
BRANCH  14  15
ATOM     15  C   UNL     1      88.800  93.240  88.234  0.00  0.00    +0.037 A 
ATOM     16  C   UNL     1      88.219  92.868  89.526  0.00  0.00    +0.013 A 
ATOM     17  C   UNL     1      87.418  93.816  90.259  0.00  0.00    +0.005 A 
ATOM     18  C   UNL     1      87.195  95.148  89.701  0.00  0.00    -0.033 A 
ATOM     28  C   UNL     1      87.788  95.492  88.419  0.00  0.00    +0.005 A 
ATOM     29  C   UNL     1      88.573  94.565  87.697  0.00  0.00    +0.013 A 
BRANCH  18  19
ATOM     19  C   UNL     1      86.336  96.216  90.403  0.00  0.00    +0.119 C 
BRANCH  19  20
ATOM     20  N   UNL     1      86.759  97.641  90.252  0.00  0.00    -0.302 NA
ATOM     21  C   UNL     1      87.555  98.135  91.463  0.00  0.00    +0.066 C 
ATOM     22  C   UNL     1      88.008  99.620  91.278  0.00  0.00    -0.064 C 
ATOM     23  N   UNL     1      86.779 100.500  91.042  0.00  0.00    +0.379 N 
ATOM     24  C   UNL     1      87.197 101.905  90.926  0.00  0.00    -0.096 C 
ATOM     25  H   UNL     1      86.125 100.414  91.941  0.00  0.00    -0.082 HD
ATOM     26  C   UNL     1      85.980 100.013  89.842  0.00  0.00    -0.064 C 
ATOM     27  C   UNL     1      85.560  98.528  90.022  0.00  0.00    +0.066 C 
ENDBRANCH  19  20
ENDBRANCH  18  19
ENDBRANCH  14  15
ENDBRANCH  12  13
TORSDOF 6
ENDMDL
MODEL 4
REMARK VINA RESULT:      -8.1      2.776     13.952
REMARK  Name = C:\Users\Docking\Desktop\test protocol\1iep_ligandH.pdb
REMARK  8 active torsions:
REMARK  status: ('A' for Active; 'I' for Inactive)
REMARK    1  A    between atoms: _5  and  _11
REMARK    2  A    between atoms: _19  and  _21
REMARK    3  A    between atoms: _22  and  _66
REMARK    4  A    between atoms: _27  and  _30
REMARK    5  A    between atoms: _32  and  _33
REMARK    6  A    between atoms: _38  and  _43
REMARK    7  A    between atoms: _43  and  _46
REMARK    8  A    between atoms: _53  and  _55
REMARK                            x       y       z     vdW  Elec       q    Type
REMARK                         _______ _______ _______ _____ _____    ______ ____
ROOT
ATOM     10  C   UNL     1      90.410  79.492  87.223  0.00  0.00    +0.038 A 
ATOM     11  C   UNL     1      91.089  80.466  86.447  0.00  0.00    +0.047 A 
ATOM     12  C   UNL     1      92.504  80.737  86.648  0.00  0.00    +0.035 A 
ATOM     32  C   UNL     1      93.198  79.995  87.648  0.00  0.00    +0.024 A 
ATOM     33  C   UNL     1      92.524  79.002  88.447  0.00  0.00    +0.007 A 
ATOM     34  C   UNL     1      91.127  78.733  88.254  0.00  0.00    -0.029 A 
ATOM     35  C   UNL     1      90.455  77.662  89.144  0.00  0.00    +0.045 C 
ENDROOT
BRANCH  10   9
ATOM      4  C   UNL     1      85.770  80.298  88.148  0.00  0.00    +0.077 A 
ATOM      5  C   UNL     1      86.079  81.213  89.208  0.00  0.00    +0.048 A 
ATOM      6  C   UNL     1      87.445  81.444  89.489  0.00  0.00    +0.116 A 
ATOM      7  N   UNL     1      88.420  80.802  88.757  0.00  0.00    -0.223 NA
ATOM      8  C   UNL     1      88.087  79.924  87.742  0.00  0.00    +0.220 A 
ATOM      9  N   UNL     1      89.051  79.273  86.987  0.00  0.00    -0.283 N 
ATOM     36  H   UNL     1      88.765  78.627  86.252  0.00  0.00    +0.155 HD
ATOM     37  N   UNL     1      86.790  79.685  87.455  0.00  0.00    -0.214 NA
BRANCH   4   3
ATOM      1  C   UNL     1      82.677  78.442  86.635  0.00  0.00    +0.020 A 
ATOM      2  C   UNL     1      84.041  78.728  87.015  0.00  0.00    +0.013 A 
ATOM      3  C   UNL     1      84.374  79.953  87.730  0.00  0.00    +0.019 A 
ATOM     38  C   UNL     1      83.295  80.876  88.048  0.00  0.00    +0.120 A 
ATOM     39  N   UNL     1      81.991  80.575  87.668  0.00  0.00    -0.263 NA
ATOM     40  C   UNL     1      81.658  79.399  86.978  0.00  0.00    +0.111 A 
ENDBRANCH   4   3
ENDBRANCH  10   9
BRANCH  12  13
ATOM     13  N   UNL     1      93.243  81.720  85.896  0.00  0.00    -0.281 N 
ATOM     14  C   UNL     1      92.769  82.578  84.917  0.00  0.00    +0.248 C 
ATOM     30  O   UNL     1      91.672  82.482  84.387  0.00  0.00    -0.270 OA
ATOM     31  H   UNL     1      94.238  81.792  86.111  0.00  0.00    +0.155 HD
BRANCH  14  15
ATOM     15  C   UNL     1      93.644  83.695  84.450  0.00  0.00    +0.037 A 
ATOM     16  C   UNL     1      94.989  83.440  83.927  0.00  0.00    +0.013 A 
ATOM     17  C   UNL     1      95.819  84.538  83.499  0.00  0.00    +0.005 A 
ATOM     18  C   UNL     1      95.306  85.902  83.591  0.00  0.00    -0.033 A 
ATOM     28  C   UNL     1      93.966  86.127  84.109  0.00  0.00    +0.005 A 
ATOM     29  C   UNL     1      93.150  85.053  84.531  0.00  0.00    +0.013 A 
BRANCH  18  19
ATOM     19  C   UNL     1      96.130  87.136  83.177  0.00  0.00    +0.119 C 
BRANCH  19  20
ATOM     20  N   UNL     1      97.497  87.272  83.762  0.00  0.00    -0.302 NA
ATOM     21  C   UNL     1      97.453  87.584  85.261  0.00  0.00    +0.066 C 
ATOM     22  C   UNL     1      98.892  87.701  85.861  0.00  0.00    -0.064 C 
ATOM     23  N   UNL     1      99.670  88.780  85.106  0.00  0.00    +0.379 N 
ATOM     24  C   UNL     1     101.004  88.933  85.705  0.00  0.00    -0.096 C 
ATOM     25  H   UNL     1      99.127  89.744  85.239  0.00  0.00    -0.082 HD
ATOM     26  C   UNL     1      99.717  88.479  83.615  0.00  0.00    -0.064 C 
ATOM     27  C   UNL     1      98.282  88.335  83.034  0.00  0.00    +0.066 C 
ENDBRANCH  19  20
ENDBRANCH  18  19
ENDBRANCH  14  15
ENDBRANCH  12  13
TORSDOF 6
ENDMDL
MODEL 5
REMARK VINA RESULT:      -8.1     30.172     32.013
REMARK  Name = C:\Users\Docking\Desktop\test protocol\1iep_ligandH.pdb
REMARK  8 active torsions:
REMARK  status: ('A' for Active; 'I' for Inactive)
REMARK    1  A    between atoms: _5  and  _11
REMARK    2  A    between atoms: _19  and  _21
REMARK    3  A    between atoms: _22  and  _66
REMARK    4  A    between atoms: _27  and  _30
REMARK    5  A    between atoms: _32  and  _33
REMARK    6  A    between atoms: _38  and  _43
REMARK    7  A    between atoms: _43  and  _46
REMARK    8  A    between atoms: _53  and  _55
REMARK                            x       y       z     vdW  Elec       q    Type
REMARK                         _______ _______ _______ _____ _____    ______ ____
ROOT
ATOM     10  C   UNL     1     106.945  82.594 114.593  0.00  0.00    +0.038 A 
ATOM     11  C   UNL     1     105.631  82.515 114.064  0.00  0.00    +0.047 A 
ATOM     12  C   UNL     1     105.220  81.394 113.234  0.00  0.00    +0.035 A 
ATOM     32  C   UNL     1     106.173  80.369 112.964  0.00  0.00    +0.024 A 
ATOM     33  C   UNL     1     107.513  80.434 113.491  0.00  0.00    +0.007 A 
ATOM     34  C   UNL     1     107.924  81.539 114.309  0.00  0.00    -0.029 A 
ATOM     35  C   UNL     1     109.376  81.560 114.842  0.00  0.00    +0.045 C 
ENDROOT
BRANCH  10   9
ATOM      4  C   UNL     1     107.342  84.789 118.842  0.00  0.00    +0.077 A 
ATOM      5  C   UNL     1     106.801  83.660 119.543  0.00  0.00    +0.048 A 
ATOM      6  C   UNL     1     106.426  82.537 118.771  0.00  0.00    +0.116 A 
ATOM      7  N   UNL     1     106.585  82.553 117.403  0.00  0.00    -0.223 NA
ATOM      8  C   UNL     1     107.109  83.659 116.759  0.00  0.00    +0.220 A 
ATOM      9  N   UNL     1     107.285  83.694 115.384  0.00  0.00    -0.283 N 
ATOM     36  H   UNL     1     107.668  84.531 114.946  0.00  0.00    +0.155 HD
ATOM     37  N   UNL     1     107.473  84.744 117.472  0.00  0.00    -0.214 NA
BRANCH   4   3
ATOM      1  C   UNL     1     107.696  87.733 121.394  0.00  0.00    +0.020 A 
ATOM      2  C   UNL     1     107.230  86.509 120.783  0.00  0.00    +0.013 A 
ATOM      3  C   UNL     1     107.788  86.049 119.518  0.00  0.00    +0.019 A 
ATOM     38  C   UNL     1     108.825  86.856 118.892  0.00  0.00    +0.120 A 
ATOM     39  N   UNL     1     109.253  88.030 119.503  0.00  0.00    -0.263 NA
ATOM     40  C   UNL     1     108.722  88.484 120.720  0.00  0.00    +0.111 A 
ENDBRANCH   4   3
ENDBRANCH  10   9
BRANCH  12  13
ATOM     13  N   UNL     1     103.902  81.263 112.664  0.00  0.00    -0.281 N 
ATOM     14  C   UNL     1     103.385  81.916 111.557  0.00  0.00    +0.248 C 
ATOM     30  O   UNL     1     103.910  82.876 111.013  0.00  0.00    -0.270 OA
ATOM     31  H   UNL     1     103.274  80.610 113.133  0.00  0.00    +0.155 HD
BRANCH  14  15
ATOM     15  C   UNL     1     102.090  81.443 110.979  0.00  0.00    +0.037 A 
ATOM     16  C   UNL     1     101.130  82.383 110.395  0.00  0.00    +0.013 A 
ATOM     17  C   UNL     1      99.881  81.902 109.860  0.00  0.00    +0.005 A 
ATOM     18  C   UNL     1      99.585  80.472 109.906  0.00  0.00    -0.033 A 
ATOM     28  C   UNL     1     100.558  79.561 110.487  0.00  0.00    +0.005 A 
ATOM     29  C   UNL     1     101.783  80.029 111.013  0.00  0.00    +0.013 A 
BRANCH  18  19
ATOM     19  C   UNL     1      98.268  79.872 109.378  0.00  0.00    +0.119 C 
BRANCH  19  20
ATOM     20  N   UNL     1      97.116  79.813 110.326  0.00  0.00    -0.302 NA
ATOM     21  C   UNL     1      97.089  81.016 111.273  0.00  0.00    +0.066 C 
ATOM     22  C   UNL     1      95.864  80.949 112.242  0.00  0.00    -0.064 C 
ATOM     23  N   UNL     1      95.912  79.639 113.031  0.00  0.00    +0.379 N 
ATOM     24  C   UNL     1      94.793  79.600 113.985  0.00  0.00    -0.096 C 
ATOM     25  H   UNL     1      96.858  79.633 113.619  0.00  0.00    -0.082 HD
ATOM     26  C   UNL     1      95.941  78.438 112.096  0.00  0.00    -0.064 C 
ATOM     27  C   UNL     1      97.146  78.529 111.118  0.00  0.00    +0.066 C 
ENDBRANCH  19  20
ENDBRANCH  18  19
ENDBRANCH  14  15
ENDBRANCH  12  13
TORSDOF 6
ENDMDL
