MODEL 1
REMARK VINA RESULT:      -8.1      0.000      0.000
REMARK  Name = C:\Users\Docking\Desktop\test protocol\1iep_ligandH.pdb
REMARK  8 active torsions:
REMARK  status: ('A' for Active; 'I' for Inactive)
REMARK    1  A    between atoms: _5  and  _11
REMARK    2  A    between atoms: _19  and  _21
REMARK    3  A    between atoms: _22  and  _66
REMARK    4  A    between atoms: _27  and  _30
REMARK    5  A    between atoms: _32  and  _33
REMARK    6  A    between atoms: _38  and  _43
REMARK    7  A    between atoms: _43  and  _46
REMARK    8  A    between atoms: _53  and  _55
REMARK                            x       y       z     vdW  Elec       q    Type
REMARK                         _______ _______ _______ _____ _____    ______ ____
ROOT
ATOM     10  C   UNL     1      67.841  31.805 102.876  0.00  0.00    +0.038 A 
ATOM     11  C   UNL     1      68.881  32.055 101.945  0.00  0.00    +0.047 A 
ATOM     12  C   UNL     1      69.698  30.972 101.419  0.00  0.00    +0.035 A 
ATOM     32  C   UNL     1      69.425  29.645 101.861  0.00  0.00    +0.024 A 
ATOM     33  C   UNL     1      68.371  29.372 102.807  0.00  0.00    +0.007 A 
ATOM     34  C   UNL     1      67.564  30.437 103.331  0.00  0.00    -0.029 A 
ATOM     35  C   UNL     1      66.453  30.087 104.347  0.00  0.00    +0.045 C 
ENDROOT
BRANCH  10   9
ATOM      4  C   UNL     1      67.208  35.580 105.771  0.00  0.00    +0.077 A 
ATOM      5  C   UNL     1      68.473  35.372 106.416  0.00  0.00    +0.048 A 
ATOM      6  C   UNL     1      69.253  34.278 105.978  0.00  0.00    +0.116 A 
ATOM      7  N   UNL     1      68.792  33.460 104.969  0.00  0.00    -0.223 NA
ATOM      8  C   UNL     1      67.567  33.687 104.369  0.00  0.00    +0.220 A 
ATOM      9  N   UNL     1      67.088  32.882 103.348  0.00  0.00    -0.283 N 
ATOM     36  H   UNL     1      66.176  33.079 102.937  0.00  0.00    +0.155 HD
ATOM     37  N   UNL     1      66.803  34.725 104.771  0.00  0.00    -0.214 NA
BRANCH   4   3
ATOM      1  C   UNL     1      65.781  39.021 106.964  0.00  0.00    +0.020 A 
ATOM      2  C   UNL     1      66.727  37.977 106.642  0.00  0.00    +0.013 A 
ATOM      3  C   UNL     1      66.272  36.695 106.120  0.00  0.00    +0.019 A 
ATOM     38  C   UNL     1      64.842  36.500 105.933  0.00  0.00    +0.120 A 
ATOM     39  N   UNL     1      63.955  37.523 106.253  0.00  0.00    -0.263 NA
ATOM     40  C   UNL     1      64.381  38.760 106.757  0.00  0.00    +0.111 A 
ENDBRANCH   4   3
ENDBRANCH  10   9
BRANCH  12  13
ATOM     13  N   UNL     1      70.773  31.167 100.479  0.00  0.00    -0.281 N 
ATOM     14  C   UNL     1      72.134  31.201 100.736  0.00  0.00    +0.248 C 
ATOM     30  O   UNL     1      72.624  31.282 101.853  0.00  0.00    -0.270 OA
ATOM     31  H   UNL     1      70.498  31.296  99.505  0.00  0.00    +0.155 HD
BRANCH  14  15
ATOM     15  C   UNL     1      73.088  31.152  99.587  0.00  0.00    +0.037 A 
ATOM     16  C   UNL     1      73.144  29.991  98.695  0.00  0.00    +0.013 A 
ATOM     17  C   UNL     1      74.085  29.963  97.603  0.00  0.00    +0.005 A 
ATOM     18  C   UNL     1      74.978  31.101  97.397  0.00  0.00    -0.033 A 
ATOM     28  C   UNL     1      74.897  32.242  98.294  0.00  0.00    +0.005 A 
ATOM     29  C   UNL     1      73.977  32.273  99.366  0.00  0.00    +0.013 A 
BRANCH  18  19
ATOM     19  C   UNL     1      76.028  31.147  96.272  0.00  0.00    +0.119 C 
BRANCH  19  20
ATOM     20  N   UNL     1      75.613  31.761  94.975  0.00  0.00    -0.302 NA
ATOM     21  C   UNL     1      75.024  33.162  95.164  0.00  0.00    +0.066 C 
ATOM     22  C   UNL     1      74.617  33.798  93.796  0.00  0.00    -0.064 C 
ATOM     23  N   UNL     1      73.617  32.882  93.088  0.00  0.00    +0.379 N 
ATOM     24  C   UNL     1      73.187  33.505  91.828  0.00  0.00    -0.096 C 
ATOM     25  H   UNL     1      72.720  32.791  93.744  0.00  0.00    -0.082 HD
ATOM     26  C   UNL     1      74.193  31.486  92.898  0.00  0.00    -0.064 C 
ATOM     27  C   UNL     1      74.622  30.875  94.261  0.00  0.00    +0.066 C 
ENDBRANCH  19  20
ENDBRANCH  18  19
ENDBRANCH  14  15
ENDBRANCH  12  13
TORSDOF 6
ENDMDL
MODEL 2
REMARK VINA RESULT:      -7.9     29.511     31.612
REMARK  Name = C:\Users\Docking\Desktop\test protocol\1iep_ligandH.pdb
REMARK  8 active torsions:
REMARK  status: ('A' for Active; 'I' for Inactive)
REMARK    1  A    between atoms: _5  and  _11
REMARK    2  A    between atoms: _19  and  _21
REMARK    3  A    between atoms: _22  and  _66
REMARK    4  A    between atoms: _27  and  _30
REMARK    5  A    between atoms: _32  and  _33
REMARK    6  A    between atoms: _38  and  _43
REMARK    7  A    between atoms: _43  and  _46
REMARK    8  A    between atoms: _53  and  _55
REMARK                            x       y       z     vdW  Elec       q    Type
REMARK                         _______ _______ _______ _____ _____    ______ ____
ROOT
ATOM     10  C   UNL     1      38.703  31.514 105.724  0.00  0.00    +0.038 A 
ATOM     11  C   UNL     1      39.539  30.370 105.656  0.00  0.00    +0.047 A 
ATOM     12  C   UNL     1      38.978  29.032 105.560  0.00  0.00    +0.035 A 
ATOM     32  C   UNL     1      37.559  28.895 105.531  0.00  0.00    +0.024 A 
ATOM     33  C   UNL     1      36.694  30.046 105.599  0.00  0.00    +0.007 A 
ATOM     34  C   UNL     1      37.242  31.369 105.698  0.00  0.00    -0.029 A 
ATOM     35  C   UNL     1      36.267  32.567 105.775  0.00  0.00    +0.045 C 
ENDROOT
BRANCH  10   9
ATOM      4  C   UNL     1      40.319  35.585 103.760  0.00  0.00    +0.077 A 
ATOM      5  C   UNL     1      39.977  35.151 102.436  0.00  0.00    +0.048 A 
ATOM      6  C   UNL     1      39.395  33.871 102.303  0.00  0.00    +0.116 A 
ATOM      7  N   UNL     1      39.174  33.091 103.417  0.00  0.00    -0.223 NA
ATOM      8  C   UNL     1      39.516  33.539 104.680  0.00  0.00    +0.220 A 
ATOM      9  N   UNL     1      39.296  32.775 105.816  0.00  0.00    -0.283 N 
ATOM     36  H   UNL     1      39.569  33.138 106.729  0.00  0.00    +0.155 HD
ATOM     37  N   UNL     1      40.075  34.757 104.834  0.00  0.00    -0.214 NA
BRANCH   4   3
ATOM      1  C   UNL     1      42.758  38.360 105.045  0.00  0.00    +0.020 A 
ATOM      2  C   UNL     1      42.202  37.053 104.777  0.00  0.00    +0.013 A 
ATOM      3  C   UNL     1      40.939  36.913 104.064  0.00  0.00    +0.019 A 
ATOM     38  C   UNL     1      40.258  38.124 103.631  0.00  0.00    +0.120 A 
ATOM     39  N   UNL     1      40.816  39.369 103.905  0.00  0.00    -0.263 NA
ATOM     40  C   UNL     1      42.030  39.516 104.592  0.00  0.00    +0.111 A 
ENDBRANCH   4   3
ENDBRANCH  10   9
BRANCH  12  13
ATOM     13  N   UNL     1      39.777  27.833 105.496  0.00  0.00    -0.281 N 
ATOM     14  C   UNL     1      39.635  26.675 106.242  0.00  0.00    +0.248 C 
ATOM     30  O   UNL     1      38.927  26.573 107.233  0.00  0.00    -0.270 OA
ATOM     31  H   UNL     1      40.540  27.840 104.819  0.00  0.00    +0.155 HD
BRANCH  14  15
ATOM     15  C   UNL     1      40.401  25.457 105.838  0.00  0.00    +0.037 A 
ATOM     16  C   UNL     1      41.255  24.745 106.792  0.00  0.00    +0.013 A 
ATOM     17  C   UNL     1      41.997  23.582 106.371  0.00  0.00    +0.005 A 
ATOM     18  C   UNL     1      41.886  23.125 104.988  0.00  0.00    -0.033 A 
ATOM     28  C   UNL     1      41.028  23.847 104.064  0.00  0.00    +0.005 A 
ATOM     29  C   UNL     1      40.300  24.987 104.473  0.00  0.00    +0.013 A 
BRANCH  18  19
ATOM     19  C   UNL     1      42.658  21.907 104.446  0.00  0.00    +0.119 C 
BRANCH  19  20
ATOM     20  N   UNL     1      42.104  20.554 104.754  0.00  0.00    -0.302 NA
ATOM     21  C   UNL     1      43.172  19.461 104.660  0.00  0.00    +0.066 C 
ATOM     22  C   UNL     1      42.581  18.056 105.007  0.00  0.00    -0.064 C 
ATOM     23  N   UNL     1      41.411  17.752 104.070  0.00  0.00    +0.379 N 
ATOM     24  C   UNL     1      40.890  16.408 104.355  0.00  0.00    -0.096 C 
ATOM     25  H   UNL     1      41.806  17.748 103.027  0.00  0.00    -0.082 HD
ATOM     26  C   UNL     1      40.346  18.836 104.155  0.00  0.00    -0.064 C 
ATOM     27  C   UNL     1      40.950  20.232 103.837  0.00  0.00    +0.066 C 
ENDBRANCH  19  20
ENDBRANCH  18  19
ENDBRANCH  14  15
ENDBRANCH  12  13
TORSDOF 6
ENDMDL
MODEL 3
REMARK VINA RESULT:      -7.9     36.362     39.089
REMARK  Name = C:\Users\Docking\Desktop\test protocol\1iep_ligandH.pdb
REMARK  8 active torsions:
REMARK  status: ('A' for Active; 'I' for Inactive)
REMARK    1  A    between atoms: _5  and  _11
REMARK    2  A    between atoms: _19  and  _21
REMARK    3  A    between atoms: _22  and  _66
REMARK    4  A    between atoms: _27  and  _30
REMARK    5  A    between atoms: _32  and  _33
REMARK    6  A    between atoms: _38  and  _43
REMARK    7  A    between atoms: _43  and  _46
REMARK    8  A    between atoms: _53  and  _55
REMARK                            x       y       z     vdW  Elec       q    Type
REMARK                         _______ _______ _______ _____ _____    ______ ____
ROOT
ATOM     10  C   UNL     1      48.123  11.213  85.917  0.00  0.00    +0.038 A 
ATOM     11  C   UNL     1      47.121  10.617  85.109  0.00  0.00    +0.047 A 
ATOM     12  C   UNL     1      45.709  10.782  85.417  0.00  0.00    +0.035 A 
ATOM     32  C   UNL     1      45.352  11.562  86.555  0.00  0.00    +0.024 A 
ATOM     33  C   UNL     1      46.357  12.174  87.388  0.00  0.00    +0.007 A 
ATOM     34  C   UNL     1      47.752  12.013  87.091  0.00  0.00    -0.029 A 
ATOM     35  C   UNL     1      48.786  12.686  88.022  0.00  0.00    +0.045 C 
ENDROOT
BRANCH  10   9
ATOM      4  C   UNL     1      52.432   9.223  86.632  0.00  0.00    +0.077 A 
ATOM      5  C   UNL     1      51.981   8.525  87.802  0.00  0.00    +0.048 A 
ATOM      6  C   UNL     1      50.635   8.711  88.190  0.00  0.00    +0.116 A 
ATOM      7  N   UNL     1      49.810   9.535  87.455  0.00  0.00    -0.223 NA
ATOM      8  C   UNL     1      50.277  10.195  86.333  0.00  0.00    +0.220 A 
ATOM      9  N   UNL     1      49.463  11.022  85.575  0.00  0.00    -0.283 N 
ATOM     36  H   UNL     1      49.848  11.497  84.759  0.00  0.00    +0.155 HD
ATOM     37  N   UNL     1      51.559  10.035  85.943  0.00  0.00    -0.214 NA
BRANCH   4   3
ATOM      1  C   UNL     1      55.719   9.930  84.634  0.00  0.00    +0.020 A 
ATOM      2  C   UNL     1      54.366  10.068  85.122  0.00  0.00    +0.013 A 
ATOM      3  C   UNL     1      53.825   9.126  86.094  0.00  0.00    +0.019 A 
ATOM     38  C   UNL     1      54.686   8.048  86.557  0.00  0.00    +0.120 A 
ATOM     39  N   UNL     1      55.985   7.940  86.068  0.00  0.00    -0.263 NA
ATOM     40  C   UNL     1      56.516   8.839  85.131  0.00  0.00    +0.111 A 
ENDBRANCH   4   3
ENDBRANCH  10   9
BRANCH  12  13
ATOM     13  N   UNL     1      44.648  10.194  84.637  0.00  0.00    -0.281 N 
ATOM     14  C   UNL     1      44.383  10.372  83.289  0.00  0.00    +0.248 C 
ATOM     30  O   UNL     1      44.893  11.237  82.592  0.00  0.00    -0.270 OA
ATOM     31  H   UNL     1      44.016   9.571  85.140  0.00  0.00    +0.155 HD
BRANCH  14  15
ATOM     15  C   UNL     1      43.396   9.469  82.622  0.00  0.00    +0.037 A 
ATOM     16  C   UNL     1      43.028   8.179  83.211  0.00  0.00    +0.013 A 
ATOM     17  C   UNL     1      42.087   7.319  82.538  0.00  0.00    +0.005 A 
ATOM     18  C   UNL     1      41.506   7.748  81.268  0.00  0.00    -0.033 A 
ATOM     28  C   UNL     1      41.886   9.035  80.709  0.00  0.00    +0.005 A 
ATOM     29  C   UNL     1      42.808   9.880  81.365  0.00  0.00    +0.013 A 
BRANCH  18  19
ATOM     19  C   UNL     1      40.510   6.886  80.470  0.00  0.00    +0.119 C 
BRANCH  19  20
ATOM     20  N   UNL     1      40.739   6.760  79.000  0.00  0.00    -0.302 NA
ATOM     21  C   UNL     1      39.632   7.435  78.186  0.00  0.00    +0.066 C 
ATOM     22  C   UNL     1      39.899   7.314  76.650  0.00  0.00    -0.064 C 
ATOM     23  N   UNL     1      40.025   5.837  76.272  0.00  0.00    +0.379 N 
ATOM     24  C   UNL     1      40.219   5.717  74.820  0.00  0.00    -0.096 C 
ATOM     25  H   UNL     1      39.061   5.339  76.528  0.00  0.00    -0.082 HD
ATOM     26  C   UNL     1      41.123   5.157  77.079  0.00  0.00    -0.064 C 
ATOM     27  C   UNL     1      40.863   5.309  78.604  0.00  0.00    +0.066 C 
ENDBRANCH  19  20
ENDBRANCH  18  19
ENDBRANCH  14  15
ENDBRANCH  12  13
TORSDOF 6
ENDMDL
MODEL 4
REMARK VINA RESULT:      -7.7     36.663     39.171
REMARK  Name = C:\Users\Docking\Desktop\test protocol\1iep_ligandH.pdb
REMARK  8 active torsions:
REMARK  status: ('A' for Active; 'I' for Inactive)
REMARK    1  A    between atoms: _5  and  _11
REMARK    2  A    between atoms: _19  and  _21
REMARK    3  A    between atoms: _22  and  _66
REMARK    4  A    between atoms: _27  and  _30
REMARK    5  A    between atoms: _32  and  _33
REMARK    6  A    between atoms: _38  and  _43
REMARK    7  A    between atoms: _43  and  _46
REMARK    8  A    between atoms: _53  and  _55
REMARK                            x       y       z     vdW  Elec       q    Type
REMARK                         _______ _______ _______ _____ _____    ______ ____
ROOT
ATOM     10  C   UNL     1      46.465  11.647  87.038  0.00  0.00    +0.038 A 
ATOM     11  C   UNL     1      45.485  10.964  86.274  0.00  0.00    +0.047 A 
ATOM     12  C   UNL     1      45.680  10.707  84.855  0.00  0.00    +0.035 A 
ATOM     32  C   UNL     1      46.888  11.157  84.248  0.00  0.00    +0.024 A 
ATOM     33  C   UNL     1      47.895  11.853  85.009  0.00  0.00    +0.007 A 
ATOM     34  C   UNL     1      47.707  12.112  86.408  0.00  0.00    -0.029 A 
ATOM     35  C   UNL     1      48.817  12.869  87.173  0.00  0.00    +0.045 C 
ENDROOT
BRANCH  10   9
ATOM      4  C   UNL     1      46.879  10.424  91.661  0.00  0.00    +0.077 A 
ATOM      5  C   UNL     1      47.612   9.233  91.341  0.00  0.00    +0.048 A 
ATOM      6  C   UNL     1      47.855   8.968  89.975  0.00  0.00    +0.116 A 
ATOM      7  N   UNL     1      47.396   9.836  89.009  0.00  0.00    -0.223 NA
ATOM      8  C   UNL     1      46.690  10.975  89.351  0.00  0.00    +0.220 A 
ATOM      9  N   UNL     1      46.226  11.866  88.396  0.00  0.00    -0.283 N 
ATOM     36  H   UNL     1      45.703  12.692  88.689  0.00  0.00    +0.155 HD
ATOM     37  N   UNL     1      46.444  11.250  90.649  0.00  0.00    -0.214 NA
BRANCH   4   3
ATOM      1  C   UNL     1      44.917  11.268  94.938  0.00  0.00    +0.020 A 
ATOM      2  C   UNL     1      45.184  10.855  93.579  0.00  0.00    +0.013 A 
ATOM      3  C   UNL     1      46.546  10.844  93.059  0.00  0.00    +0.019 A 
ATOM     38  C   UNL     1      47.622  11.259  93.946  0.00  0.00    +0.120 A 
ATOM     39  N   UNL     1      47.334  11.653  95.249  0.00  0.00    -0.263 NA
ATOM     40  C   UNL     1      46.027  11.670  95.760  0.00  0.00    +0.111 A 
ENDBRANCH   4   3
ENDBRANCH  10   9
BRANCH  12  13
ATOM     13  N   UNL     1      44.716  10.026  84.027  0.00  0.00    -0.281 N 
ATOM     14  C   UNL     1      43.492  10.498  83.581  0.00  0.00    +0.248 C 
ATOM     30  O   UNL     1      42.943  11.503  84.006  0.00  0.00    -0.270 OA
ATOM     31  H   UNL     1      44.967   9.082  83.734  0.00  0.00    +0.155 HD
BRANCH  14  15
ATOM     15  C   UNL     1      42.767   9.734  82.520  0.00  0.00    +0.037 A 
ATOM     16  C   UNL     1      43.083   8.331  82.244  0.00  0.00    +0.013 A 
ATOM     17  C   UNL     1      42.380   7.622  81.204  0.00  0.00    +0.005 A 
ATOM     18  C   UNL     1      41.353   8.318  80.432  0.00  0.00    -0.033 A 
ATOM     28  C   UNL     1      41.056   9.709  80.731  0.00  0.00    +0.005 A 
ATOM     29  C   UNL     1      41.744  10.407  81.749  0.00  0.00    +0.013 A 
BRANCH  18  19
ATOM     19  C   UNL     1      40.568   7.647  79.289  0.00  0.00    +0.119 C 
BRANCH  19  20
ATOM     20  N   UNL     1      39.079   7.767  79.320  0.00  0.00    -0.302 NA
ATOM     21  C   UNL     1      38.434   6.684  80.189  0.00  0.00    +0.066 C 
ATOM     22  C   UNL     1      36.878   6.838  80.228  0.00  0.00    -0.064 C 
ATOM     23  N   UNL     1      36.328   6.787  78.802  0.00  0.00    +0.379 N 
ATOM     24  C   UNL     1      34.861   6.873  78.840  0.00  0.00    -0.096 C 
ATOM     25  H   UNL     1      36.598   5.795  78.371  0.00  0.00    -0.082 HD
ATOM     26  C   UNL     1      36.966   7.859  77.931  0.00  0.00    -0.064 C 
ATOM     27  C   UNL     1      38.514   7.715  77.922  0.00  0.00    +0.066 C 
ENDBRANCH  19  20
ENDBRANCH  18  19
ENDBRANCH  14  15
ENDBRANCH  12  13
TORSDOF 6
ENDMDL
MODEL 5
REMARK VINA RESULT:      -7.4     35.649     39.115
REMARK  Name = C:\Users\Docking\Desktop\test protocol\1iep_ligandH.pdb
REMARK  8 active torsions:
REMARK  status: ('A' for Active; 'I' for Inactive)
REMARK    1  A    between atoms: _5  and  _11
REMARK    2  A    between atoms: _19  and  _21
REMARK    3  A    between atoms: _22  and  _66
REMARK    4  A    between atoms: _27  and  _30
REMARK    5  A    between atoms: _32  and  _33
REMARK    6  A    between atoms: _38  and  _43
REMARK    7  A    between atoms: _43  and  _46
REMARK    8  A    between atoms: _53  and  _55
REMARK                            x       y       z     vdW  Elec       q    Type
REMARK                         _______ _______ _______ _____ _____    ______ ____
ROOT
ATOM     10  C   UNL     1      43.853   9.721  81.846  0.00  0.00    +0.038 A 
ATOM     11  C   UNL     1      44.699  10.105  82.917  0.00  0.00    +0.047 A 
ATOM     12  C   UNL     1      44.180  10.843  84.058  0.00  0.00    +0.035 A 
ATOM     32  C   UNL     1      42.793  11.171  84.077  0.00  0.00    +0.024 A 
ATOM     33  C   UNL     1      41.919  10.789  82.995  0.00  0.00    +0.007 A 
ATOM     34  C   UNL     1      42.426  10.063  81.866  0.00  0.00    -0.029 A 
ATOM     35  C   UNL     1      41.444   9.686  80.732  0.00  0.00    +0.045 C 
ENDROOT
BRANCH  10   9
ATOM      4  C   UNL     1      46.265   5.988  80.032  0.00  0.00    +0.077 A 
ATOM      5  C   UNL     1      46.467   5.412  81.331  0.00  0.00    +0.048 A 
ATOM      6  C   UNL     1      45.940   6.111  82.440  0.00  0.00    +0.116 A 
ATOM      7  N   UNL     1      45.264   7.297  82.253  0.00  0.00    -0.223 NA
ATOM      8  C   UNL     1      45.088   7.826  80.987  0.00  0.00    +0.220 A 
ATOM      9  N   UNL     1      44.404   9.013  80.775  0.00  0.00    -0.283 N 
ATOM     36  H   UNL     1      44.303   9.374  79.827  0.00  0.00    +0.155 HD
ATOM     37  N   UNL     1      45.583   7.178  79.912  0.00  0.00    -0.214 NA
BRANCH   4   3
ATOM      1  C   UNL     1      48.250   3.788  77.479  0.00  0.00    +0.020 A 
ATOM      2  C   UNL     1      47.810   4.357  78.732  0.00  0.00    +0.013 A 
ATOM      3  C   UNL     1      46.759   5.366  78.763  0.00  0.00    +0.019 A 
ATOM     38  C   UNL     1      46.168   5.780  77.499  0.00  0.00    +0.120 A 
ATOM     39  N   UNL     1      46.613   5.216  76.308  0.00  0.00    -0.263 NA
ATOM     40  C   UNL     1      47.626   4.245  76.265  0.00  0.00    +0.111 A 
ENDBRANCH   4   3
ENDBRANCH  10   9
BRANCH  12  13
ATOM     13  N   UNL     1      44.992  11.267  85.172  0.00  0.00    -0.281 N 
ATOM     14  C   UNL     1      44.923  10.840  86.488  0.00  0.00    +0.248 C 
ATOM     30  O   UNL     1      44.004  10.182  86.953  0.00  0.00    -0.270 OA
ATOM     31  H   UNL     1      45.705  11.966  84.964  0.00  0.00    +0.155 HD
BRANCH  14  15
ATOM     15  C   UNL     1      46.026  11.210  87.426  0.00  0.00    +0.037 A 
ATOM     16  C   UNL     1      47.420  11.258  86.979  0.00  0.00    +0.013 A 
ATOM     17  C   UNL     1      48.467  11.602  87.908  0.00  0.00    +0.005 A 
ATOM     18  C   UNL     1      48.122  11.902  89.296  0.00  0.00    -0.033 A 
ATOM     28  C   UNL     1      46.730  11.852  89.712  0.00  0.00    +0.005 A 
ATOM     29  C   UNL     1      45.701  11.514  88.803  0.00  0.00    +0.013 A 
BRANCH  18  19
ATOM     19  C   UNL     1      49.175  12.257  90.362  0.00  0.00    +0.119 C 
BRANCH  19  20
ATOM     20  N   UNL     1      49.547  11.190  91.338  0.00  0.00    -0.302 NA
ATOM     21  C   UNL     1      48.810  11.350  92.671  0.00  0.00    +0.066 C 
ATOM     22  C   UNL     1      49.193  10.213  93.673  0.00  0.00    -0.064 C 
ATOM     23  N   UNL     1      50.708  10.215  93.888  0.00  0.00    +0.379 N 
ATOM     24  C   UNL     1      51.065   9.185  94.874  0.00  0.00    -0.096 C 
ATOM     25  H   UNL     1      50.987  11.206  94.317  0.00  0.00    -0.082 HD
ATOM     26  C   UNL     1      51.449  10.060  92.567  0.00  0.00    -0.064 C 
ATOM     27  C   UNL     1      51.038  11.178  91.569  0.00  0.00    +0.066 C 
ENDBRANCH  19  20
ENDBRANCH  18  19
ENDBRANCH  14  15
ENDBRANCH  12  13
TORSDOF 6
ENDMDL
