MODEL 1
REMARK VINA RESULT:      -8.3      0.000      0.000
REMARK  Name = C:\Users\Docking\Desktop\test protocol\1iep_ligandH.pdb
REMARK  8 active torsions:
REMARK  status: ('A' for Active; 'I' for Inactive)
REMARK    1  A    between atoms: _5  and  _11
REMARK    2  A    between atoms: _19  and  _21
REMARK    3  A    between atoms: _22  and  _66
REMARK    4  A    between atoms: _27  and  _30
REMARK    5  A    between atoms: _32  and  _33
REMARK    6  A    between atoms: _38  and  _43
REMARK    7  A    between atoms: _43  and  _46
REMARK    8  A    between atoms: _53  and  _55
REMARK                            x       y       z     vdW  Elec       q    Type
REMARK                         _______ _______ _______ _____ _____    ______ ____
ROOT
ATOM     10  C   UNL     1      10.738  23.562   8.738  0.00  0.00    +0.038 A 
ATOM     11  C   UNL     1      11.918  23.694   7.963  0.00  0.00    +0.047 A 
ATOM     12  C   UNL     1      13.145  23.006   8.335  0.00  0.00    +0.035 A 
ATOM     32  C   UNL     1      13.132  22.189   9.503  0.00  0.00    +0.024 A 
ATOM     33  C   UNL     1      11.942  22.044  10.303  0.00  0.00    +0.007 A 
ATOM     34  C   UNL     1      10.730  22.722   9.942  0.00  0.00    -0.029 A 
ATOM     35  C   UNL     1       9.486  22.535  10.841  0.00  0.00    +0.045 C 
ENDROOT
BRANCH  10   9
ATOM      4  C   UNL     1       8.021  27.512   8.517  0.00  0.00    +0.077 A 
ATOM      5  C   UNL     1       8.957  28.271   9.294  0.00  0.00    +0.048 A 
ATOM      6  C   UNL     1      10.122  27.606   9.738  0.00  0.00    +0.116 A 
ATOM      7  N   UNL     1      10.325  26.281   9.422  0.00  0.00    -0.223 NA
ATOM      8  C   UNL     1       9.401  25.577   8.671  0.00  0.00    +0.220 A 
ATOM      9  N   UNL     1       9.589  24.245   8.334  0.00  0.00    -0.283 N 
ATOM     36  H   UNL     1       8.880  23.759   7.785  0.00  0.00    +0.155 HD
ATOM     37  N   UNL     1       8.280  26.189   8.237  0.00  0.00    -0.214 NA
BRANCH   4   3
ATOM      1  C   UNL     1       5.055  29.929   7.701  0.00  0.00    +0.020 A 
ATOM      2  C   UNL     1       6.296  29.433   8.252  0.00  0.00    +0.013 A 
ATOM      3  C   UNL     1       6.744  28.075   7.973  0.00  0.00    +0.019 A 
ATOM     38  C   UNL     1       5.909  27.237   7.126  0.00  0.00    +0.120 A 
ATOM     39  N   UNL     1       4.718  27.741   6.611  0.00  0.00    -0.263 NA
ATOM     40  C   UNL     1       4.275  29.046   6.874  0.00  0.00    +0.111 A 
ENDBRANCH   4   3
ENDBRANCH  10   9
BRANCH  12  13
ATOM     13  N   UNL     1      14.376  23.109   7.592  0.00  0.00    -0.281 N 
ATOM     14  C   UNL     1      14.604  22.762   6.270  0.00  0.00    +0.248 C 
ATOM     30  O   UNL     1      13.833  22.107   5.585  0.00  0.00    -0.270 OA
ATOM     31  H   UNL     1      15.176  23.484   8.101  0.00  0.00    +0.155 HD
BRANCH  14  15
ATOM     15  C   UNL     1      15.879  23.192   5.620  0.00  0.00    +0.037 A 
ATOM     16  C   UNL     1      15.882  23.830   4.301  0.00  0.00    +0.013 A 
ATOM     17  C   UNL     1      17.128  24.220   3.690  0.00  0.00    +0.005 A 
ATOM     18  C   UNL     1      18.382  23.974   4.398  0.00  0.00    -0.033 A 
ATOM     28  C   UNL     1      18.349  23.344   5.708  0.00  0.00    +0.005 A 
ATOM     29  C   UNL     1      17.130  22.960   6.310  0.00  0.00    +0.013 A 
BRANCH  18  19
ATOM     19  C   UNL     1      19.759  24.338   3.812  0.00  0.00    +0.119 C 
BRANCH  19  20
ATOM     20  N   UNL     1      19.843  25.576   2.981  0.00  0.00    -0.302 NA
ATOM     21  C   UNL     1      21.168  25.668   2.220  0.00  0.00    +0.066 C 
ATOM     22  C   UNL     1      21.230  26.958   1.339  0.00  0.00    -0.064 C 
ATOM     23  N   UNL     1      21.028  28.188   2.225  0.00  0.00    +0.379 N 
ATOM     24  C   UNL     1      21.143  29.405   1.409  0.00  0.00    -0.096 C 
ATOM     25  H   UNL     1      21.853  28.204   2.975  0.00  0.00    -0.082 HD
ATOM     26  C   UNL     1      19.714  28.103   2.988  0.00  0.00    -0.064 C 
ATOM     27  C   UNL     1      19.650  26.803   3.838  0.00  0.00    +0.066 C 
ENDBRANCH  19  20
ENDBRANCH  18  19
ENDBRANCH  14  15
ENDBRANCH  12  13
TORSDOF 6
ENDMDL
MODEL 2
REMARK VINA RESULT:      -8.2      2.141     12.225
REMARK  Name = C:\Users\Docking\Desktop\test protocol\1iep_ligandH.pdb
REMARK  8 active torsions:
REMARK  status: ('A' for Active; 'I' for Inactive)
REMARK    1  A    between atoms: _5  and  _11
REMARK    2  A    between atoms: _19  and  _21
REMARK    3  A    between atoms: _22  and  _66
REMARK    4  A    between atoms: _27  and  _30
REMARK    5  A    between atoms: _32  and  _33
REMARK    6  A    between atoms: _38  and  _43
REMARK    7  A    between atoms: _43  and  _46
REMARK    8  A    between atoms: _53  and  _55
REMARK                            x       y       z     vdW  Elec       q    Type
REMARK                         _______ _______ _______ _____ _____    ______ ____
ROOT
ATOM     10  C   UNL     1      20.196  25.573   4.167  0.00  0.00    +0.038 A 
ATOM     11  C   UNL     1      18.847  25.442   4.587  0.00  0.00    +0.047 A 
ATOM     12  C   UNL     1      18.193  24.144   4.623  0.00  0.00    +0.035 A 
ATOM     32  C   UNL     1      18.943  22.998   4.226  0.00  0.00    +0.024 A 
ATOM     33  C   UNL     1      20.314  23.113   3.795  0.00  0.00    +0.007 A 
ATOM     34  C   UNL     1      20.964  24.392   3.755  0.00  0.00    -0.029 A 
ATOM     35  C   UNL     1      22.434  24.457   3.279  0.00  0.00    +0.045 C 
ENDROOT
BRANCH  10   9
ATOM      4  C   UNL     1      21.345  29.676   1.956  0.00  0.00    +0.077 A 
ATOM      5  C   UNL     1      20.768  29.239   0.718  0.00  0.00    +0.048 A 
ATOM      6  C   UNL     1      20.191  27.949   0.690  0.00  0.00    +0.116 A 
ATOM      7  N   UNL     1      20.197  27.164   1.822  0.00  0.00    -0.223 NA
ATOM      8  C   UNL     1      20.764  27.614   3.000  0.00  0.00    +0.220 A 
ATOM      9  N   UNL     1      20.774  26.844   4.152  0.00  0.00    -0.283 N 
ATOM     36  H   UNL     1      21.209  27.210   4.999  0.00  0.00    +0.155 HD
ATOM     37  N   UNL     1      21.322  28.842   3.052  0.00  0.00    -0.214 NA
BRANCH   4   3
ATOM      1  C   UNL     1      22.390  33.139   3.444  0.00  0.00    +0.020 A 
ATOM      2  C   UNL     1      21.742  31.855   3.309  0.00  0.00    +0.013 A 
ATOM      3  C   UNL     1      21.989  31.014   2.145  0.00  0.00    +0.019 A 
ATOM     38  C   UNL     1      22.906  31.505   1.127  0.00  0.00    +0.120 A 
ATOM     39  N   UNL     1      23.514  32.747   1.283  0.00  0.00    -0.263 NA
ATOM     40  C   UNL     1      23.282  33.566   2.398  0.00  0.00    +0.111 A 
ENDBRANCH   4   3
ENDBRANCH  10   9
BRANCH  12  13
ATOM     13  N   UNL     1      16.824  23.951   5.032  0.00  0.00    -0.281 N 
ATOM     14  C   UNL     1      16.331  23.040   5.953  0.00  0.00    +0.248 C 
ATOM     30  O   UNL     1      16.970  22.104   6.410  0.00  0.00    -0.270 OA
ATOM     31  H   UNL     1      16.135  24.558   4.590  0.00  0.00    +0.155 HD
BRANCH  14  15
ATOM     15  C   UNL     1      14.920  23.182   6.424  0.00  0.00    +0.037 A 
ATOM     16  C   UNL     1      13.861  23.647   5.524  0.00  0.00    +0.013 A 
ATOM     17  C   UNL     1      12.511  23.791   6.008  0.00  0.00    +0.005 A 
ATOM     18  C   UNL     1      12.212  23.469   7.401  0.00  0.00    -0.033 A 
ATOM     28  C   UNL     1      13.280  23.005   8.271  0.00  0.00    +0.005 A 
ATOM     29  C   UNL     1      14.605  22.863   7.800  0.00  0.00    +0.013 A 
BRANCH  18  19
ATOM     19  C   UNL     1      10.805  23.613   8.010  0.00  0.00    +0.119 C 
BRANCH  19  20
ATOM     20  N   UNL     1      10.227  24.988   8.076  0.00  0.00    -0.302 NA
ATOM     21  C   UNL     1      10.963  25.873   9.087  0.00  0.00    +0.066 C 
ATOM     22  C   UNL     1      10.359  27.314   9.127  0.00  0.00    -0.064 C 
ATOM     23  N   UNL     1       8.870  27.231   9.465  0.00  0.00    +0.379 N 
ATOM     24  C   UNL     1       8.312  28.588   9.560  0.00  0.00    -0.096 C 
ATOM     25  H   UNL     1       8.776  26.755  10.468  0.00  0.00    -0.082 HD
ATOM     26  C   UNL     1       8.130  26.352   8.466  0.00  0.00    -0.064 C 
ATOM     27  C   UNL     1       8.757  24.930   8.412  0.00  0.00    +0.066 C 
ENDBRANCH  19  20
ENDBRANCH  18  19
ENDBRANCH  14  15
ENDBRANCH  12  13
TORSDOF 6
ENDMDL
MODEL 3
REMARK VINA RESULT:      -8.0      1.511      2.210
REMARK  Name = C:\Users\Docking\Desktop\test protocol\1iep_ligandH.pdb
REMARK  8 active torsions:
REMARK  status: ('A' for Active; 'I' for Inactive)
REMARK    1  A    between atoms: _5  and  _11
REMARK    2  A    between atoms: _19  and  _21
REMARK    3  A    between atoms: _22  and  _66
REMARK    4  A    between atoms: _27  and  _30
REMARK    5  A    between atoms: _32  and  _33
REMARK    6  A    between atoms: _38  and  _43
REMARK    7  A    between atoms: _43  and  _46
REMARK    8  A    between atoms: _53  and  _55
REMARK                            x       y       z     vdW  Elec       q    Type
REMARK                         _______ _______ _______ _____ _____    ______ ____
ROOT
ATOM     10  C   UNL     1      10.367  23.766   8.605  0.00  0.00    +0.038 A 
ATOM     11  C   UNL     1      11.543  23.943   7.832  0.00  0.00    +0.047 A 
ATOM     12  C   UNL     1      12.781  23.263   8.179  0.00  0.00    +0.035 A 
ATOM     32  C   UNL     1      12.785  22.407   9.319  0.00  0.00    +0.024 A 
ATOM     33  C   UNL     1      11.599  22.217  10.117  0.00  0.00    +0.007 A 
ATOM     34  C   UNL     1      10.376  22.886   9.780  0.00  0.00    -0.029 A 
ATOM     35  C   UNL     1       9.137  22.650  10.674  0.00  0.00    +0.045 C 
ENDROOT
BRANCH  10   9
ATOM      4  C   UNL     1       7.576  27.670   8.534  0.00  0.00    +0.077 A 
ATOM      5  C   UNL     1       8.497  28.415   9.343  0.00  0.00    +0.048 A 
ATOM      6  C   UNL     1       9.673  27.755   9.763  0.00  0.00    +0.116 A 
ATOM      7  N   UNL     1       9.902  26.447   9.394  0.00  0.00    -0.223 NA
ATOM      8  C   UNL     1       8.993  25.756   8.614  0.00  0.00    +0.220 A 
ATOM      9  N   UNL     1       9.206  24.443   8.225  0.00  0.00    -0.283 N 
ATOM     36  H   UNL     1       8.507  23.966   7.656  0.00  0.00    +0.155 HD
ATOM     37  N   UNL     1       7.861  26.364   8.202  0.00  0.00    -0.214 NA
BRANCH   4   3
ATOM      1  C   UNL     1       4.603  30.087   7.746  0.00  0.00    +0.020 A 
ATOM      2  C   UNL     1       5.854  29.595   8.276  0.00  0.00    +0.013 A 
ATOM      3  C   UNL     1       6.290  28.230   8.010  0.00  0.00    +0.019 A 
ATOM     38  C   UNL     1       5.432  27.382   7.196  0.00  0.00    +0.120 A 
ATOM     39  N   UNL     1       4.232  27.883   6.700  0.00  0.00    -0.263 NA
ATOM     40  C   UNL     1       3.801  29.194   6.951  0.00  0.00    +0.111 A 
ENDBRANCH   4   3
ENDBRANCH  10   9
BRANCH  12  13
ATOM     13  N   UNL     1      14.009  23.411   7.437  0.00  0.00    -0.281 N 
ATOM     14  C   UNL     1      14.364  22.796   6.248  0.00  0.00    +0.248 C 
ATOM     30  O   UNL     1      13.763  21.856   5.749  0.00  0.00    -0.270 OA
ATOM     31  H   UNL     1      14.700  24.046   7.837  0.00  0.00    +0.155 HD
BRANCH  14  15
ATOM     15  C   UNL     1      15.570  23.286   5.513  0.00  0.00    +0.037 A 
ATOM     16  C   UNL     1      16.896  23.272   6.135  0.00  0.00    +0.013 A 
ATOM     17  C   UNL     1      18.040  23.767   5.411  0.00  0.00    +0.005 A 
ATOM     18  C   UNL     1      17.862  24.278   4.054  0.00  0.00    -0.033 A 
ATOM     28  C   UNL     1      16.536  24.276   3.459  0.00  0.00    +0.005 A 
ATOM     29  C   UNL     1      15.412  23.793   4.167  0.00  0.00    +0.013 A 
BRANCH  18  19
ATOM     19  C   UNL     1      19.023  24.845   3.215  0.00  0.00    +0.119 C 
BRANCH  19  20
ATOM     20  N   UNL     1      20.322  24.112   3.262  0.00  0.00    -0.302 NA
ATOM     21  C   UNL     1      21.309  24.754   4.241  0.00  0.00    +0.066 C 
ATOM     22  C   UNL     1      22.656  23.961   4.295  0.00  0.00    -0.064 C 
ATOM     23  N   UNL     1      23.257  23.886   2.890  0.00  0.00    +0.379 N 
ATOM     24  C   UNL     1      24.551  23.192   2.947  0.00  0.00    -0.096 C 
ATOM     25  H   UNL     1      23.448  24.930   2.549  0.00  0.00    -0.082 HD
ATOM     26  C   UNL     1      22.281  23.252   1.910  0.00  0.00    -0.064 C 
ATOM     27  C   UNL     1      20.936  24.030   1.886  0.00  0.00    +0.066 C 
ENDBRANCH  19  20
ENDBRANCH  18  19
ENDBRANCH  14  15
ENDBRANCH  12  13
TORSDOF 6
ENDMDL
MODEL 4
REMARK VINA RESULT:      -8.0      6.264     12.508
REMARK  Name = C:\Users\Docking\Desktop\test protocol\1iep_ligandH.pdb
REMARK  8 active torsions:
REMARK  status: ('A' for Active; 'I' for Inactive)
REMARK    1  A    between atoms: _5  and  _11
REMARK    2  A    between atoms: _19  and  _21
REMARK    3  A    between atoms: _22  and  _66
REMARK    4  A    between atoms: _27  and  _30
REMARK    5  A    between atoms: _32  and  _33
REMARK    6  A    between atoms: _38  and  _43
REMARK    7  A    between atoms: _43  and  _46
REMARK    8  A    between atoms: _53  and  _55
REMARK                            x       y       z     vdW  Elec       q    Type
REMARK                         _______ _______ _______ _____ _____    ______ ____
ROOT
ATOM     10  C   UNL     1      11.288  21.894  10.832  0.00  0.00    +0.038 A 
ATOM     11  C   UNL     1      10.306  22.912  10.720  0.00  0.00    +0.047 A 
ATOM     12  C   UNL     1      10.321  23.852   9.610  0.00  0.00    +0.035 A 
ATOM     32  C   UNL     1      11.348  23.725   8.630  0.00  0.00    +0.024 A 
ATOM     33  C   UNL     1      12.354  22.697   8.729  0.00  0.00    +0.007 A 
ATOM     34  C   UNL     1      12.346  21.768   9.823  0.00  0.00    -0.029 A 
ATOM     35  C   UNL     1      13.454  20.690   9.881  0.00  0.00    +0.045 C 
ENDROOT
BRANCH  10   9
ATOM      4  C   UNL     1       9.766  17.855  12.931  0.00  0.00    +0.077 A 
ATOM      5  C   UNL     1       9.007  17.470  11.775  0.00  0.00    +0.048 A 
ATOM      6  C   UNL     1       9.030  18.343  10.664  0.00  0.00    +0.116 A 
ATOM      7  N   UNL     1       9.760  19.511  10.716  0.00  0.00    -0.223 NA
ATOM      8  C   UNL     1      10.479  19.853  11.847  0.00  0.00    +0.220 A 
ATOM      9  N   UNL     1      11.226  21.018  11.918  0.00  0.00    -0.283 N 
ATOM     36  H   UNL     1      11.737  21.238  12.772  0.00  0.00    +0.155 HD
ATOM     37  N   UNL     1      10.472  19.037  12.921  0.00  0.00    -0.214 NA
BRANCH   4   3
ATOM      1  C   UNL     1       9.231  16.555  16.581  0.00  0.00    +0.020 A 
ATOM      2  C   UNL     1       9.121  17.379  15.400  0.00  0.00    +0.013 A 
ATOM      3  C   UNL     1       9.844  17.036  14.182  0.00  0.00    +0.019 A 
ATOM     38  C   UNL     1      10.676  15.843  14.192  0.00  0.00    +0.120 A 
ATOM     39  N   UNL     1      10.764  15.068  15.345  0.00  0.00    -0.263 NA
ATOM     40  C   UNL     1      10.074  15.390  16.523  0.00  0.00    +0.111 A 
ENDBRANCH   4   3
ENDBRANCH  10   9
BRANCH  12  13
ATOM     13  N   UNL     1       9.355  24.911   9.448  0.00  0.00    -0.281 N 
ATOM     14  C   UNL     1       9.593  26.272   9.348  0.00  0.00    +0.248 C 
ATOM     30  O   UNL     1      10.663  26.807   9.598  0.00  0.00    -0.270 OA
ATOM     31  H   UNL     1       8.378  24.622   9.402  0.00  0.00    +0.155 HD
BRANCH  14  15
ATOM     15  C   UNL     1       8.477  27.171   8.923  0.00  0.00    +0.037 A 
ATOM     16  C   UNL     1       8.325  28.514   9.489  0.00  0.00    +0.013 A 
ATOM     17  C   UNL     1       7.229  29.353   9.074  0.00  0.00    +0.005 A 
ATOM     18  C   UNL     1       6.278  28.853   8.085  0.00  0.00    -0.033 A 
ATOM     28  C   UNL     1       6.456  27.519   7.535  0.00  0.00    +0.005 A 
ATOM     29  C   UNL     1       7.528  26.692   7.941  0.00  0.00    +0.013 A 
BRANCH  18  19
ATOM     19  C   UNL     1       5.067  29.672   7.599  0.00  0.00    +0.119 C 
BRANCH  19  20
ATOM     20  N   UNL     1       3.878  28.911   7.111  0.00  0.00    -0.302 NA
ATOM     21  C   UNL     1       3.143  29.651   5.990  0.00  0.00    +0.066 C 
ATOM     22  C   UNL     1       1.915  28.831   5.476  0.00  0.00    -0.064 C 
ATOM     23  N   UNL     1       0.972  28.544   6.646  0.00  0.00    +0.379 N 
ATOM     24  C   UNL     1      -0.212  27.823   6.155  0.00  0.00    -0.096 C 
ATOM     25  H   UNL     1       0.628  29.524   7.050  0.00  0.00    -0.082 HD
ATOM     26  C   UNL     1       1.695  27.811   7.766  0.00  0.00    -0.064 C 
ATOM     27  C   UNL     1       2.931  28.621   8.249  0.00  0.00    +0.066 C 
ENDBRANCH  19  20
ENDBRANCH  18  19
ENDBRANCH  14  15
ENDBRANCH  12  13
TORSDOF 6
ENDMDL
MODEL 5
REMARK VINA RESULT:      -7.9      5.617     10.493
REMARK  Name = C:\Users\Docking\Desktop\test protocol\1iep_ligandH.pdb
REMARK  8 active torsions:
REMARK  status: ('A' for Active; 'I' for Inactive)
REMARK    1  A    between atoms: _5  and  _11
REMARK    2  A    between atoms: _19  and  _21
REMARK    3  A    between atoms: _22  and  _66
REMARK    4  A    between atoms: _27  and  _30
REMARK    5  A    between atoms: _32  and  _33
REMARK    6  A    between atoms: _38  and  _43
REMARK    7  A    between atoms: _43  and  _46
REMARK    8  A    between atoms: _53  and  _55
REMARK                            x       y       z     vdW  Elec       q    Type
REMARK                         _______ _______ _______ _____ _____    ______ ____
ROOT
ATOM     10  C   UNL     1      10.339  23.748   8.354  0.00  0.00    +0.038 A 
ATOM     11  C   UNL     1      10.231  22.764   9.370  0.00  0.00    +0.047 A 
ATOM     12  C   UNL     1      11.390  21.998   9.802  0.00  0.00    +0.035 A 
ATOM     32  C   UNL     1      12.645  22.263   9.181  0.00  0.00    +0.024 A 
ATOM     33  C   UNL     1      12.773  23.260   8.146  0.00  0.00    +0.007 A 
ATOM     34  C   UNL     1      11.632  24.016   7.714  0.00  0.00    -0.029 A 
ATOM     35  C   UNL     1      11.827  25.067   6.596  0.00  0.00    +0.045 C 
ENDROOT
BRANCH  10   9
ATOM      4  C   UNL     1       7.549  27.652   8.454  0.00  0.00    +0.077 A 
ATOM      5  C   UNL     1       8.435  28.335   9.353  0.00  0.00    +0.048 A 
ATOM      6  C   UNL     1       9.594  27.643   9.772  0.00  0.00    +0.116 A 
ATOM      7  N   UNL     1       9.839  26.365   9.319  0.00  0.00    -0.223 NA
ATOM      8  C   UNL     1       8.963  25.735   8.453  0.00  0.00    +0.220 A 
ATOM      9  N   UNL     1       9.194  24.453   7.978  0.00  0.00    -0.283 N 
ATOM     36  H   UNL     1       8.520  24.021   7.347  0.00  0.00    +0.155 HD
ATOM     37  N   UNL     1       7.849  26.374   8.040  0.00  0.00    -0.214 NA
BRANCH   4   3
ATOM      1  C   UNL     1       4.583  30.107   7.762  0.00  0.00    +0.020 A 
ATOM      2  C   UNL     1       5.810  29.574   8.308  0.00  0.00    +0.013 A 
ATOM      3  C   UNL     1       6.286  28.252   7.920  0.00  0.00    +0.019 A 
ATOM     38  C   UNL     1       5.491  27.490   6.969  0.00  0.00    +0.120 A 
ATOM     39  N   UNL     1       4.313  28.029   6.461  0.00  0.00    -0.263 NA
ATOM     40  C   UNL     1       3.845  29.299   6.828  0.00  0.00    +0.111 A 
ENDBRANCH   4   3
ENDBRANCH  10   9
BRANCH  12  13
ATOM     13  N   UNL     1      11.339  20.981  10.822  0.00  0.00    -0.281 N 
ATOM     14  C   UNL     1      10.625  19.794  10.807  0.00  0.00    +0.248 C 
ATOM     30  O   UNL     1       9.748  19.526   9.999  0.00  0.00    -0.270 OA
ATOM     31  H   UNL     1      11.898  21.156  11.658  0.00  0.00    +0.155 HD
BRANCH  14  15
ATOM     15  C   UNL     1      10.917  18.762  11.848  0.00  0.00    +0.037 A 
ATOM     16  C   UNL     1      12.033  17.825  11.697  0.00  0.00    +0.013 A 
ATOM     17  C   UNL     1      12.282  16.828  12.708  0.00  0.00    +0.005 A 
ATOM     18  C   UNL     1      11.413  16.764  13.880  0.00  0.00    -0.033 A 
ATOM     28  C   UNL     1      10.316  17.709  14.007  0.00  0.00    +0.005 A 
ATOM     29  C   UNL     1      10.068  18.687  13.018  0.00  0.00    +0.013 A 
BRANCH  18  19
ATOM     19  C   UNL     1      11.592  15.719  14.998  0.00  0.00    +0.119 C 
BRANCH  19  20
ATOM     20  N   UNL     1      12.113  16.205  16.310  0.00  0.00    -0.302 NA
ATOM     21  C   UNL     1      10.984  16.547  17.286  0.00  0.00    +0.066 C 
ATOM     22  C   UNL     1      11.547  17.031  18.662  0.00  0.00    -0.064 C 
ATOM     23  N   UNL     1      12.456  18.241  18.439  0.00  0.00    +0.379 N 
ATOM     24  C   UNL     1      12.942  18.735  19.736  0.00  0.00    -0.096 C 
ATOM     25  H   UNL     1      11.839  19.048  17.980  0.00  0.00    -0.082 HD
ATOM     26  C   UNL     1      13.580  17.911  17.468  0.00  0.00    -0.064 C 
ATOM     27  C   UNL     1      13.010  17.402  16.115  0.00  0.00    +0.066 C 
ENDBRANCH  19  20
ENDBRANCH  18  19
ENDBRANCH  14  15
ENDBRANCH  12  13
TORSDOF 6
ENDMDL
