MODEL 1
REMARK VINA RESULT:      -7.1      0.000      0.000
REMARK  Name = C:\Users\Docking\Desktop\test protocol\1iep_ligandH.pdb
REMARK  8 active torsions:
REMARK  status: ('A' for Active; 'I' for Inactive)
REMARK    1  A    between atoms: _5  and  _11
REMARK    2  A    between atoms: _19  and  _21
REMARK    3  A    between atoms: _22  and  _66
REMARK    4  A    between atoms: _27  and  _30
REMARK    5  A    between atoms: _32  and  _33
REMARK    6  A    between atoms: _38  and  _43
REMARK    7  A    between atoms: _43  and  _46
REMARK    8  A    between atoms: _53  and  _55
REMARK                            x       y       z     vdW  Elec       q    Type
REMARK                         _______ _______ _______ _____ _____    ______ ____
ROOT
ATOM     10  C   UNL     1      80.695 -11.957  32.690  0.00  0.00    +0.038 A 
ATOM     11  C   UNL     1      82.103 -11.957  32.523  0.00  0.00    +0.047 A 
ATOM     12  C   UNL     1      82.993 -11.674  33.639  0.00  0.00    +0.035 A 
ATOM     32  C   UNL     1      82.415 -11.398  34.912  0.00  0.00    +0.024 A 
ATOM     33  C   UNL     1      80.985 -11.392  35.099  0.00  0.00    +0.007 A 
ATOM     34  C   UNL     1      80.102 -11.668  34.002  0.00  0.00    -0.029 A 
ATOM     35  C   UNL     1      78.577 -11.642  34.259  0.00  0.00    +0.045 C 
ENDROOT
BRANCH  10   9
ATOM      4  C   UNL     1      78.641 -15.012  29.611  0.00  0.00    +0.077 A 
ATOM      5  C   UNL     1      79.249 -16.149  30.241  0.00  0.00    +0.048 A 
ATOM      6  C   UNL     1      80.090 -15.903  31.350  0.00  0.00    +0.116 A 
ATOM      7  N   UNL     1      80.299 -14.613  31.788  0.00  0.00    -0.223 NA
ATOM      8  C   UNL     1      79.698 -13.540  31.157  0.00  0.00    +0.220 A 
ATOM      9  N   UNL     1      79.887 -12.235  31.585  0.00  0.00    -0.283 N 
ATOM     36  H   UNL     1      79.432 -11.470  31.088  0.00  0.00    +0.155 HD
ATOM     37  N   UNL     1      78.892 -13.748  30.095  0.00  0.00    -0.214 NA
BRANCH   4   3
ATOM      1  C   UNL     1      77.111 -15.975  26.142  0.00  0.00    +0.020 A 
ATOM      2  C   UNL     1      78.031 -15.915  27.255  0.00  0.00    +0.013 A 
ATOM      3  C   UNL     1      77.725 -15.109  28.431  0.00  0.00    +0.019 A 
ATOM     38  C   UNL     1      76.471 -14.372  28.449  0.00  0.00    +0.120 A 
ATOM     39  N   UNL     1      75.606 -14.447  27.362  0.00  0.00    -0.263 NA
ATOM     40  C   UNL     1      75.890 -15.218  26.224  0.00  0.00    +0.111 A 
ENDBRANCH   4   3
ENDBRANCH  10   9
BRANCH  12  13
ATOM     13  N   UNL     1      84.431 -11.652  33.527  0.00  0.00    -0.281 N 
ATOM     14  C   UNL     1      85.272 -12.690  33.161  0.00  0.00    +0.248 C 
ATOM     30  O   UNL     1      84.931 -13.861  33.080  0.00  0.00    -0.270 OA
ATOM     31  H   UNL     1      84.883 -10.764  33.745  0.00  0.00    +0.155 HD
BRANCH  14  15
ATOM     15  C   UNL     1      86.703 -12.385  32.855  0.00  0.00    +0.037 A 
ATOM     16  C   UNL     1      87.192 -12.340  31.475  0.00  0.00    +0.013 A 
ATOM     17  C   UNL     1      88.581 -12.061  31.208  0.00  0.00    +0.005 A 
ATOM     18  C   UNL     1      89.491 -11.823  32.326  0.00  0.00    -0.033 A 
ATOM     28  C   UNL     1      88.978 -11.868  33.685  0.00  0.00    +0.005 A 
ATOM     29  C   UNL     1      87.618 -12.143  33.950  0.00  0.00    +0.013 A 
BRANCH  18  19
ATOM     19  C   UNL     1      90.993 -11.538  32.136  0.00  0.00    +0.119 C 
BRANCH  19  20
ATOM     20  N   UNL     1      91.534 -11.623  30.747  0.00  0.00    -0.302 NA
ATOM     21  C   UNL     1      92.619 -12.696  30.618  0.00  0.00    +0.066 C 
ATOM     22  C   UNL     1      93.159 -12.786  29.153  0.00  0.00    -0.064 C 
ATOM     23  N   UNL     1      93.695 -11.419  28.724  0.00  0.00    +0.379 N 
ATOM     24  C   UNL     1      94.256 -11.515  27.369  0.00  0.00    -0.096 C 
ATOM     25  H   UNL     1      94.527 -11.150  29.416  0.00  0.00    -0.082 HD
ATOM     26  C   UNL     1      92.623 -10.346  28.852  0.00  0.00    -0.064 C 
ATOM     27  C   UNL     1      92.073 -10.284  30.305  0.00  0.00    +0.066 C 
ENDBRANCH  19  20
ENDBRANCH  18  19
ENDBRANCH  14  15
ENDBRANCH  12  13
TORSDOF 6
ENDMDL
MODEL 2
REMARK VINA RESULT:      -7.0     14.989     20.331
REMARK  Name = C:\Users\Docking\Desktop\test protocol\1iep_ligandH.pdb
REMARK  8 active torsions:
REMARK  status: ('A' for Active; 'I' for Inactive)
REMARK    1  A    between atoms: _5  and  _11
REMARK    2  A    between atoms: _19  and  _21
REMARK    3  A    between atoms: _22  and  _66
REMARK    4  A    between atoms: _27  and  _30
REMARK    5  A    between atoms: _32  and  _33
REMARK    6  A    between atoms: _38  and  _43
REMARK    7  A    between atoms: _43  and  _46
REMARK    8  A    between atoms: _53  and  _55
REMARK                            x       y       z     vdW  Elec       q    Type
REMARK                         _______ _______ _______ _____ _____    ______ ____
ROOT
ATOM     10  C   UNL     1      92.451  -1.253  20.184  0.00  0.00    +0.038 A 
ATOM     11  C   UNL     1      91.127  -0.793  19.967  0.00  0.00    +0.047 A 
ATOM     12  C   UNL     1      90.795   0.620  20.065  0.00  0.00    +0.035 A 
ATOM     32  C   UNL     1      91.838   1.538  20.383  0.00  0.00    +0.024 A 
ATOM     33  C   UNL     1      93.189   1.088  20.607  0.00  0.00    +0.007 A 
ATOM     34  C   UNL     1      93.522  -0.304  20.514  0.00  0.00    -0.029 A 
ATOM     35  C   UNL     1      94.986  -0.730  20.772  0.00  0.00    +0.045 C 
ENDROOT
BRANCH  10   9
ATOM      4  C   UNL     1      92.384  -5.724  21.926  0.00  0.00    +0.077 A 
ATOM      5  C   UNL     1      91.800  -5.296  23.165  0.00  0.00    +0.048 A 
ATOM      6  C   UNL     1      91.540  -3.916  23.316  0.00  0.00    +0.116 A 
ATOM      7  N   UNL     1      91.844  -3.038  22.298  0.00  0.00    -0.223 NA
ATOM      8  C   UNL     1      92.407  -3.484  21.117  0.00  0.00    +0.220 A 
ATOM      9  N   UNL     1      92.714  -2.620  20.077  0.00  0.00    -0.283 N 
ATOM     36  H   UNL     1      93.136  -2.987  19.224  0.00  0.00    +0.155 HD
ATOM     37  N   UNL     1      92.667  -4.797  20.948  0.00  0.00    -0.214 NA
BRANCH   4   3
ATOM      1  C   UNL     1      92.561  -9.630  22.056  0.00  0.00    +0.020 A 
ATOM      2  C   UNL     1      92.211  -8.271  22.400  0.00  0.00    +0.013 A 
ATOM      3  C   UNL     1      92.714  -7.151  21.614  0.00  0.00    +0.019 A 
ATOM     38  C   UNL     1      93.575  -7.443  20.478  0.00  0.00    +0.120 A 
ATOM     39  N   UNL     1      93.896  -8.761  20.171  0.00  0.00    -0.263 NA
ATOM     40  C   UNL     1      93.419  -9.847  20.921  0.00  0.00    +0.111 A 
ENDBRANCH   4   3
ENDBRANCH  10   9
BRANCH  12  13
ATOM     13  N   UNL     1      89.467   1.144  19.863  0.00  0.00    -0.281 N 
ATOM     14  C   UNL     1      89.001   1.896  18.797  0.00  0.00    +0.248 C 
ATOM     30  O   UNL     1      89.716   2.416  17.953  0.00  0.00    -0.270 OA
ATOM     31  H   UNL     1      88.788   0.935  20.595  0.00  0.00    +0.155 HD
BRANCH  14  15
ATOM     15  C   UNL     1      87.529   2.114  18.656  0.00  0.00    +0.037 A 
ATOM     16  C   UNL     1      86.665   1.098  18.049  0.00  0.00    +0.013 A 
ATOM     17  C   UNL     1      85.251   1.341  17.910  0.00  0.00    +0.005 A 
ATOM     18  C   UNL     1      84.692   2.606  18.380  0.00  0.00    -0.033 A 
ATOM     28  C   UNL     1      85.571   3.594  18.984  0.00  0.00    +0.005 A 
ATOM     29  C   UNL     1      86.957   3.360  19.121  0.00  0.00    +0.013 A 
BRANCH  18  19
ATOM     19  C   UNL     1      83.198   2.959  18.253  0.00  0.00    +0.119 C 
BRANCH  19  20
ATOM     20  N   UNL     1      82.548   3.615  19.426  0.00  0.00    -0.302 NA
ATOM     21  C   UNL     1      82.133   2.600  20.495  0.00  0.00    +0.066 C 
ATOM     22  C   UNL     1      81.475   3.306  21.725  0.00  0.00    -0.064 C 
ATOM     23  N   UNL     1      80.269   4.122  21.257  0.00  0.00    +0.379 N 
ATOM     24  C   UNL     1      79.614   4.740  22.419  0.00  0.00    -0.096 C 
ATOM     25  H   UNL     1      79.542   3.415  20.794  0.00  0.00    -0.082 HD
ATOM     26  C   UNL     1      80.673   5.132  20.192  0.00  0.00    -0.064 C 
ATOM     27  C   UNL     1      81.352   4.424  18.987  0.00  0.00    +0.066 C 
ENDBRANCH  19  20
ENDBRANCH  18  19
ENDBRANCH  14  15
ENDBRANCH  12  13
TORSDOF 6
ENDMDL
MODEL 3
REMARK VINA RESULT:      -7.0      3.899      6.648
REMARK  Name = C:\Users\Docking\Desktop\test protocol\1iep_ligandH.pdb
REMARK  8 active torsions:
REMARK  status: ('A' for Active; 'I' for Inactive)
REMARK    1  A    between atoms: _5  and  _11
REMARK    2  A    between atoms: _19  and  _21
REMARK    3  A    between atoms: _22  and  _66
REMARK    4  A    between atoms: _27  and  _30
REMARK    5  A    between atoms: _32  and  _33
REMARK    6  A    between atoms: _38  and  _43
REMARK    7  A    between atoms: _43  and  _46
REMARK    8  A    between atoms: _53  and  _55
REMARK                            x       y       z     vdW  Elec       q    Type
REMARK                         _______ _______ _______ _____ _____    ______ ____
ROOT
ATOM     10  C   UNL     1      80.596 -11.411  35.064  0.00  0.00    +0.038 A 
ATOM     11  C   UNL     1      82.013 -11.457  35.003  0.00  0.00    +0.047 A 
ATOM     12  C   UNL     1      82.709 -11.509  33.727  0.00  0.00    +0.035 A 
ATOM     32  C   UNL     1      81.932 -11.511  32.532  0.00  0.00    +0.024 A 
ATOM     33  C   UNL     1      80.492 -11.465  32.576  0.00  0.00    +0.007 A 
ATOM     34  C   UNL     1      79.799 -11.416  33.832  0.00  0.00    -0.029 A 
ATOM     35  C   UNL     1      78.253 -11.375  33.819  0.00  0.00    +0.045 C 
ENDROOT
BRANCH  10   9
ATOM      4  C   UNL     1      78.684 -13.523  38.926  0.00  0.00    +0.077 A 
ATOM      5  C   UNL     1      78.908 -14.836  38.393  0.00  0.00    +0.048 A 
ATOM      6  C   UNL     1      79.512 -14.924  37.118  0.00  0.00    +0.116 A 
ATOM      7  N   UNL     1      79.861 -13.778  36.438  0.00  0.00    -0.223 NA
ATOM      8  C   UNL     1      79.629 -12.527  36.980  0.00  0.00    +0.220 A 
ATOM      9  N   UNL     1      79.979 -11.362  36.316  0.00  0.00    -0.283 N 
ATOM     36  H   UNL     1      79.785 -10.458  36.747  0.00  0.00    +0.155 HD
ATOM     37  N   UNL     1      79.052 -12.417  38.195  0.00  0.00    -0.214 NA
BRANCH   4   3
ATOM      1  C   UNL     1      78.113 -13.214  42.784  0.00  0.00    +0.020 A 
ATOM      2  C   UNL     1      78.762 -13.478  41.521  0.00  0.00    +0.013 A 
ATOM      3  C   UNL     1      78.058 -13.266  40.262  0.00  0.00    +0.019 A 
ATOM     38  C   UNL     1      76.687 -12.783  40.317  0.00  0.00    +0.120 A 
ATOM     39  N   UNL     1      76.086 -12.539  41.548  0.00  0.00    -0.263 NA
ATOM     40  C   UNL     1      76.754 -12.740  42.766  0.00  0.00    +0.111 A 
ENDBRANCH   4   3
ENDBRANCH  10   9
BRANCH  12  13
ATOM     13  N   UNL     1      84.145 -11.566  33.603  0.00  0.00    -0.281 N 
ATOM     14  C   UNL     1      84.918 -12.612  33.127  0.00  0.00    +0.248 C 
ATOM     30  O   UNL     1      84.504 -13.745  32.933  0.00  0.00    -0.270 OA
ATOM     31  H   UNL     1      84.653 -10.733  33.903  0.00  0.00    +0.155 HD
BRANCH  14  15
ATOM     15  C   UNL     1      86.364 -12.367  32.837  0.00  0.00    +0.037 A 
ATOM     16  C   UNL     1      86.874 -12.367  31.464  0.00  0.00    +0.013 A 
ATOM     17  C   UNL     1      88.277 -12.146  31.213  0.00  0.00    +0.005 A 
ATOM     18  C   UNL     1      89.178 -11.921  32.341  0.00  0.00    -0.033 A 
ATOM     28  C   UNL     1      88.645 -11.921  33.692  0.00  0.00    +0.005 A 
ATOM     29  C   UNL     1      87.271 -12.139  33.942  0.00  0.00    +0.013 A 
BRANCH  18  19
ATOM     19  C   UNL     1      90.693 -11.697  32.168  0.00  0.00    +0.119 C 
BRANCH  19  20
ATOM     20  N   UNL     1      91.239 -11.754  30.780  0.00  0.00    -0.302 NA
ATOM     21  C   UNL     1      92.282 -12.864  30.618  0.00  0.00    +0.066 C 
ATOM     22  C   UNL     1      92.826 -12.924  29.153  0.00  0.00    -0.064 C 
ATOM     23  N   UNL     1      93.418 -11.565  28.776  0.00  0.00    +0.379 N 
ATOM     24  C   UNL     1      93.982 -11.636  27.420  0.00  0.00    -0.096 C 
ATOM     25  H   UNL     1      94.255 -11.353  29.480  0.00  0.00    -0.082 HD
ATOM     26  C   UNL     1      92.388 -10.456  28.936  0.00  0.00    -0.064 C 
ATOM     27  C   UNL     1      91.832 -10.423  30.387  0.00  0.00    +0.066 C 
ENDBRANCH  19  20
ENDBRANCH  18  19
ENDBRANCH  14  15
ENDBRANCH  12  13
TORSDOF 6
ENDMDL
MODEL 4
REMARK VINA RESULT:      -6.9      4.124      6.967
REMARK  Name = C:\Users\Docking\Desktop\test protocol\1iep_ligandH.pdb
REMARK  8 active torsions:
REMARK  status: ('A' for Active; 'I' for Inactive)
REMARK    1  A    between atoms: _5  and  _11
REMARK    2  A    between atoms: _19  and  _21
REMARK    3  A    between atoms: _22  and  _66
REMARK    4  A    between atoms: _27  and  _30
REMARK    5  A    between atoms: _32  and  _33
REMARK    6  A    between atoms: _38  and  _43
REMARK    7  A    between atoms: _43  and  _46
REMARK    8  A    between atoms: _53  and  _55
REMARK                            x       y       z     vdW  Elec       q    Type
REMARK                         _______ _______ _______ _____ _____    ______ ____
ROOT
ATOM     10  C   UNL     1      80.409 -11.403  35.072  0.00  0.00    +0.038 A 
ATOM     11  C   UNL     1      81.820 -11.446  34.927  0.00  0.00    +0.047 A 
ATOM     12  C   UNL     1      82.440 -11.506  33.613  0.00  0.00    +0.035 A 
ATOM     32  C   UNL     1      81.593 -11.518  32.466  0.00  0.00    +0.024 A 
ATOM     33  C   UNL     1      80.158 -11.475  32.595  0.00  0.00    +0.007 A 
ATOM     34  C   UNL     1      79.540 -11.419  33.889  0.00  0.00    -0.029 A 
ATOM     35  C   UNL     1      77.996 -11.382  33.968  0.00  0.00    +0.045 C 
ENDROOT
BRANCH  10   9
ATOM      4  C   UNL     1      78.647 -13.490  39.018  0.00  0.00    +0.077 A 
ATOM      5  C   UNL     1      78.793 -14.804  38.460  0.00  0.00    +0.048 A 
ATOM      6  C   UNL     1      79.319 -14.899  37.152  0.00  0.00    +0.116 A 
ATOM      7  N   UNL     1      79.670 -13.758  36.463  0.00  0.00    -0.223 NA
ATOM      8  C   UNL     1      79.514 -12.506  37.030  0.00  0.00    +0.220 A 
ATOM      9  N   UNL     1      79.868 -11.346  36.358  0.00  0.00    -0.283 N 
ATOM     36  H   UNL     1      79.731 -10.441  36.808  0.00  0.00    +0.155 HD
ATOM     37  N   UNL     1      79.013 -12.389  38.277  0.00  0.00    -0.214 NA
BRANCH   4   3
ATOM      1  C   UNL     1      78.345 -13.101  42.899  0.00  0.00    +0.020 A 
ATOM      2  C   UNL     1      78.913 -13.369  41.597  0.00  0.00    +0.013 A 
ATOM      3  C   UNL     1      78.109 -13.227  40.390  0.00  0.00    +0.019 A 
ATOM     38  C   UNL     1      76.723 -12.809  40.536  0.00  0.00    +0.120 A 
ATOM     39  N   UNL     1      76.203 -12.560  41.802  0.00  0.00    -0.263 NA
ATOM     40  C   UNL     1      76.967 -12.695  42.971  0.00  0.00    +0.111 A 
ENDBRANCH   4   3
ENDBRANCH  10   9
BRANCH  12  13
ATOM     13  N   UNL     1      83.866 -11.560  33.404  0.00  0.00    -0.281 N 
ATOM     14  C   UNL     1      84.638 -12.663  33.079  0.00  0.00    +0.248 C 
ATOM     30  O   UNL     1      84.246 -13.819  33.128  0.00  0.00    -0.270 OA
ATOM     31  H   UNL     1      84.366 -10.677  33.509  0.00  0.00    +0.155 HD
BRANCH  14  15
ATOM     15  C   UNL     1      86.054 -12.452  32.652  0.00  0.00    +0.037 A 
ATOM     16  C   UNL     1      87.064 -11.951  33.588  0.00  0.00    +0.013 A 
ATOM     17  C   UNL     1      88.419 -11.740  33.145  0.00  0.00    +0.005 A 
ATOM     18  C   UNL     1      88.773 -12.033  31.758  0.00  0.00    -0.033 A 
ATOM     28  C   UNL     1      87.753 -12.534  30.852  0.00  0.00    +0.005 A 
ATOM     29  C   UNL     1      86.424 -12.740  31.282  0.00  0.00    +0.013 A 
BRANCH  18  19
ATOM     19  C   UNL     1      90.190 -11.818  31.194  0.00  0.00    +0.119 C 
BRANCH  19  20
ATOM     20  N   UNL     1      90.957 -13.034  30.790  0.00  0.00    -0.302 NA
ATOM     21  C   UNL     1      91.050 -14.057  31.926  0.00  0.00    +0.066 C 
ATOM     22  C   UNL     1      91.837 -15.333  31.479  0.00  0.00    -0.064 C 
ATOM     23  N   UNL     1      93.232 -14.927  31.000  0.00  0.00    +0.379 N 
ATOM     24  C   UNL     1      93.994 -16.130  30.635  0.00  0.00    -0.096 C 
ATOM     25  H   UNL     1      93.755 -14.442  31.857  0.00  0.00    -0.082 HD
ATOM     26  C   UNL     1      93.148 -13.907  29.873  0.00  0.00    -0.064 C 
ATOM     27  C   UNL     1      92.340 -12.657  30.317  0.00  0.00    +0.066 C 
ENDBRANCH  19  20
ENDBRANCH  18  19
ENDBRANCH  14  15
ENDBRANCH  12  13
TORSDOF 6
ENDMDL
MODEL 5
REMARK VINA RESULT:      -6.8      8.075     14.649
REMARK  Name = C:\Users\Docking\Desktop\test protocol\1iep_ligandH.pdb
REMARK  8 active torsions:
REMARK  status: ('A' for Active; 'I' for Inactive)
REMARK    1  A    between atoms: _5  and  _11
REMARK    2  A    between atoms: _19  and  _21
REMARK    3  A    between atoms: _22  and  _66
REMARK    4  A    between atoms: _27  and  _30
REMARK    5  A    between atoms: _32  and  _33
REMARK    6  A    between atoms: _38  and  _43
REMARK    7  A    between atoms: _43  and  _46
REMARK    8  A    between atoms: _53  and  _55
REMARK                            x       y       z     vdW  Elec       q    Type
REMARK                         _______ _______ _______ _____ _____    ______ ____
ROOT
ATOM     10  C   UNL     1      77.040 -10.380  32.346  0.00  0.00    +0.038 A 
ATOM     11  C   UNL     1      76.615  -9.185  32.982  0.00  0.00    +0.047 A 
ATOM     12  C   UNL     1      75.214  -8.793  32.987  0.00  0.00    +0.035 A 
ATOM     32  C   UNL     1      74.272  -9.643  32.338  0.00  0.00    +0.024 A 
ATOM     33  C   UNL     1      74.687 -10.861  31.686  0.00  0.00    +0.007 A 
ATOM     34  C   UNL     1      76.068 -11.251  31.675  0.00  0.00    -0.029 A 
ATOM     35  C   UNL     1      76.457 -12.564  30.955  0.00  0.00    +0.045 C 
ENDROOT
BRANCH  10   9
ATOM      4  C   UNL     1      81.025 -11.735  34.653  0.00  0.00    +0.077 A 
ATOM      5  C   UNL     1      80.352 -11.766  35.920  0.00  0.00    +0.048 A 
ATOM      6  C   UNL     1      78.982 -11.420  35.935  0.00  0.00    +0.116 A 
ATOM      7  N   UNL     1      78.343 -11.070  34.765  0.00  0.00    -0.223 NA
ATOM      8  C   UNL     1      79.022 -11.049  33.561  0.00  0.00    +0.220 A 
ATOM      9  N   UNL     1      78.398 -10.708  32.371  0.00  0.00    -0.283 N 
ATOM     36  H   UNL     1      78.935 -10.697  31.505  0.00  0.00    +0.155 HD
ATOM     37  N   UNL     1      80.331 -11.374  33.520  0.00  0.00    -0.214 NA
BRANCH   4   3
ATOM      1  C   UNL     1      84.519 -12.459  33.050  0.00  0.00    +0.020 A 
ATOM      2  C   UNL     1      83.119 -12.123  33.168  0.00  0.00    +0.013 A 
ATOM      3  C   UNL     1      82.471 -12.078  34.473  0.00  0.00    +0.019 A 
ATOM     38  C   UNL     1      83.275 -12.381  35.648  0.00  0.00    +0.120 A 
ATOM     39  N   UNL     1      84.621 -12.703  35.503  0.00  0.00    -0.263 NA
ATOM     40  C   UNL     1      85.254 -12.751  34.252  0.00  0.00    +0.111 A 
ENDBRANCH   4   3
ENDBRANCH  10   9
BRANCH  12  13
ATOM     13  N   UNL     1      74.725  -7.588  33.609  0.00  0.00    -0.281 N 
ATOM     14  C   UNL     1      74.667  -7.290  34.961  0.00  0.00    +0.248 C 
ATOM     30  O   UNL     1      74.832  -8.106  35.856  0.00  0.00    -0.270 OA
ATOM     31  H   UNL     1      74.379  -6.867  32.976  0.00  0.00    +0.155 HD
BRANCH  14  15
ATOM     15  C   UNL     1      74.370  -5.887  35.379  0.00  0.00    +0.037 A 
ATOM     16  C   UNL     1      74.319  -5.510  36.794  0.00  0.00    +0.013 A 
ATOM     17  C   UNL     1      74.013  -4.152  37.170  0.00  0.00    +0.005 A 
ATOM     18  C   UNL     1      73.757  -3.161  36.128  0.00  0.00    -0.033 A 
ATOM     28  C   UNL     1      73.820  -3.560  34.732  0.00  0.00    +0.005 A 
ATOM     29  C   UNL     1      74.118  -4.890  34.360  0.00  0.00    +0.013 A 
BRANCH  18  19
ATOM     19  C   UNL     1      73.403  -1.694  36.438  0.00  0.00    +0.119 C 
BRANCH  19  20
ATOM     20  N   UNL     1      73.344  -1.294  37.876  0.00  0.00    -0.302 NA
ATOM     21  C   UNL     1      72.120  -0.427  38.182  0.00  0.00    +0.066 C 
ATOM     22  C   UNL     1      72.062  -0.036  39.694  0.00  0.00    -0.064 C 
ATOM     23  N   UNL     1      73.351   0.692  40.079  0.00  0.00    +0.379 N 
ATOM     24  C   UNL     1      73.276   1.112  41.486  0.00  0.00    -0.096 C 
ATOM     25  H   UNL     1      73.419   1.613  39.454  0.00  0.00    -0.082 HD
ATOM     26  C   UNL     1      74.574  -0.162  39.776  0.00  0.00    -0.064 C 
ATOM     27  C   UNL     1      74.606  -0.569  38.276  0.00  0.00    +0.066 C 
ENDBRANCH  19  20
ENDBRANCH  18  19
ENDBRANCH  14  15
ENDBRANCH  12  13
TORSDOF 6
ENDMDL
