MODEL 1
REMARK VINA RESULT:     -11.8      0.000      0.000
REMARK  Name = C:\Users\Docking\Desktop\test protocol\1iep_ligandH.pdb
REMARK  8 active torsions:
REMARK  status: ('A' for Active; 'I' for Inactive)
REMARK    1  A    between atoms: _5  and  _11
REMARK    2  A    between atoms: _19  and  _21
REMARK    3  A    between atoms: _22  and  _66
REMARK    4  A    between atoms: _27  and  _30
REMARK    5  A    between atoms: _32  and  _33
REMARK    6  A    between atoms: _38  and  _43
REMARK    7  A    between atoms: _43  and  _46
REMARK    8  A    between atoms: _53  and  _55
REMARK                            x       y       z     vdW  Elec       q    Type
REMARK                         _______ _______ _______ _____ _____    ______ ____
ROOT
ATOM     10  C   UNL     1      15.589  43.465   5.484  0.00  0.00    +0.038 A 
ATOM     11  C   UNL     1      15.287  42.374   6.338  0.00  0.00    +0.047 A 
ATOM     12  C   UNL     1      15.213  41.015   5.827  0.00  0.00    +0.035 A 
ATOM     32  C   UNL     1      15.456  40.801   4.438  0.00  0.00    +0.024 A 
ATOM     33  C   UNL     1      15.764  41.899   3.555  0.00  0.00    +0.007 A 
ATOM     34  C   UNL     1      15.835  43.242   4.054  0.00  0.00    -0.029 A 
ATOM     35  C   UNL     1      16.162  44.381   3.059  0.00  0.00    +0.045 C 
ENDROOT
BRANCH  10   9
ATOM      4  C   UNL     1      13.502  47.430   7.205  0.00  0.00    +0.077 A 
ATOM      5  C   UNL     1      12.186  46.908   6.975  0.00  0.00    +0.048 A 
ATOM      6  C   UNL     1      12.089  45.619   6.405  0.00  0.00    +0.116 A 
ATOM      7  N   UNL     1      13.231  44.912   6.093  0.00  0.00    -0.223 NA
ATOM      8  C   UNL     1      14.485  45.445   6.327  0.00  0.00    +0.220 A 
ATOM      9  N   UNL     1      15.646  44.750   6.028  0.00  0.00    -0.283 N 
ATOM     36  H   UNL     1      16.553  45.180   6.209  0.00  0.00    +0.155 HD
ATOM     37  N   UNL     1      14.604  46.675   6.869  0.00  0.00    -0.214 NA
BRANCH   4   3
ATOM      1  C   UNL     1      15.059  50.340   9.305  0.00  0.00    +0.020 A 
ATOM      2  C   UNL     1      14.844  49.021   8.756  0.00  0.00    +0.013 A 
ATOM      3  C   UNL     1      13.768  48.776   7.804  0.00  0.00    +0.019 A 
ATOM     38  C   UNL     1      12.922  49.897   7.423  0.00  0.00    +0.120 A 
ATOM     39  N   UNL     1      13.152  51.156   7.968  0.00  0.00    -0.263 NA
ATOM     40  C   UNL     1      14.182  51.403   8.887  0.00  0.00    +0.111 A 
ENDBRANCH   4   3
ENDBRANCH  10   9
BRANCH  12  13
ATOM     13  N   UNL     1      14.903  39.869   6.645  0.00  0.00    -0.281 N 
ATOM     14  C   UNL     1      14.034  38.828   6.359  0.00  0.00    +0.248 C 
ATOM     30  O   UNL     1      13.226  38.835   5.442  0.00  0.00    -0.270 OA
ATOM     31  H   UNL     1      15.382  39.819   7.545  0.00  0.00    +0.155 HD
BRANCH  14  15
ATOM     15  C   UNL     1      14.056  37.611   7.226  0.00  0.00    +0.037 A 
ATOM     16  C   UNL     1      14.213  36.272   6.652  0.00  0.00    +0.013 A 
ATOM     17  C   UNL     1      14.213  35.113   7.509  0.00  0.00    +0.005 A 
ATOM     18  C   UNL     1      14.058  35.289   8.951  0.00  0.00    -0.033 A 
ATOM     28  C   UNL     1      13.909  36.628   9.494  0.00  0.00    +0.005 A 
ATOM     29  C   UNL     1      13.907  37.767   8.657  0.00  0.00    +0.013 A 
BRANCH  18  19
ATOM     19  C   UNL     1      14.026  34.107   9.938  0.00  0.00    +0.119 C 
BRANCH  19  20
ATOM     20  N   UNL     1      15.279  33.815  10.696  0.00  0.00    -0.302 NA
ATOM     21  C   UNL     1      16.357  33.192   9.805  0.00  0.00    +0.066 C 
ATOM     22  C   UNL     1      17.669  32.914  10.609  0.00  0.00    -0.064 C 
ATOM     23  N   UNL     1      17.353  32.002  11.795  0.00  0.00    +0.379 N 
ATOM     24  C   UNL     1      18.595  31.691  12.519  0.00  0.00    -0.096 C 
ATOM     25  H   UNL     1      16.951  31.045  11.388  0.00  0.00    -0.082 HD
ATOM     26  C   UNL     1      16.280  32.612  12.685  0.00  0.00    -0.064 C 
ATOM     27  C   UNL     1      14.991  32.912  11.870  0.00  0.00    +0.066 C 
ENDBRANCH  19  20
ENDBRANCH  18  19
ENDBRANCH  14  15
ENDBRANCH  12  13
TORSDOF 6
ENDMDL
MODEL 2
REMARK VINA RESULT:     -11.4      2.497      4.638
REMARK  Name = C:\Users\Docking\Desktop\test protocol\1iep_ligandH.pdb
REMARK  8 active torsions:
REMARK  status: ('A' for Active; 'I' for Inactive)
REMARK    1  A    between atoms: _5  and  _11
REMARK    2  A    between atoms: _19  and  _21
REMARK    3  A    between atoms: _22  and  _66
REMARK    4  A    between atoms: _27  and  _30
REMARK    5  A    between atoms: _32  and  _33
REMARK    6  A    between atoms: _38  and  _43
REMARK    7  A    between atoms: _43  and  _46
REMARK    8  A    between atoms: _53  and  _55
REMARK                            x       y       z     vdW  Elec       q    Type
REMARK                         _______ _______ _______ _____ _____    ______ ____
ROOT
ATOM     10  C   UNL     1      14.822  39.430   5.346  0.00  0.00    +0.038 A 
ATOM     11  C   UNL     1      15.402  38.576   6.318  0.00  0.00    +0.047 A 
ATOM     12  C   UNL     1      16.055  37.334   5.935  0.00  0.00    +0.035 A 
ATOM     32  C   UNL     1      16.101  36.994   4.552  0.00  0.00    +0.024 A 
ATOM     33  C   UNL     1      15.516  37.850   3.550  0.00  0.00    +0.007 A 
ATOM     34  C   UNL     1      14.868  39.075   3.923  0.00  0.00    -0.029 A 
ATOM     35  C   UNL     1      14.252  39.951   2.807  0.00  0.00    +0.045 C 
ENDROOT
BRANCH  10   9
ATOM      4  C   UNL     1      14.371  44.209   5.330  0.00  0.00    +0.077 A 
ATOM      5  C   UNL     1      15.469  44.368   4.420  0.00  0.00    +0.048 A 
ATOM      6  C   UNL     1      16.128  43.196   3.986  0.00  0.00    +0.116 A 
ATOM      7  N   UNL     1      15.711  41.961   4.434  0.00  0.00    -0.223 NA
ATOM      8  C   UNL     1      14.650  41.843   5.313  0.00  0.00    +0.220 A 
ATOM      9  N   UNL     1      14.208  40.611   5.770  0.00  0.00    -0.283 N 
ATOM     36  H   UNL     1      13.427  40.566   6.424  0.00  0.00    +0.155 HD
ATOM     37  N   UNL     1      14.005  42.947   5.743  0.00  0.00    -0.214 NA
BRANCH   4   3
ATOM      1  C   UNL     1      11.421  46.395   6.677  0.00  0.00    +0.020 A 
ATOM      2  C   UNL     1      12.145  45.262   6.149  0.00  0.00    +0.013 A 
ATOM      3  C   UNL     1      13.574  45.352   5.876  0.00  0.00    +0.019 A 
ATOM     38  C   UNL     1      14.246  46.613   6.151  0.00  0.00    +0.120 A 
ATOM     39  N   UNL     1      13.522  47.688   6.657  0.00  0.00    -0.263 NA
ATOM     40  C   UNL     1      12.147  47.613   6.923  0.00  0.00    +0.111 A 
ENDBRANCH   4   3
ENDBRANCH  10   9
BRANCH  12  13
ATOM     13  N   UNL     1      16.654  36.422   6.878  0.00  0.00    -0.281 N 
ATOM     14  C   UNL     1      16.069  35.330   7.497  0.00  0.00    +0.248 C 
ATOM     30  O   UNL     1      14.869  35.096   7.496  0.00  0.00    -0.270 OA
ATOM     31  H   UNL     1      17.629  36.605   7.119  0.00  0.00    +0.155 HD
BRANCH  14  15
ATOM     15  C   UNL     1      16.940  34.367   8.237  0.00  0.00    +0.037 A 
ATOM     16  C   UNL     1      18.377  34.605   8.390  0.00  0.00    +0.013 A 
ATOM     17  C   UNL     1      19.197  33.650   9.094  0.00  0.00    +0.005 A 
ATOM     18  C   UNL     1      18.580  32.449   9.650  0.00  0.00    -0.033 A 
ATOM     28  C   UNL     1      17.151  32.240   9.488  0.00  0.00    +0.005 A 
ATOM     29  C   UNL     1      16.344  33.173   8.798  0.00  0.00    +0.013 A 
BRANCH  18  19
ATOM     19  C   UNL     1      19.382  31.367  10.398  0.00  0.00    +0.119 C 
BRANCH  19  20
ATOM     20  N   UNL     1      19.904  31.716  11.753  0.00  0.00    -0.302 NA
ATOM     21  C   UNL     1      18.969  32.672  12.499  0.00  0.00    +0.066 C 
ATOM     22  C   UNL     1      19.519  33.009  13.924  0.00  0.00    -0.064 C 
ATOM     23  N   UNL     1      20.920  33.609  13.798  0.00  0.00    +0.379 N 
ATOM     24  C   UNL     1      21.416  33.980  15.131  0.00  0.00    -0.096 C 
ATOM     25  H   UNL     1      20.834  34.543  13.196  0.00  0.00    -0.082 HD
ATOM     26  C   UNL     1      21.855  32.666  13.054  0.00  0.00    -0.064 C 
ATOM     27  C   UNL     1      21.285  32.314  11.652  0.00  0.00    +0.066 C 
ENDBRANCH  19  20
ENDBRANCH  18  19
ENDBRANCH  14  15
ENDBRANCH  12  13
TORSDOF 6
ENDMDL
MODEL 3
REMARK VINA RESULT:     -11.2      2.361     12.456
REMARK  Name = C:\Users\Docking\Desktop\test protocol\1iep_ligandH.pdb
REMARK  8 active torsions:
REMARK  status: ('A' for Active; 'I' for Inactive)
REMARK    1  A    between atoms: _5  and  _11
REMARK    2  A    between atoms: _19  and  _21
REMARK    3  A    between atoms: _22  and  _66
REMARK    4  A    between atoms: _27  and  _30
REMARK    5  A    between atoms: _32  and  _33
REMARK    6  A    between atoms: _38  and  _43
REMARK    7  A    between atoms: _43  and  _46
REMARK    8  A    between atoms: _53  and  _55
REMARK                            x       y       z     vdW  Elec       q    Type
REMARK                         _______ _______ _______ _____ _____    ______ ____
ROOT
ATOM     10  C   UNL     1      15.892  38.527   5.106  0.00  0.00    +0.038 A 
ATOM     11  C   UNL     1      15.588  39.758   5.741  0.00  0.00    +0.047 A 
ATOM     12  C   UNL     1      14.786  40.771   5.073  0.00  0.00    +0.035 A 
ATOM     32  C   UNL     1      14.307  40.495   3.759  0.00  0.00    +0.024 A 
ATOM     33  C   UNL     1      14.607  39.249   3.098  0.00  0.00    +0.007 A 
ATOM     34  C   UNL     1      15.401  38.248   3.751  0.00  0.00    -0.029 A 
ATOM     35  C   UNL     1      15.697  36.933   2.992  0.00  0.00    +0.045 C 
ENDROOT
BRANCH  10   9
ATOM      4  C   UNL     1      16.360  34.747   8.027  0.00  0.00    +0.077 A 
ATOM      5  C   UNL     1      14.942  34.648   8.222  0.00  0.00    +0.048 A 
ATOM      6  C   UNL     1      14.128  35.593   7.558  0.00  0.00    +0.116 A 
ATOM      7  N   UNL     1      14.700  36.560   6.761  0.00  0.00    -0.223 NA
ATOM      8  C   UNL     1      16.071  36.630   6.596  0.00  0.00    +0.220 A 
ATOM      9  N   UNL     1      16.667  37.590   5.793  0.00  0.00    -0.283 N 
ATOM     36  H   UNL     1      17.683  37.612   5.703  0.00  0.00    +0.155 HD
ATOM     37  N   UNL     1      16.870  35.740   7.221  0.00  0.00    -0.214 NA
BRANCH   4   3
ATOM      1  C   UNL     1      19.627  33.291   9.611  0.00  0.00    +0.020 A 
ATOM      2  C   UNL     1      18.708  34.225   9.002  0.00  0.00    +0.013 A 
ATOM      3  C   UNL     1      17.351  33.820   8.659  0.00  0.00    +0.019 A 
ATOM     38  C   UNL     1      16.951  32.451   8.949  0.00  0.00    +0.120 A 
ATOM     39  N   UNL     1      17.857  31.573   9.535  0.00  0.00    -0.263 NA
ATOM     40  C   UNL     1      19.167  31.952   9.867  0.00  0.00    +0.111 A 
ENDBRANCH   4   3
ENDBRANCH  10   9
BRANCH  12  13
ATOM     13  N   UNL     1      14.451  42.042   5.664  0.00  0.00    -0.281 N 
ATOM     14  C   UNL     1      14.947  43.293   5.333  0.00  0.00    +0.248 C 
ATOM     30  O   UNL     1      15.919  43.483   4.617  0.00  0.00    -0.270 OA
ATOM     31  H   UNL     1      13.765  42.018   6.419  0.00  0.00    +0.155 HD
BRANCH  14  15
ATOM     15  C   UNL     1      14.276  44.506   5.890  0.00  0.00    +0.037 A 
ATOM     16  C   UNL     1      12.816  44.596   5.974  0.00  0.00    +0.013 A 
ATOM     17  C   UNL     1      12.194  45.786   6.499  0.00  0.00    +0.005 A 
ATOM     18  C   UNL     1      13.033  46.895   6.946  0.00  0.00    -0.033 A 
ATOM     28  C   UNL     1      14.479  46.777   6.856  0.00  0.00    +0.005 A 
ATOM     29  C   UNL     1      15.092  45.613   6.341  0.00  0.00    +0.013 A 
BRANCH  18  19
ATOM     19  C   UNL     1      12.454  48.211   7.500  0.00  0.00    +0.119 C 
BRANCH  19  20
ATOM     20  N   UNL     1      13.084  48.768   8.735  0.00  0.00    -0.302 NA
ATOM     21  C   UNL     1      12.714  47.961   9.983  0.00  0.00    +0.066 C 
ATOM     22  C   UNL     1      13.399  48.544  11.261  0.00  0.00    -0.064 C 
ATOM     23  N   UNL     1      12.999  50.012  11.426  0.00  0.00    +0.379 N 
ATOM     24  C   UNL     1      13.595  50.547  12.659  0.00  0.00    -0.096 C 
ATOM     25  H   UNL     1      11.891  50.049  11.542  0.00  0.00    -0.082 HD
ATOM     26  C   UNL     1      13.361  50.820  10.189  0.00  0.00    -0.064 C 
ATOM     27  C   UNL     1      12.699  50.215   8.920  0.00  0.00    +0.066 C 
ENDBRANCH  19  20
ENDBRANCH  18  19
ENDBRANCH  14  15
ENDBRANCH  12  13
TORSDOF 6
ENDMDL
MODEL 4
REMARK VINA RESULT:     -11.1      2.184     13.009
REMARK  Name = C:\Users\Docking\Desktop\test protocol\1iep_ligandH.pdb
REMARK  8 active torsions:
REMARK  status: ('A' for Active; 'I' for Inactive)
REMARK    1  A    between atoms: _5  and  _11
REMARK    2  A    between atoms: _19  and  _21
REMARK    3  A    between atoms: _22  and  _66
REMARK    4  A    between atoms: _27  and  _30
REMARK    5  A    between atoms: _32  and  _33
REMARK    6  A    between atoms: _38  and  _43
REMARK    7  A    between atoms: _43  and  _46
REMARK    8  A    between atoms: _53  and  _55
REMARK                            x       y       z     vdW  Elec       q    Type
REMARK                         _______ _______ _______ _____ _____    ______ ____
ROOT
ATOM     10  C   UNL     1      15.865  38.682   5.160  0.00  0.00    +0.038 A 
ATOM     11  C   UNL     1      15.517  39.909   5.780  0.00  0.00    +0.047 A 
ATOM     12  C   UNL     1      14.735  40.913   5.076  0.00  0.00    +0.035 A 
ATOM     32  C   UNL     1      14.322  40.634   3.741  0.00  0.00    +0.024 A 
ATOM     33  C   UNL     1      14.668  39.392   3.094  0.00  0.00    +0.007 A 
ATOM     34  C   UNL     1      15.441  38.399   3.783  0.00  0.00    -0.029 A 
ATOM     35  C   UNL     1      15.788  37.089   3.038  0.00  0.00    +0.045 C 
ENDROOT
BRANCH  10   9
ATOM      4  C   UNL     1      16.242  34.827   7.995  0.00  0.00    +0.077 A 
ATOM      5  C   UNL     1      14.818  34.666   8.064  0.00  0.00    +0.048 A 
ATOM      6  C   UNL     1      14.024  35.600   7.362  0.00  0.00    +0.116 A 
ATOM      7  N   UNL     1      14.620  36.616   6.646  0.00  0.00    -0.223 NA
ATOM      8  C   UNL     1      15.996  36.744   6.602  0.00  0.00    +0.220 A 
ATOM      9  N   UNL     1      16.618  37.753   5.882  0.00  0.00    -0.283 N 
ATOM     36  H   UNL     1      17.635  37.818   5.880  0.00  0.00    +0.155 HD
ATOM     37  N   UNL     1      16.776  35.865   7.265  0.00  0.00    -0.214 NA
BRANCH   4   3
ATOM      1  C   UNL     1      19.504  33.366   9.582  0.00  0.00    +0.020 A 
ATOM      2  C   UNL     1      18.606  34.280   8.915  0.00  0.00    +0.013 A 
ATOM      3  C   UNL     1      17.214  33.918   8.680  0.00  0.00    +0.019 A 
ATOM     38  C   UNL     1      16.758  32.614   9.138  0.00  0.00    +0.120 A 
ATOM     39  N   UNL     1      17.646  31.754   9.776  0.00  0.00    -0.263 NA
ATOM     40  C   UNL     1      18.989  32.091  10.006  0.00  0.00    +0.111 A 
ENDBRANCH   4   3
ENDBRANCH  10   9
BRANCH  12  13
ATOM     13  N   UNL     1      14.358  42.180   5.652  0.00  0.00    -0.281 N 
ATOM     14  C   UNL     1      14.971  43.410   5.479  0.00  0.00    +0.248 C 
ATOM     30  O   UNL     1      16.070  43.569   4.968  0.00  0.00    -0.270 OA
ATOM     31  H   UNL     1      13.541  42.169   6.262  0.00  0.00    +0.155 HD
BRANCH  14  15
ATOM     15  C   UNL     1      14.268  44.640   5.954  0.00  0.00    +0.037 A 
ATOM     16  C   UNL     1      15.016  45.831   6.367  0.00  0.00    +0.013 A 
ATOM     17  C   UNL     1      14.313  46.999   6.838  0.00  0.00    +0.005 A 
ATOM     18  C   UNL     1      12.854  46.981   6.897  0.00  0.00    -0.033 A 
ATOM     28  C   UNL     1      12.137  45.788   6.476  0.00  0.00    +0.005 A 
ATOM     29  C   UNL     1      12.822  44.642   6.015  0.00  0.00    +0.013 A 
BRANCH  18  19
ATOM     19  C   UNL     1      12.023  48.174   7.406  0.00  0.00    +0.119 C 
BRANCH  19  20
ATOM     20  N   UNL     1      12.683  49.514   7.413  0.00  0.00    -0.302 NA
ATOM     21  C   UNL     1      13.101  49.941   8.823  0.00  0.00    +0.066 C 
ATOM     22  C   UNL     1      13.810  51.334   8.808  0.00  0.00    -0.064 C 
ATOM     23  N   UNL     1      12.876  52.372   8.183  0.00  0.00    +0.379 N 
ATOM     24  C   UNL     1      13.517  53.694   8.221  0.00  0.00    -0.096 C 
ATOM     25  H   UNL     1      11.958  52.423   8.812  0.00  0.00    -0.082 HD
ATOM     26  C   UNL     1      12.453  51.954   6.782  0.00  0.00    -0.064 C 
ATOM     27  C   UNL     1      11.777  50.555   6.803  0.00  0.00    +0.066 C 
ENDBRANCH  19  20
ENDBRANCH  18  19
ENDBRANCH  14  15
ENDBRANCH  12  13
TORSDOF 6
ENDMDL
MODEL 5
REMARK VINA RESULT:     -10.3      2.824     12.579
REMARK  Name = C:\Users\Docking\Desktop\test protocol\1iep_ligandH.pdb
REMARK  8 active torsions:
REMARK  status: ('A' for Active; 'I' for Inactive)
REMARK    1  A    between atoms: _5  and  _11
REMARK    2  A    between atoms: _19  and  _21
REMARK    3  A    between atoms: _22  and  _66
REMARK    4  A    between atoms: _27  and  _30
REMARK    5  A    between atoms: _32  and  _33
REMARK    6  A    between atoms: _38  and  _43
REMARK    7  A    between atoms: _43  and  _46
REMARK    8  A    between atoms: _53  and  _55
REMARK                            x       y       z     vdW  Elec       q    Type
REMARK                         _______ _______ _______ _____ _____    ______ ____
ROOT
ATOM     10  C   UNL     1      15.854  38.583   5.059  0.00  0.00    +0.038 A 
ATOM     11  C   UNL     1      15.499  39.827   5.641  0.00  0.00    +0.047 A 
ATOM     12  C   UNL     1      14.743  40.819   4.893  0.00  0.00    +0.035 A 
ATOM     32  C   UNL     1      14.361  40.510   3.555  0.00  0.00    +0.024 A 
ATOM     33  C   UNL     1      14.713  39.250   2.948  0.00  0.00    +0.007 A 
ATOM     34  C   UNL     1      15.462  38.269   3.680  0.00  0.00    -0.029 A 
ATOM     35  C   UNL     1      15.817  36.939   2.976  0.00  0.00    +0.045 C 
ENDROOT
BRANCH  10   9
ATOM      4  C   UNL     1      16.126  34.844   8.057  0.00  0.00    +0.077 A 
ATOM      5  C   UNL     1      14.698  34.723   8.130  0.00  0.00    +0.048 A 
ATOM      6  C   UNL     1      13.930  35.646   7.386  0.00  0.00    +0.116 A 
ATOM      7  N   UNL     1      14.553  36.615   6.629  0.00  0.00    -0.223 NA
ATOM      8  C   UNL     1      15.932  36.706   6.583  0.00  0.00    +0.220 A 
ATOM      9  N   UNL     1      16.581  37.667   5.823  0.00  0.00    -0.283 N 
ATOM     36  H   UNL     1      17.600  37.705   5.821  0.00  0.00    +0.155 HD
ATOM     37  N   UNL     1      16.688  35.836   7.285  0.00  0.00    -0.214 NA
BRANCH   4   3
ATOM      1  C   UNL     1      17.586  31.969  10.272  0.00  0.00    +0.020 A 
ATOM      2  C   UNL     1      16.630  32.811   9.591  0.00  0.00    +0.013 A 
ATOM      3  C   UNL     1      17.073  33.941   8.784  0.00  0.00    +0.019 A 
ATOM     38  C   UNL     1      18.503  34.193   8.685  0.00  0.00    +0.120 A 
ATOM     39  N   UNL     1      19.401  33.366   9.353  0.00  0.00    -0.263 NA
ATOM     40  C   UNL     1      18.985  32.277  10.134  0.00  0.00    +0.111 A 
ENDBRANCH   4   3
ENDBRANCH  10   9
BRANCH  12  13
ATOM     13  N   UNL     1      14.362  42.102   5.429  0.00  0.00    -0.281 N 
ATOM     14  C   UNL     1      14.837  43.352   5.065  0.00  0.00    +0.248 C 
ATOM     30  O   UNL     1      15.823  43.540   4.369  0.00  0.00    -0.270 OA
ATOM     31  H   UNL     1      13.656  42.088   6.165  0.00  0.00    +0.155 HD
BRANCH  14  15
ATOM     15  C   UNL     1      14.122  44.568   5.559  0.00  0.00    +0.037 A 
ATOM     16  C   UNL     1      14.139  45.820   4.799  0.00  0.00    +0.013 A 
ATOM     17  C   UNL     1      13.455  46.983   5.306  0.00  0.00    +0.005 A 
ATOM     18  C   UNL     1      12.746  46.898   6.580  0.00  0.00    -0.033 A 
ATOM     28  C   UNL     1      12.741  45.642   7.311  0.00  0.00    +0.005 A 
ATOM     29  C   UNL     1      13.411  44.500   6.818  0.00  0.00    +0.013 A 
BRANCH  18  19
ATOM     19  C   UNL     1      12.007  48.095   7.208  0.00  0.00    +0.119 C 
BRANCH  19  20
ATOM     20  N   UNL     1      10.589  48.315   6.795  0.00  0.00    -0.302 NA
ATOM     21  C   UNL     1       9.620  48.184   7.974  0.00  0.00    +0.066 C 
ATOM     22  C   UNL     1       8.144  48.439   7.529  0.00  0.00    -0.064 C 
ATOM     23  N   UNL     1       7.774  47.461   6.412  0.00  0.00    +0.379 N 
ATOM     24  C   UNL     1       6.368  47.660   6.032  0.00  0.00    -0.096 C 
ATOM     25  H   UNL     1       7.871  46.429   6.822  0.00  0.00    -0.082 HD
ATOM     26  C   UNL     1       8.733  47.584   5.237  0.00  0.00    -0.064 C 
ATOM     27  C   UNL     1      10.201  47.357   5.696  0.00  0.00    +0.066 C 
ENDBRANCH  19  20
ENDBRANCH  18  19
ENDBRANCH  14  15
ENDBRANCH  12  13
TORSDOF 6
ENDMDL
