MODEL 1
REMARK VINA RESULT:      -8.6      0.000      0.000
REMARK  Name = C:\Users\Docking\Desktop\test protocol\1iep_ligandH.pdb
REMARK  8 active torsions:
REMARK  status: ('A' for Active; 'I' for Inactive)
REMARK    1  A    between atoms: _5  and  _11
REMARK    2  A    between atoms: _19  and  _21
REMARK    3  A    between atoms: _22  and  _66
REMARK    4  A    between atoms: _27  and  _30
REMARK    5  A    between atoms: _32  and  _33
REMARK    6  A    between atoms: _38  and  _43
REMARK    7  A    between atoms: _43  and  _46
REMARK    8  A    between atoms: _53  and  _55
REMARK                            x       y       z     vdW  Elec       q    Type
REMARK                         _______ _______ _______ _____ _____    ______ ____
ROOT
ATOM     10  C   UNL     1      20.881  -1.529   8.796  0.00  0.00    +0.038 A 
ATOM     11  C   UNL     1      21.307  -1.597  10.146  0.00  0.00    +0.047 A 
ATOM     12  C   UNL     1      20.722  -2.554  11.073  0.00  0.00    +0.035 A 
ATOM     32  C   UNL     1      19.706  -3.428  10.589  0.00  0.00    +0.024 A 
ATOM     33  C   UNL     1      19.260  -3.371   9.219  0.00  0.00    +0.007 A 
ATOM     34  C   UNL     1      19.831  -2.428   8.301  0.00  0.00    -0.029 A 
ATOM     35  C   UNL     1      19.310  -2.408   6.846  0.00  0.00    +0.045 C 
ENDROOT
BRANCH  10   9
ATOM      4  C   UNL     1      20.871   2.648   6.431  0.00  0.00    +0.077 A 
ATOM      5  C   UNL     1      19.556   2.978   6.899  0.00  0.00    +0.048 A 
ATOM      6  C   UNL     1      18.913   2.043   7.741  0.00  0.00    +0.116 A 
ATOM      7  N   UNL     1      19.548   0.868   8.083  0.00  0.00    -0.223 NA
ATOM      8  C   UNL     1      20.816   0.580   7.612  0.00  0.00    +0.220 A 
ATOM      9  N   UNL     1      21.477  -0.591   7.950  0.00  0.00    -0.283 N 
ATOM     36  H   UNL     1      22.409  -0.770   7.576  0.00  0.00    +0.155 HD
ATOM     37  N   UNL     1      21.450   1.457   6.806  0.00  0.00    -0.214 NA
BRANCH   4   3
ATOM      1  C   UNL     1      23.848   4.606   4.818  0.00  0.00    +0.020 A 
ATOM      2  C   UNL     1      23.113   3.738   5.709  0.00  0.00    +0.013 A 
ATOM      3  C   UNL     1      21.680   3.536   5.537  0.00  0.00    +0.019 A 
ATOM     38  C   UNL     1      21.016   4.231   4.445  0.00  0.00    +0.120 A 
ATOM     39  N   UNL     1      21.750   5.061   3.603  0.00  0.00    -0.263 NA
ATOM     40  C   UNL     1      23.129   5.265   3.760  0.00  0.00    +0.111 A 
ENDBRANCH   4   3
ENDBRANCH  10   9
BRANCH  12  13
ATOM     13  N   UNL     1      21.109  -2.663  12.458  0.00  0.00    -0.281 N 
ATOM     14  C   UNL     1      21.867  -3.658  13.054  0.00  0.00    +0.248 C 
ATOM     30  O   UNL     1      22.149  -4.723  12.524  0.00  0.00    -0.270 OA
ATOM     31  H   UNL     1      20.785  -1.917  13.073  0.00  0.00    +0.155 HD
BRANCH  14  15
ATOM     15  C   UNL     1      22.372  -3.446  14.444  0.00  0.00    +0.037 A 
ATOM     16  C   UNL     1      23.701  -3.910  14.849  0.00  0.00    +0.013 A 
ATOM     17  C   UNL     1      24.157  -3.707  16.201  0.00  0.00    +0.005 A 
ATOM     18  C   UNL     1      23.283  -3.035  17.159  0.00  0.00    -0.033 A 
ATOM     28  C   UNL     1      21.971  -2.580  16.729  0.00  0.00    +0.005 A 
ATOM     29  C   UNL     1      21.520  -2.778  15.405  0.00  0.00    +0.013 A 
BRANCH  18  19
ATOM     19  C   UNL     1      23.678  -2.795  18.628  0.00  0.00    +0.119 C 
BRANCH  19  20
ATOM     20  N   UNL     1      24.949  -3.419  19.105  0.00  0.00    -0.302 NA
ATOM     21  C   UNL     1      24.711  -4.396  20.259  0.00  0.00    +0.066 C 
ATOM     22  C   UNL     1      26.047  -5.056  20.731  0.00  0.00    -0.064 C 
ATOM     23  N   UNL     1      27.036  -3.963  21.140  0.00  0.00    +0.379 N 
ATOM     24  C   UNL     1      28.273  -4.583  21.639  0.00  0.00    -0.096 C 
ATOM     25  H   UNL     1      26.580  -3.394  21.983  0.00  0.00    -0.082 HD
ATOM     26  C   UNL     1      27.276  -2.986  19.999  0.00  0.00    -0.064 C 
ATOM     27  C   UNL     1      25.938  -2.358  19.518  0.00  0.00    +0.066 C 
ENDBRANCH  19  20
ENDBRANCH  18  19
ENDBRANCH  14  15
ENDBRANCH  12  13
TORSDOF 6
ENDMDL
MODEL 2
REMARK VINA RESULT:      -8.3      1.441      2.097
REMARK  Name = C:\Users\Docking\Desktop\test protocol\1iep_ligandH.pdb
REMARK  8 active torsions:
REMARK  status: ('A' for Active; 'I' for Inactive)
REMARK    1  A    between atoms: _5  and  _11
REMARK    2  A    between atoms: _19  and  _21
REMARK    3  A    between atoms: _22  and  _66
REMARK    4  A    between atoms: _27  and  _30
REMARK    5  A    between atoms: _32  and  _33
REMARK    6  A    between atoms: _38  and  _43
REMARK    7  A    between atoms: _43  and  _46
REMARK    8  A    between atoms: _53  and  _55
REMARK                            x       y       z     vdW  Elec       q    Type
REMARK                         _______ _______ _______ _____ _____    ______ ____
ROOT
ATOM     10  C   UNL     1      20.684  -1.331   8.693  0.00  0.00    +0.038 A 
ATOM     11  C   UNL     1      21.232  -1.504   9.990  0.00  0.00    +0.047 A 
ATOM     12  C   UNL     1      20.638  -2.432  10.940  0.00  0.00    +0.035 A 
ATOM     32  C   UNL     1      19.488  -3.170  10.535  0.00  0.00    +0.024 A 
ATOM     33  C   UNL     1      18.918  -3.006   9.221  0.00  0.00    +0.007 A 
ATOM     34  C   UNL     1      19.498  -2.090   8.280  0.00  0.00    -0.029 A 
ATOM     35  C   UNL     1      18.840  -1.950   6.888  0.00  0.00    +0.045 C 
ENDROOT
BRANCH  10   9
ATOM      4  C   UNL     1      20.793   2.833   6.309  0.00  0.00    +0.077 A 
ATOM      5  C   UNL     1      19.513   3.228   6.822  0.00  0.00    +0.048 A 
ATOM      6  C   UNL     1      18.856   2.328   7.691  0.00  0.00    +0.116 A 
ATOM      7  N   UNL     1      19.445   1.126   8.016  0.00  0.00    -0.223 NA
ATOM      8  C   UNL     1      20.680   0.775   7.502  0.00  0.00    +0.220 A 
ATOM      9  N   UNL     1      21.295  -0.426   7.822  0.00  0.00    -0.283 N 
ATOM     36  H   UNL     1      22.203  -0.652   7.416  0.00  0.00    +0.155 HD
ATOM     37  N   UNL     1      21.327   1.616   6.669  0.00  0.00    -0.214 NA
BRANCH   4   3
ATOM      1  C   UNL     1      21.902   5.090   3.312  0.00  0.00    +0.020 A 
ATOM      2  C   UNL     1      21.068   4.283   4.173  0.00  0.00    +0.013 A 
ATOM      3  C   UNL     1      21.612   3.677   5.382  0.00  0.00    +0.019 A 
ATOM     38  C   UNL     1      23.014   3.910   5.694  0.00  0.00    +0.120 A 
ATOM     39  N   UNL     1      23.793   4.690   4.846  0.00  0.00    -0.263 NA
ATOM     40  C   UNL     1      23.281   5.277   3.679  0.00  0.00    +0.111 A 
ENDBRANCH   4   3
ENDBRANCH  10   9
BRANCH  12  13
ATOM     13  N   UNL     1      21.145  -2.643  12.273  0.00  0.00    -0.281 N 
ATOM     14  C   UNL     1      21.781  -3.767  12.774  0.00  0.00    +0.248 C 
ATOM     30  O   UNL     1      21.821  -4.849  12.208  0.00  0.00    -0.270 OA
ATOM     31  H   UNL     1      21.020  -1.870  12.927  0.00  0.00    +0.155 HD
BRANCH  14  15
ATOM     15  C   UNL     1      22.460  -3.681  14.103  0.00  0.00    +0.037 A 
ATOM     16  C   UNL     1      23.710  -4.397  14.366  0.00  0.00    +0.013 A 
ATOM     17  C   UNL     1      24.335  -4.311  15.662  0.00  0.00    +0.005 A 
ATOM     18  C   UNL     1      23.710  -3.502  16.706  0.00  0.00    -0.033 A 
ATOM     28  C   UNL     1      22.472  -2.798  16.417  0.00  0.00    +0.005 A 
ATOM     29  C   UNL     1      21.856  -2.881  15.148  0.00  0.00    +0.013 A 
BRANCH  18  19
ATOM     19  C   UNL     1      24.295  -3.370  18.124  0.00  0.00    +0.119 C 
BRANCH  19  20
ATOM     20  N   UNL     1      24.350  -2.000  18.716  0.00  0.00    -0.302 NA
ATOM     21  C   UNL     1      25.730  -1.680  19.297  0.00  0.00    +0.066 C 
ATOM     22  C   UNL     1      25.776  -0.235  19.892  0.00  0.00    -0.064 C 
ATOM     23  N   UNL     1      24.692  -0.091  20.961  0.00  0.00    +0.379 N 
ATOM     24  C   UNL     1      24.771   1.248  21.563  0.00  0.00    -0.096 C 
ATOM     25  H   UNL     1      24.907  -0.835  21.762  0.00  0.00    -0.082 HD
ATOM     26  C   UNL     1      23.317  -0.410  20.392  0.00  0.00    -0.064 C 
ATOM     27  C   UNL     1      23.290  -1.837  19.778  0.00  0.00    +0.066 C 
ENDBRANCH  19  20
ENDBRANCH  18  19
ENDBRANCH  14  15
ENDBRANCH  12  13
TORSDOF 6
ENDMDL
MODEL 3
REMARK VINA RESULT:      -8.1     13.356     17.782
REMARK  Name = C:\Users\Docking\Desktop\test protocol\1iep_ligandH.pdb
REMARK  8 active torsions:
REMARK  status: ('A' for Active; 'I' for Inactive)
REMARK    1  A    between atoms: _5  and  _11
REMARK    2  A    between atoms: _19  and  _21
REMARK    3  A    between atoms: _22  and  _66
REMARK    4  A    between atoms: _27  and  _30
REMARK    5  A    between atoms: _32  and  _33
REMARK    6  A    between atoms: _38  and  _43
REMARK    7  A    between atoms: _43  and  _46
REMARK    8  A    between atoms: _53  and  _55
REMARK                            x       y       z     vdW  Elec       q    Type
REMARK                         _______ _______ _______ _____ _____    ______ ____
ROOT
ATOM     10  C   UNL     1      28.106   9.128   1.785  0.00  0.00    +0.038 A 
ATOM     11  C   UNL     1      26.725   8.840   1.646  0.00  0.00    +0.047 A 
ATOM     12  C   UNL     1      26.249   7.471   1.526  0.00  0.00    +0.035 A 
ATOM     32  C   UNL     1      27.210   6.417   1.554  0.00  0.00    +0.024 A 
ATOM     33  C   UNL     1      28.618   6.692   1.694  0.00  0.00    +0.007 A 
ATOM     34  C   UNL     1      29.093   8.041   1.810  0.00  0.00    -0.029 A 
ATOM     35  C   UNL     1      30.615   8.277   1.951  0.00  0.00    +0.045 C 
ENDROOT
BRANCH  10   9
ATOM      4  C   UNL     1      29.467  13.313  -0.131  0.00  0.00    +0.077 A 
ATOM      5  C   UNL     1      29.400  12.791  -1.465  0.00  0.00    +0.048 A 
ATOM      6  C   UNL     1      29.019  11.439  -1.615  0.00  0.00    +0.116 A 
ATOM      7  N   UNL     1      28.727  10.675  -0.506  0.00  0.00    -0.223 NA
ATOM      8  C   UNL     1      28.803  11.209   0.767  0.00  0.00    +0.220 A 
ATOM      9  N   UNL     1      28.507  10.461   1.897  0.00  0.00    -0.283 N 
ATOM     36  H   UNL     1      28.582  10.889   2.819  0.00  0.00    +0.155 HD
ATOM     37  N   UNL     1      29.167  12.497   0.937  0.00  0.00    -0.214 NA
BRANCH   4   3
ATOM      1  C   UNL     1      30.444  17.085  -0.470  0.00  0.00    +0.020 A 
ATOM      2  C   UNL     1      30.075  15.737  -0.834  0.00  0.00    +0.013 A 
ATOM      3  C   UNL     1      29.852  14.724   0.190  0.00  0.00    +0.019 A 
ATOM     38  C   UNL     1      30.011  15.111   1.584  0.00  0.00    +0.120 A 
ATOM     39  N   UNL     1      30.369  16.417   1.904  0.00  0.00    -0.263 NA
ATOM     40  C   UNL     1      30.588  17.400   0.927  0.00  0.00    +0.111 A 
ENDBRANCH   4   3
ENDBRANCH  10   9
BRANCH  12  13
ATOM     13  N   UNL     1      24.860   7.118   1.374  0.00  0.00    -0.281 N 
ATOM     14  C   UNL     1      24.184   6.053   1.946  0.00  0.00    +0.248 C 
ATOM     30  O   UNL     1      24.726   5.113   2.509  0.00  0.00    -0.270 OA
ATOM     31  H   UNL     1      24.307   7.728   0.772  0.00  0.00    +0.155 HD
BRANCH  14  15
ATOM     15  C   UNL     1      22.692   6.019   1.870  0.00  0.00    +0.037 A 
ATOM     16  C   UNL     1      21.952   6.972   1.039  0.00  0.00    +0.013 A 
ATOM     17  C   UNL     1      20.511   6.929   0.997  0.00  0.00    +0.005 A 
ATOM     18  C   UNL     1      19.802   5.926   1.787  0.00  0.00    -0.033 A 
ATOM     28  C   UNL     1      20.561   4.989   2.599  0.00  0.00    +0.005 A 
ATOM     29  C   UNL     1      21.972   5.030   2.644  0.00  0.00    +0.013 A 
BRANCH  18  19
ATOM     19  C   UNL     1      18.265   5.820   1.819  0.00  0.00    +0.119 C 
BRANCH  19  20
ATOM     20  N   UNL     1      17.574   5.520   0.530  0.00  0.00    -0.302 NA
ATOM     21  C   UNL     1      16.051   5.496   0.687  0.00  0.00    +0.066 C 
ATOM     22  C   UNL     1      15.343   5.203  -0.676  0.00  0.00    -0.064 C 
ATOM     23  N   UNL     1      15.850   3.872  -1.235  0.00  0.00    +0.379 N 
ATOM     24  C   UNL     1      15.144   3.565  -2.487  0.00  0.00    -0.096 C 
ATOM     25  H   UNL     1      15.594   3.076  -0.498  0.00  0.00    -0.082 HD
ATOM     26  C   UNL     1      17.364   3.886  -1.392  0.00  0.00    -0.064 C 
ATOM     27  C   UNL     1      18.057   4.208  -0.038  0.00  0.00    +0.066 C 
ENDBRANCH  19  20
ENDBRANCH  18  19
ENDBRANCH  14  15
ENDBRANCH  12  13
TORSDOF 6
ENDMDL
MODEL 4
REMARK VINA RESULT:      -8.1      3.525     13.582
REMARK  Name = C:\Users\Docking\Desktop\test protocol\1iep_ligandH.pdb
REMARK  8 active torsions:
REMARK  status: ('A' for Active; 'I' for Inactive)
REMARK    1  A    between atoms: _5  and  _11
REMARK    2  A    between atoms: _19  and  _21
REMARK    3  A    between atoms: _22  and  _66
REMARK    4  A    between atoms: _27  and  _30
REMARK    5  A    between atoms: _32  and  _33
REMARK    6  A    between atoms: _38  and  _43
REMARK    7  A    between atoms: _43  and  _46
REMARK    8  A    between atoms: _53  and  _55
REMARK                            x       y       z     vdW  Elec       q    Type
REMARK                         _______ _______ _______ _____ _____    ______ ____
ROOT
ATOM     10  C   UNL     1      19.771  -0.103   9.453  0.00  0.00    +0.038 A 
ATOM     11  C   UNL     1      20.591   0.539   8.490  0.00  0.00    +0.047 A 
ATOM     12  C   UNL     1      20.023   1.105   7.276  0.00  0.00    +0.035 A 
ATOM     32  C   UNL     1      18.616   1.003   7.077  0.00  0.00    +0.024 A 
ATOM     33  C   UNL     1      17.768   0.353   8.045  0.00  0.00    +0.007 A 
ATOM     34  C   UNL     1      18.322  -0.210   9.243  0.00  0.00    -0.029 A 
ATOM     35  C   UNL     1      17.367  -0.901  10.243  0.00  0.00    +0.045 C 
ENDROOT
BRANCH  10   9
ATOM      4  C   UNL     1      21.425  -3.780  12.057  0.00  0.00    +0.077 A 
ATOM      5  C   UNL     1      21.041  -4.736  11.059  0.00  0.00    +0.048 A 
ATOM      6  C   UNL     1      20.414  -4.242   9.894  0.00  0.00    +0.116 A 
ATOM      7  N   UNL     1      20.193  -2.889   9.747  0.00  0.00    -0.223 NA
ATOM      8  C   UNL     1      20.574  -1.994  10.730  0.00  0.00    +0.220 A 
ATOM      9  N   UNL     1      20.369  -0.629  10.600  0.00  0.00    -0.283 N 
ATOM     36  H   UNL     1      20.658  -0.002  11.351  0.00  0.00    +0.155 HD
ATOM     37  N   UNL     1      21.173  -2.442  11.853  0.00  0.00    -0.214 NA
BRANCH   4   3
ATOM      1  C   UNL     1      23.979  -5.193  14.661  0.00  0.00    +0.020 A 
ATOM      2  C   UNL     1      23.369  -4.862  13.394  0.00  0.00    +0.013 A 
ATOM      3  C   UNL     1      22.100  -4.147  13.342  0.00  0.00    +0.019 A 
ATOM     38  C   UNL     1      21.470  -3.777  14.600  0.00  0.00    +0.120 A 
ATOM     39  N   UNL     1      22.080  -4.110  15.806  0.00  0.00    -0.263 NA
ATOM     40  C   UNL     1      23.300  -4.799  15.868  0.00  0.00    +0.111 A 
ENDBRANCH   4   3
ENDBRANCH  10   9
BRANCH  12  13
ATOM     13  N   UNL     1      20.807   1.761   6.259  0.00  0.00    -0.281 N 
ATOM     14  C   UNL     1      20.933   3.121   6.026  0.00  0.00    +0.248 C 
ATOM     30  O   UNL     1      20.219   3.977   6.527  0.00  0.00    -0.270 OA
ATOM     31  H   UNL     1      21.332   1.149   5.635  0.00  0.00    +0.155 HD
BRANCH  14  15
ATOM     15  C   UNL     1      21.998   3.598   5.091  0.00  0.00    +0.037 A 
ATOM     16  C   UNL     1      21.824   3.519   3.639  0.00  0.00    +0.013 A 
ATOM     17  C   UNL     1      22.874   3.970   2.759  0.00  0.00    +0.005 A 
ATOM     18  C   UNL     1      24.107   4.505   3.331  0.00  0.00    -0.033 A 
ATOM     28  C   UNL     1      24.250   4.577   4.776  0.00  0.00    +0.005 A 
ATOM     29  C   UNL     1      23.224   4.135   5.641  0.00  0.00    +0.013 A 
BRANCH  18  19
ATOM     19  C   UNL     1      25.287   4.990   2.469  0.00  0.00    +0.119 C 
BRANCH  19  20
ATOM     20  N   UNL     1      25.427   6.463   2.266  0.00  0.00    -0.302 NA
ATOM     21  C   UNL     1      24.278   7.039   1.433  0.00  0.00    +0.066 C 
ATOM     22  C   UNL     1      24.428   8.584   1.249  0.00  0.00    -0.064 C 
ATOM     23  N   UNL     1      25.777   8.889   0.596  0.00  0.00    +0.379 N 
ATOM     24  C   UNL     1      25.896  10.337   0.369  0.00  0.00    -0.096 C 
ATOM     25  H   UNL     1      25.792   8.388  -0.400  0.00  0.00    -0.082 HD
ATOM     26  C   UNL     1      26.924   8.317   1.417  0.00  0.00    -0.064 C 
ATOM     27  C   UNL     1      26.751   6.786   1.619  0.00  0.00    +0.066 C 
ENDBRANCH  19  20
ENDBRANCH  18  19
ENDBRANCH  14  15
ENDBRANCH  12  13
TORSDOF 6
ENDMDL
MODEL 5
REMARK VINA RESULT:      -7.8      9.888     15.118
REMARK  Name = C:\Users\Docking\Desktop\test protocol\1iep_ligandH.pdb
REMARK  8 active torsions:
REMARK  status: ('A' for Active; 'I' for Inactive)
REMARK    1  A    between atoms: _5  and  _11
REMARK    2  A    between atoms: _19  and  _21
REMARK    3  A    between atoms: _22  and  _66
REMARK    4  A    between atoms: _27  and  _30
REMARK    5  A    between atoms: _32  and  _33
REMARK    6  A    between atoms: _38  and  _43
REMARK    7  A    between atoms: _43  and  _46
REMARK    8  A    between atoms: _53  and  _55
REMARK                            x       y       z     vdW  Elec       q    Type
REMARK                         _______ _______ _______ _____ _____    ______ ____
ROOT
ATOM     10  C   UNL     1      24.301  -0.134  20.655  0.00  0.00    +0.038 A 
ATOM     11  C   UNL     1      24.626   0.729  21.732  0.00  0.00    +0.047 A 
ATOM     12  C   UNL     1      24.970   2.123  21.502  0.00  0.00    +0.035 A 
ATOM     32  C   UNL     1      24.971   2.606  20.161  0.00  0.00    +0.024 A 
ATOM     33  C   UNL     1      24.643   1.743  19.054  0.00  0.00    +0.007 A 
ATOM     34  C   UNL     1      24.305   0.366  19.275  0.00  0.00    -0.029 A 
ATOM     35  C   UNL     1      23.969  -0.515  18.049  0.00  0.00    +0.045 C 
ENDROOT
BRANCH  10   9
ATOM      4  C   UNL     1      25.447  -4.781  21.022  0.00  0.00    +0.077 A 
ATOM      5  C   UNL     1      26.796  -4.542  20.598  0.00  0.00    +0.048 A 
ATOM      6  C   UNL     1      27.153  -3.211  20.287  0.00  0.00    +0.116 A 
ATOM      7  N   UNL     1      26.222  -2.201  20.397  0.00  0.00    -0.223 NA
ATOM      8  C   UNL     1      24.928  -2.465  20.808  0.00  0.00    +0.220 A 
ATOM      9  N   UNL     1      23.978  -1.464  20.933  0.00  0.00    -0.283 N 
ATOM     36  H   UNL     1      23.032  -1.701  21.232  0.00  0.00    +0.155 HD
ATOM     37  N   UNL     1      24.562  -3.729  21.109  0.00  0.00    -0.214 NA
BRANCH   4   3
ATOM      1  C   UNL     1      24.857  -8.188  22.850  0.00  0.00    +0.020 A 
ATOM      2  C   UNL     1      25.400  -6.886  22.539  0.00  0.00    +0.013 A 
ATOM      3  C   UNL     1      24.919  -6.133  21.388  0.00  0.00    +0.019 A 
ATOM     38  C   UNL     1      23.879  -6.730  20.565  0.00  0.00    +0.120 A 
ATOM     39  N   UNL     1      23.375  -7.986  20.887  0.00  0.00    -0.263 NA
ATOM     40  C   UNL     1      23.831  -8.721  21.991  0.00  0.00    +0.111 A 
ENDBRANCH   4   3
ENDBRANCH  10   9
BRANCH  12  13
ATOM     13  N   UNL     1      25.317   3.044  22.556  0.00  0.00    -0.281 N 
ATOM     14  C   UNL     1      24.482   3.598  23.512  0.00  0.00    +0.248 C 
ATOM     30  O   UNL     1      23.261   3.551  23.474  0.00  0.00    -0.270 OA
ATOM     31  H   UNL     1      26.298   3.321  22.603  0.00  0.00    +0.155 HD
BRANCH  14  15
ATOM     15  C   UNL     1      25.090   4.322  24.670  0.00  0.00    +0.037 A 
ATOM     16  C   UNL     1      26.398   4.972  24.558  0.00  0.00    +0.013 A 
ATOM     17  C   UNL     1      26.969   5.649  25.695  0.00  0.00    +0.005 A 
ATOM     18  C   UNL     1      26.230   5.680  26.955  0.00  0.00    -0.033 A 
ATOM     28  C   UNL     1      24.932   5.031  27.037  0.00  0.00    +0.005 A 
ATOM     29  C   UNL     1      24.370   4.366  25.925  0.00  0.00    +0.013 A 
BRANCH  18  19
ATOM     19  C   UNL     1      26.772   6.360  28.226  0.00  0.00    +0.119 C 
BRANCH  19  20
ATOM     20  N   UNL     1      27.670   5.552  29.105  0.00  0.00    -0.302 NA
ATOM     21  C   UNL     1      26.900   4.868  30.238  0.00  0.00    +0.066 C 
ATOM     22  C   UNL     1      27.850   4.009  31.134  0.00  0.00    -0.064 C 
ATOM     23  N   UNL     1      28.961   4.899  31.694  0.00  0.00    +0.379 N 
ATOM     24  C   UNL     1      29.823   4.107  32.584  0.00  0.00    -0.096 C 
ATOM     25  H   UNL     1      28.480   5.694  32.310  0.00  0.00    -0.082 HD
ATOM     26  C   UNL     1      29.730   5.586  30.574  0.00  0.00    -0.064 C 
ATOM     27  C   UNL     1      28.772   6.413  29.672  0.00  0.00    +0.066 C 
ENDBRANCH  19  20
ENDBRANCH  18  19
ENDBRANCH  14  15
ENDBRANCH  12  13
TORSDOF 6
ENDMDL
