MODEL 1
REMARK VINA RESULT:      -8.3      0.000      0.000
REMARK  Name = C:\Users\Docking\Desktop\test protocol\1iep_ligandH.pdb
REMARK  8 active torsions:
REMARK  status: ('A' for Active; 'I' for Inactive)
REMARK    1  A    between atoms: _5  and  _11
REMARK    2  A    between atoms: _19  and  _21
REMARK    3  A    between atoms: _22  and  _66
REMARK    4  A    between atoms: _27  and  _30
REMARK    5  A    between atoms: _32  and  _33
REMARK    6  A    between atoms: _38  and  _43
REMARK    7  A    between atoms: _43  and  _46
REMARK    8  A    between atoms: _53  and  _55
REMARK                            x       y       z     vdW  Elec       q    Type
REMARK                         _______ _______ _______ _____ _____    ______ ____
ROOT
ATOM     10  C   UNL     1       9.395  22.919   9.049  0.00  0.00    +0.038 A 
ATOM     11  C   UNL     1      10.648  23.010   8.390  0.00  0.00    +0.047 A 
ATOM     12  C   UNL     1      11.789  22.222   8.832  0.00  0.00    +0.035 A 
ATOM     32  C   UNL     1      11.617  21.351   9.947  0.00  0.00    +0.024 A 
ATOM     33  C   UNL     1      10.351  21.247  10.629  0.00  0.00    +0.007 A 
ATOM     34  C   UNL     1       9.223  22.023  10.199  0.00  0.00    -0.029 A 
ATOM     35  C   UNL     1       7.892  21.877  10.972  0.00  0.00    +0.045 C 
ENDROOT
BRANCH  10   9
ATOM      4  C   UNL     1       7.123  27.118   8.557  0.00  0.00    +0.077 A 
ATOM      5  C   UNL     1       8.121  27.815   9.316  0.00  0.00    +0.048 A 
ATOM      6  C   UNL     1       9.200  27.055   9.821  0.00  0.00    +0.116 A 
ATOM      7  N   UNL     1       9.265  25.700   9.579  0.00  0.00    -0.223 NA
ATOM      8  C   UNL     1       8.284  25.058   8.845  0.00  0.00    +0.220 A 
ATOM      9  N   UNL     1       8.333  23.698   8.583  0.00  0.00    -0.283 N 
ATOM     36  H   UNL     1       7.586  23.261   8.044  0.00  0.00    +0.155 HD
ATOM     37  N   UNL     1       7.243  25.762   8.353  0.00  0.00    -0.214 NA
BRANCH   4   3
ATOM      1  C   UNL     1       4.346  29.734   7.691  0.00  0.00    +0.020 A 
ATOM      2  C   UNL     1       5.511  29.137   8.303  0.00  0.00    +0.013 A 
ATOM      3  C   UNL     1       5.924  27.783   7.955  0.00  0.00    +0.019 A 
ATOM     38  C   UNL     1       5.131  27.055   6.976  0.00  0.00    +0.120 A 
ATOM     39  N   UNL     1       4.013  27.655   6.405  0.00  0.00    -0.263 NA
ATOM     40  C   UNL     1       3.605  28.956   6.734  0.00  0.00    +0.111 A 
ENDBRANCH   4   3
ENDBRANCH  10   9
BRANCH  12  13
ATOM     13  N   UNL     1      13.087  22.278   8.207  0.00  0.00    -0.281 N 
ATOM     14  C   UNL     1      13.436  21.869   6.931  0.00  0.00    +0.248 C 
ATOM     30  O   UNL     1      12.725  21.192   6.203  0.00  0.00    -0.270 OA
ATOM     31  H   UNL     1      13.840  22.667   8.775  0.00  0.00    +0.155 HD
BRANCH  14  15
ATOM     15  C   UNL     1      14.775  22.256   6.389  0.00  0.00    +0.037 A 
ATOM     16  C   UNL     1      14.903  22.963   5.113  0.00  0.00    +0.013 A 
ATOM     17  C   UNL     1      16.207  23.309   4.605  0.00  0.00    +0.005 A 
ATOM     18  C   UNL     1      17.394  22.949   5.376  0.00  0.00    -0.033 A 
ATOM     28  C   UNL     1      17.238  22.252   6.642  0.00  0.00    +0.005 A 
ATOM     29  C   UNL     1      15.962  21.911   7.143  0.00  0.00    +0.013 A 
BRANCH  18  19
ATOM     19  C   UNL     1      18.826  23.260   4.901  0.00  0.00    +0.119 C 
BRANCH  19  20
ATOM     20  N   UNL     1      18.999  24.402   3.954  0.00  0.00    -0.302 NA
ATOM     21  C   UNL     1      20.353  24.355   3.240  0.00  0.00    +0.066 C 
ATOM     22  C   UNL     1      20.509  25.544   2.237  0.00  0.00    -0.064 C 
ATOM     23  N   UNL     1      20.337  26.866   2.987  0.00  0.00    +0.379 N 
ATOM     24  C   UNL     1      20.540  27.987   2.058  0.00  0.00    -0.096 C 
ATOM     25  H   UNL     1      21.136  26.921   3.763  0.00  0.00    -0.082 HD
ATOM     26  C   UNL     1      18.995  26.920   3.702  0.00  0.00    -0.064 C 
ATOM     27  C   UNL     1      18.838  25.718   4.675  0.00  0.00    +0.066 C 
ENDBRANCH  19  20
ENDBRANCH  18  19
ENDBRANCH  14  15
ENDBRANCH  12  13
TORSDOF 6
ENDMDL
MODEL 2
REMARK VINA RESULT:      -8.1      1.304      1.961
REMARK  Name = C:\Users\Docking\Desktop\test protocol\1iep_ligandH.pdb
REMARK  8 active torsions:
REMARK  status: ('A' for Active; 'I' for Inactive)
REMARK    1  A    between atoms: _5  and  _11
REMARK    2  A    between atoms: _19  and  _21
REMARK    3  A    between atoms: _22  and  _66
REMARK    4  A    between atoms: _27  and  _30
REMARK    5  A    between atoms: _32  and  _33
REMARK    6  A    between atoms: _38  and  _43
REMARK    7  A    between atoms: _43  and  _46
REMARK    8  A    between atoms: _53  and  _55
REMARK                            x       y       z     vdW  Elec       q    Type
REMARK                         _______ _______ _______ _____ _____    ______ ____
ROOT
ATOM     10  C   UNL     1       9.324  23.195   8.941  0.00  0.00    +0.038 A 
ATOM     11  C   UNL     1      10.513  23.413   8.200  0.00  0.00    +0.047 A 
ATOM     12  C   UNL     1      11.743  22.706   8.524  0.00  0.00    +0.035 A 
ATOM     32  C   UNL     1      11.724  21.782   9.608  0.00  0.00    +0.024 A 
ATOM     33  C   UNL     1      10.525  21.548  10.373  0.00  0.00    +0.007 A 
ATOM     34  C   UNL     1       9.310  22.245  10.060  0.00  0.00    -0.029 A 
ATOM     35  C   UNL     1       8.055  21.960  10.918  0.00  0.00    +0.045 C 
ENDROOT
BRANCH  10   9
ATOM      4  C   UNL     1       6.783  27.253   8.604  0.00  0.00    +0.077 A 
ATOM      5  C   UNL     1       7.827  28.027   9.210  0.00  0.00    +0.048 A 
ATOM      6  C   UNL     1       9.000  27.342   9.601  0.00  0.00    +0.116 A 
ATOM      7  N   UNL     1       9.108  25.984   9.396  0.00  0.00    -0.223 NA
ATOM      8  C   UNL     1       8.081  25.266   8.810  0.00  0.00    +0.220 A 
ATOM      9  N   UNL     1       8.172  23.901   8.587  0.00  0.00    -0.283 N 
ATOM     36  H   UNL     1       7.390  23.407   8.159  0.00  0.00    +0.155 HD
ATOM     37  N   UNL     1       6.951  25.897   8.429  0.00  0.00    -0.214 NA
BRANCH   4   3
ATOM      1  C   UNL     1       3.956  29.777   7.633  0.00  0.00    +0.020 A 
ATOM      2  C   UNL     1       5.227  29.267   8.095  0.00  0.00    +0.013 A 
ATOM      3  C   UNL     1       5.485  27.833   8.135  0.00  0.00    +0.019 A 
ATOM     38  C   UNL     1       4.428  26.935   7.695  0.00  0.00    +0.120 A 
ATOM     39  N   UNL     1       3.214  27.454   7.257  0.00  0.00    -0.263 NA
ATOM     40  C   UNL     1       2.954  28.832   7.216  0.00  0.00    +0.111 A 
ENDBRANCH   4   3
ENDBRANCH  10   9
BRANCH  12  13
ATOM     13  N   UNL     1      12.983  22.893   7.812  0.00  0.00    -0.281 N 
ATOM     14  C   UNL     1      13.437  22.206   6.698  0.00  0.00    +0.248 C 
ATOM     30  O   UNL     1      12.937  21.175   6.271  0.00  0.00    -0.270 OA
ATOM     31  H   UNL     1      13.600  23.620   8.172  0.00  0.00    +0.155 HD
BRANCH  14  15
ATOM     15  C   UNL     1      14.626  22.731   5.961  0.00  0.00    +0.037 A 
ATOM     16  C   UNL     1      15.939  22.824   6.604  0.00  0.00    +0.013 A 
ATOM     17  C   UNL     1      17.066  23.350   5.875  0.00  0.00    +0.005 A 
ATOM     18  C   UNL     1      16.884  23.787   4.493  0.00  0.00    -0.033 A 
ATOM     28  C   UNL     1      15.572  23.678   3.878  0.00  0.00    +0.005 A 
ATOM     29  C   UNL     1      14.465  23.164   4.589  0.00  0.00    +0.013 A 
BRANCH  18  19
ATOM     19  C   UNL     1      18.026  24.381   3.647  0.00  0.00    +0.119 C 
BRANCH  19  20
ATOM     20  N   UNL     1      19.349  23.690   3.702  0.00  0.00    -0.302 NA
ATOM     21  C   UNL     1      20.383  24.492   4.495  0.00  0.00    +0.066 C 
ATOM     22  C   UNL     1      21.755  23.744   4.562  0.00  0.00    -0.064 C 
ATOM     23  N   UNL     1      22.254  23.472   3.142  0.00  0.00    +0.379 N 
ATOM     24  C   UNL     1      23.570  22.821   3.201  0.00  0.00    -0.096 C 
ATOM     25  H   UNL     1      22.385  24.457   2.635  0.00  0.00    -0.082 HD
ATOM     26  C   UNL     1      21.229  22.677   2.345  0.00  0.00    -0.064 C 
ATOM     27  C   UNL     1      19.862  23.415   2.310  0.00  0.00    +0.066 C 
ENDBRANCH  19  20
ENDBRANCH  18  19
ENDBRANCH  14  15
ENDBRANCH  12  13
TORSDOF 6
ENDMDL
MODEL 3
REMARK VINA RESULT:      -8.0      1.848      2.685
REMARK  Name = C:\Users\Docking\Desktop\test protocol\1iep_ligandH.pdb
REMARK  8 active torsions:
REMARK  status: ('A' for Active; 'I' for Inactive)
REMARK    1  A    between atoms: _5  and  _11
REMARK    2  A    between atoms: _19  and  _21
REMARK    3  A    between atoms: _22  and  _66
REMARK    4  A    between atoms: _27  and  _30
REMARK    5  A    between atoms: _32  and  _33
REMARK    6  A    between atoms: _38  and  _43
REMARK    7  A    between atoms: _43  and  _46
REMARK    8  A    between atoms: _53  and  _55
REMARK                            x       y       z     vdW  Elec       q    Type
REMARK                         _______ _______ _______ _____ _____    ______ ____
ROOT
ATOM     10  C   UNL     1      11.205  23.198   8.134  0.00  0.00    +0.038 A 
ATOM     11  C   UNL     1      12.308  23.538   7.311  0.00  0.00    +0.047 A 
ATOM     12  C   UNL     1      13.610  22.918   7.501  0.00  0.00    +0.035 A 
ATOM     32  C   UNL     1      13.751  21.951   8.539  0.00  0.00    +0.024 A 
ATOM     33  C   UNL     1      12.641  21.593   9.386  0.00  0.00    +0.007 A 
ATOM     34  C   UNL     1      11.355  22.204   9.204  0.00  0.00    -0.029 A 
ATOM     35  C   UNL     1      10.201  21.787  10.146  0.00  0.00    +0.045 C 
ENDROOT
BRANCH  10   9
ATOM      4  C   UNL     1       8.114  26.812   8.784  0.00  0.00    +0.077 A 
ATOM      5  C   UNL     1       9.008  27.495   9.673  0.00  0.00    +0.048 A 
ATOM      6  C   UNL     1      10.251  26.879   9.943  0.00  0.00    +0.116 A 
ATOM      7  N   UNL     1      10.566  25.670   9.361  0.00  0.00    -0.223 NA
ATOM      8  C   UNL     1       9.679  25.037   8.509  0.00  0.00    +0.220 A 
ATOM      9  N   UNL     1       9.978  23.825   7.906  0.00  0.00    -0.283 N 
ATOM     36  H   UNL     1       9.294  23.386   7.290  0.00  0.00    +0.155 HD
ATOM     37  N   UNL     1       8.485  25.604   8.237  0.00  0.00    -0.214 NA
BRANCH   4   3
ATOM      1  C   UNL     1       5.074  29.192   8.156  0.00  0.00    +0.020 A 
ATOM      2  C   UNL     1       6.389  28.737   8.544  0.00  0.00    +0.013 A 
ATOM      3  C   UNL     1       6.766  27.336   8.399  0.00  0.00    +0.019 A 
ATOM     38  C   UNL     1       5.780  26.415   7.852  0.00  0.00    +0.120 A 
ATOM     39  N   UNL     1       4.521  26.882   7.489  0.00  0.00    -0.263 NA
ATOM     40  C   UNL     1       4.147  28.227   7.626  0.00  0.00    +0.111 A 
ENDBRANCH   4   3
ENDBRANCH  10   9
BRANCH  12  13
ATOM     13  N   UNL     1      14.768  23.229   6.702  0.00  0.00    -0.281 N 
ATOM     14  C   UNL     1      14.988  22.928   5.368  0.00  0.00    +0.248 C 
ATOM     30  O   UNL     1      14.307  22.153   4.713  0.00  0.00    -0.270 OA
ATOM     31  H   UNL     1      15.517  23.733   7.177  0.00  0.00    +0.155 HD
BRANCH  14  15
ATOM     15  C   UNL     1      16.139  23.570   4.663  0.00  0.00    +0.037 A 
ATOM     16  C   UNL     1      16.143  23.734   3.207  0.00  0.00    +0.013 A 
ATOM     17  C   UNL     1      17.274  24.341   2.551  0.00  0.00    +0.005 A 
ATOM     18  C   UNL     1      18.410  24.791   3.351  0.00  0.00    -0.033 A 
ATOM     28  C   UNL     1      18.378  24.621   4.794  0.00  0.00    +0.005 A 
ATOM     29  C   UNL     1      17.272  24.025   5.441  0.00  0.00    +0.013 A 
BRANCH  18  19
ATOM     19  C   UNL     1      19.668  25.430   2.733  0.00  0.00    +0.119 C 
BRANCH  19  20
ATOM     20  N   UNL     1      20.982  24.790   3.040  0.00  0.00    -0.302 NA
ATOM     21  C   UNL     1      22.125  25.408   2.231  0.00  0.00    +0.066 C 
ATOM     22  C   UNL     1      23.496  24.742   2.581  0.00  0.00    -0.064 C 
ATOM     23  N   UNL     1      23.406  23.235   2.329  0.00  0.00    +0.379 N 
ATOM     24  C   UNL     1      24.710  22.614   2.602  0.00  0.00    -0.096 C 
ATOM     25  H   UNL     1      23.180  23.086   1.248  0.00  0.00    -0.082 HD
ATOM     26  C   UNL     1      22.270  22.613   3.129  0.00  0.00    -0.064 C 
ATOM     27  C   UNL     1      20.917  23.303   2.795  0.00  0.00    +0.066 C 
ENDBRANCH  19  20
ENDBRANCH  18  19
ENDBRANCH  14  15
ENDBRANCH  12  13
TORSDOF 6
ENDMDL
MODEL 4
REMARK VINA RESULT:      -8.0      1.148      1.476
REMARK  Name = C:\Users\Docking\Desktop\test protocol\1iep_ligandH.pdb
REMARK  8 active torsions:
REMARK  status: ('A' for Active; 'I' for Inactive)
REMARK    1  A    between atoms: _5  and  _11
REMARK    2  A    between atoms: _19  and  _21
REMARK    3  A    between atoms: _22  and  _66
REMARK    4  A    between atoms: _27  and  _30
REMARK    5  A    between atoms: _32  and  _33
REMARK    6  A    between atoms: _38  and  _43
REMARK    7  A    between atoms: _43  and  _46
REMARK    8  A    between atoms: _53  and  _55
REMARK                            x       y       z     vdW  Elec       q    Type
REMARK                         _______ _______ _______ _____ _____    ______ ____
ROOT
ATOM     10  C   UNL     1       9.391  22.669   9.134  0.00  0.00    +0.038 A 
ATOM     11  C   UNL     1      10.655  22.894   8.532  0.00  0.00    +0.047 A 
ATOM     12  C   UNL     1      11.816  22.098   8.898  0.00  0.00    +0.035 A 
ATOM     32  C   UNL     1      11.653  21.078   9.880  0.00  0.00    +0.024 A 
ATOM     33  C   UNL     1      10.375  20.836  10.504  0.00  0.00    +0.007 A 
ATOM     34  C   UNL     1       9.227  21.620  10.148  0.00  0.00    -0.029 A 
ATOM     35  C   UNL     1       7.884  21.321  10.853  0.00  0.00    +0.045 C 
ENDROOT
BRANCH  10   9
ATOM      4  C   UNL     1       7.206  26.919   8.685  0.00  0.00    +0.077 A 
ATOM      5  C   UNL     1       8.299  27.613   9.303  0.00  0.00    +0.048 A 
ATOM      6  C   UNL     1       9.401  26.838   9.729  0.00  0.00    +0.116 A 
ATOM      7  N   UNL     1       9.400  25.473   9.545  0.00  0.00    -0.223 NA
ATOM      8  C   UNL     1       8.329  24.834   8.947  0.00  0.00    +0.220 A 
ATOM      9  N   UNL     1       8.310  23.463   8.744  0.00  0.00    -0.283 N 
ATOM     36  H   UNL     1       7.498  23.029   8.306  0.00  0.00    +0.155 HD
ATOM     37  N   UNL     1       7.264  25.551   8.533  0.00  0.00    -0.214 NA
BRANCH   4   3
ATOM      1  C   UNL     1       4.512  29.630   7.851  0.00  0.00    +0.020 A 
ATOM      2  C   UNL     1       5.721  29.023   8.360  0.00  0.00    +0.013 A 
ATOM      3  C   UNL     1       5.971  27.598   8.179  0.00  0.00    +0.019 A 
ATOM     38  C   UNL     1       4.972  26.811   7.473  0.00  0.00    +0.120 A 
ATOM     39  N   UNL     1       3.817  27.423   6.996  0.00  0.00    -0.263 NA
ATOM     40  C   UNL     1       3.564  28.792   7.166  0.00  0.00    +0.111 A 
ENDBRANCH   4   3
ENDBRANCH  10   9
BRANCH  12  13
ATOM     13  N   UNL     1      13.126  22.287   8.326  0.00  0.00    -0.281 N 
ATOM     14  C   UNL     1      14.342  21.841   8.818  0.00  0.00    +0.248 C 
ATOM     30  O   UNL     1      14.510  21.393   9.943  0.00  0.00    -0.270 OA
ATOM     31  H   UNL     1      13.162  22.813   7.453  0.00  0.00    +0.155 HD
BRANCH  14  15
ATOM     15  C   UNL     1      15.548  21.918   7.939  0.00  0.00    +0.037 A 
ATOM     16  C   UNL     1      16.744  21.119   8.218  0.00  0.00    +0.013 A 
ATOM     17  C   UNL     1      17.900  21.224   7.364  0.00  0.00    +0.005 A 
ATOM     18  C   UNL     1      17.865  22.132   6.220  0.00  0.00    -0.033 A 
ATOM     28  C   UNL     1      16.664  22.909   5.963  0.00  0.00    +0.005 A 
ATOM     29  C   UNL     1      15.529  22.809   6.799  0.00  0.00    +0.013 A 
BRANCH  18  19
ATOM     19  C   UNL     1      19.060  22.324   5.268  0.00  0.00    +0.119 C 
BRANCH  19  20
ATOM     20  N   UNL     1      19.082  23.567   4.440  0.00  0.00    -0.302 NA
ATOM     21  C   UNL     1      19.170  23.258   2.942  0.00  0.00    +0.066 C 
ATOM     22  C   UNL     1      19.168  24.569   2.090  0.00  0.00    -0.064 C 
ATOM     23  N   UNL     1      20.332  25.460   2.528  0.00  0.00    +0.379 N 
ATOM     24  C   UNL     1      20.368  26.667   1.690  0.00  0.00    -0.096 C 
ATOM     25  H   UNL     1      21.276  24.895   2.350  0.00  0.00    -0.082 HD
ATOM     26  C   UNL     1      20.254  25.769   4.017  0.00  0.00    -0.064 C 
ATOM     27  C   UNL     1      20.226  24.460   4.853  0.00  0.00    +0.066 C 
ENDBRANCH  19  20
ENDBRANCH  18  19
ENDBRANCH  14  15
ENDBRANCH  12  13
TORSDOF 6
ENDMDL
MODEL 5
REMARK VINA RESULT:      -8.0      2.456     12.389
REMARK  Name = C:\Users\Docking\Desktop\test protocol\1iep_ligandH.pdb
REMARK  8 active torsions:
REMARK  status: ('A' for Active; 'I' for Inactive)
REMARK    1  A    between atoms: _5  and  _11
REMARK    2  A    between atoms: _19  and  _21
REMARK    3  A    between atoms: _22  and  _66
REMARK    4  A    between atoms: _27  and  _30
REMARK    5  A    between atoms: _32  and  _33
REMARK    6  A    between atoms: _38  and  _43
REMARK    7  A    between atoms: _43  and  _46
REMARK    8  A    between atoms: _53  and  _55
REMARK                            x       y       z     vdW  Elec       q    Type
REMARK                         _______ _______ _______ _____ _____    ______ ____
ROOT
ATOM     10  C   UNL     1      19.634  25.279   4.058  0.00  0.00    +0.038 A 
ATOM     11  C   UNL     1      18.314  25.100   4.543  0.00  0.00    +0.047 A 
ATOM     12  C   UNL     1      17.672  23.795   4.513  0.00  0.00    +0.035 A 
ATOM     32  C   UNL     1      18.406  22.693   3.985  0.00  0.00    +0.024 A 
ATOM     33  C   UNL     1      19.749  22.858   3.487  0.00  0.00    +0.007 A 
ATOM     34  C   UNL     1      20.386  24.143   3.511  0.00  0.00    -0.029 A 
ATOM     35  C   UNL     1      21.825  24.263   2.958  0.00  0.00    +0.045 C 
ENDROOT
BRANCH  10   9
ATOM      4  C   UNL     1      20.842  29.461   2.035  0.00  0.00    +0.077 A 
ATOM      5  C   UNL     1      20.323  29.061   0.759  0.00  0.00    +0.048 A 
ATOM      6  C   UNL     1      19.760  27.769   0.663  0.00  0.00    +0.116 A 
ATOM      7  N   UNL     1      19.724  26.946   1.768  0.00  0.00    -0.223 NA
ATOM      8  C   UNL     1      20.235  27.362   2.984  0.00  0.00    +0.220 A 
ATOM      9  N   UNL     1      20.202  26.555   4.110  0.00  0.00    -0.283 N 
ATOM     36  H   UNL     1      20.596  26.895   4.987  0.00  0.00    +0.155 HD
ATOM     37  N   UNL     1      20.779  28.591   3.101  0.00  0.00    -0.214 NA
BRANCH   4   3
ATOM      1  C   UNL     1      22.323  32.602   3.835  0.00  0.00    +0.020 A 
ATOM      2  C   UNL     1      21.718  31.305   3.639  0.00  0.00    +0.013 A 
ATOM      3  C   UNL     1      21.465  30.797   2.296  0.00  0.00    +0.019 A 
ATOM     38  C   UNL     1      21.840  31.633   1.165  0.00  0.00    +0.120 A 
ATOM     39  N   UNL     1      22.419  32.879   1.386  0.00  0.00    -0.263 NA
ATOM     40  C   UNL     1      22.666  33.379   2.673  0.00  0.00    +0.111 A 
ENDBRANCH   4   3
ENDBRANCH  10   9
BRANCH  12  13
ATOM     13  N   UNL     1      16.331  23.553   4.984  0.00  0.00    -0.281 N 
ATOM     14  C   UNL     1      15.936  22.841   6.105  0.00  0.00    +0.248 C 
ATOM     30  O   UNL     1      16.674  22.118   6.759  0.00  0.00    -0.270 OA
ATOM     31  H   UNL     1      15.580  23.957   4.422  0.00  0.00    +0.155 HD
BRANCH  14  15
ATOM     15  C   UNL     1      14.515  22.933   6.556  0.00  0.00    +0.037 A 
ATOM     16  C   UNL     1      13.478  23.501   5.690  0.00  0.00    +0.013 A 
ATOM     17  C   UNL     1      12.117  23.594   6.156  0.00  0.00    +0.005 A 
ATOM     18  C   UNL     1      11.785  23.115   7.496  0.00  0.00    -0.033 A 
ATOM     28  C   UNL     1      12.832  22.551   8.332  0.00  0.00    +0.005 A 
ATOM     29  C   UNL     1      14.167  22.460   7.879  0.00  0.00    +0.013 A 
BRANCH  18  19
ATOM     19  C   UNL     1      10.363  23.194   8.083  0.00  0.00    +0.119 C 
BRANCH  19  20
ATOM     20  N   UNL     1       9.720  24.540   8.137  0.00  0.00    -0.302 NA
ATOM     21  C   UNL     1      10.473  25.501   9.062  0.00  0.00    +0.066 C 
ATOM     22  C   UNL     1       9.799  26.911   9.089  0.00  0.00    -0.064 C 
ATOM     23  N   UNL     1       8.341  26.768   9.529  0.00  0.00    +0.379 N 
ATOM     24  C   UNL     1       7.720  28.098   9.611  0.00  0.00    -0.096 C 
ATOM     25  H   UNL     1       8.338  26.329  10.554  0.00  0.00    -0.082 HD
ATOM     26  C   UNL     1       7.585  25.813   8.616  0.00  0.00    -0.064 C 
ATOM     27  C   UNL     1       8.280  24.423   8.574  0.00  0.00    +0.066 C 
ENDBRANCH  19  20
ENDBRANCH  18  19
ENDBRANCH  14  15
ENDBRANCH  12  13
TORSDOF 6
ENDMDL
