MODEL 1
REMARK VINA RESULT:      -7.8      0.000      0.000
REMARK  Name = C:\Users\Docking\Desktop\test protocol\1iep_ligandH.pdb
REMARK  8 active torsions:
REMARK  status: ('A' for Active; 'I' for Inactive)
REMARK    1  A    between atoms: _5  and  _11
REMARK    2  A    between atoms: _19  and  _21
REMARK    3  A    between atoms: _22  and  _66
REMARK    4  A    between atoms: _27  and  _30
REMARK    5  A    between atoms: _32  and  _33
REMARK    6  A    between atoms: _38  and  _43
REMARK    7  A    between atoms: _43  and  _46
REMARK    8  A    between atoms: _53  and  _55
REMARK                            x       y       z     vdW  Elec       q    Type
REMARK                         _______ _______ _______ _____ _____    ______ ____
ROOT
ATOM     10  C   UNL     1      44.899  20.664  33.541  0.00  0.00    +0.038 A 
ATOM     11  C   UNL     1      45.529  19.537  32.953  0.00  0.00    +0.047 A 
ATOM     12  C   UNL     1      45.096  18.185  33.267  0.00  0.00    +0.035 A 
ATOM     32  C   UNL     1      44.016  18.016  34.182  0.00  0.00    +0.024 A 
ATOM     33  C   UNL     1      43.365  19.150  34.789  0.00  0.00    +0.007 A 
ATOM     34  C   UNL     1      43.789  20.487  34.485  0.00  0.00    -0.029 A 
ATOM     35  C   UNL     1      43.059  21.666  35.171  0.00  0.00    +0.045 C 
ENDROOT
BRANCH  10   9
ATOM      4  C   UNL     1      44.908  24.547  30.719  0.00  0.00    +0.077 A 
ATOM      5  C   UNL     1      43.942  23.974  29.827  0.00  0.00    +0.048 A 
ATOM      6  C   UNL     1      43.473  22.675  30.125  0.00  0.00    +0.116 A 
ATOM      7  N   UNL     1      43.942  22.008  31.237  0.00  0.00    -0.223 NA
ATOM      8  C   UNL     1      44.875  22.589  32.076  0.00  0.00    +0.220 A 
ATOM      9  N   UNL     1      45.355  21.940  33.203  0.00  0.00    -0.283 N 
ATOM     36  H   UNL     1      46.048  22.400  33.793  0.00  0.00    +0.155 HD
ATOM     37  N   UNL     1      45.340  23.828  31.811  0.00  0.00    -0.214 NA
BRANCH   4   3
ATOM      1  C   UNL     1      45.595  28.176  29.430  0.00  0.00    +0.020 A 
ATOM      2  C   UNL     1      44.992  26.870  29.563  0.00  0.00    +0.013 A 
ATOM      3  C   UNL     1      45.496  25.912  30.539  0.00  0.00    +0.019 A 
ATOM     38  C   UNL     1      46.619  26.311  31.373  0.00  0.00    +0.120 A 
ATOM     39  N   UNL     1      47.181  27.575  31.222  0.00  0.00    -0.263 NA
ATOM     40  C   UNL     1      46.706  28.504  30.284  0.00  0.00    +0.111 A 
ENDBRANCH   4   3
ENDBRANCH  10   9
BRANCH  12  13
ATOM     13  N   UNL     1      45.702  17.002  32.708  0.00  0.00    -0.281 N 
ATOM     14  C   UNL     1      45.323  16.306  31.572  0.00  0.00    +0.248 C 
ATOM     30  O   UNL     1      44.268  16.474  30.979  0.00  0.00    -0.270 OA
ATOM     31  H   UNL     1      46.509  16.633  33.212  0.00  0.00    +0.155 HD
BRANCH  14  15
ATOM     15  C   UNL     1      46.243  15.264  31.023  0.00  0.00    +0.037 A 
ATOM     16  C   UNL     1      45.742  14.174  30.182  0.00  0.00    +0.013 A 
ATOM     17  C   UNL     1      46.648  13.172  29.680  0.00  0.00    +0.005 A 
ATOM     18  C   UNL     1      48.067  13.257  30.016  0.00  0.00    -0.033 A 
ATOM     28  C   UNL     1      48.539  14.352  30.847  0.00  0.00    +0.005 A 
ATOM     29  C   UNL     1      47.653  15.335  31.343  0.00  0.00    +0.013 A 
BRANCH  18  19
ATOM     19  C   UNL     1      49.103  12.221  29.541  0.00  0.00    +0.119 C 
BRANCH  19  20
ATOM     20  N   UNL     1      50.545  12.574  29.697  0.00  0.00    -0.302 NA
ATOM     21  C   UNL     1      51.325  12.392  28.391  0.00  0.00    +0.066 C 
ATOM     22  C   UNL     1      52.827  12.788  28.566  0.00  0.00    -0.064 C 
ATOM     23  N   UNL     1      53.445  11.952  29.688  0.00  0.00    +0.379 N 
ATOM     24  C   UNL     1      54.873  12.280  29.816  0.00  0.00    -0.096 C 
ATOM     25  H   UNL     1      53.370  10.880  29.390  0.00  0.00    -0.082 HD
ATOM     26  C   UNL     1      52.674  12.125  30.989  0.00  0.00    -0.064 C 
ATOM     27  C   UNL     1      51.176  11.757  30.796  0.00  0.00    +0.066 C 
ENDBRANCH  19  20
ENDBRANCH  18  19
ENDBRANCH  14  15
ENDBRANCH  12  13
TORSDOF 6
ENDMDL
MODEL 2
REMARK VINA RESULT:      -7.7      2.400      3.106
REMARK  Name = C:\Users\Docking\Desktop\test protocol\1iep_ligandH.pdb
REMARK  8 active torsions:
REMARK  status: ('A' for Active; 'I' for Inactive)
REMARK    1  A    between atoms: _5  and  _11
REMARK    2  A    between atoms: _19  and  _21
REMARK    3  A    between atoms: _22  and  _66
REMARK    4  A    between atoms: _27  and  _30
REMARK    5  A    between atoms: _32  and  _33
REMARK    6  A    between atoms: _38  and  _43
REMARK    7  A    between atoms: _43  and  _46
REMARK    8  A    between atoms: _53  and  _55
REMARK                            x       y       z     vdW  Elec       q    Type
REMARK                         _______ _______ _______ _____ _____    ______ ____
ROOT
ATOM     10  C   UNL     1      44.963  22.761  33.182  0.00  0.00    +0.038 A 
ATOM     11  C   UNL     1      45.281  21.595  32.439  0.00  0.00    +0.047 A 
ATOM     12  C   UNL     1      44.740  20.296  32.809  0.00  0.00    +0.035 A 
ATOM     32  C   UNL     1      43.877  20.221  33.940  0.00  0.00    +0.024 A 
ATOM     33  C   UNL     1      43.544  21.396  34.707  0.00  0.00    +0.007 A 
ATOM     34  C   UNL     1      44.076  22.679  34.349  0.00  0.00    -0.029 A 
ATOM     35  C   UNL     1      43.690  23.903  35.212  0.00  0.00    +0.045 C 
ENDROOT
BRANCH  10   9
ATOM      4  C   UNL     1      45.255  26.484  30.167  0.00  0.00    +0.077 A 
ATOM      5  C   UNL     1      44.252  25.936  29.300  0.00  0.00    +0.048 A 
ATOM      6  C   UNL     1      43.691  24.691  29.661  0.00  0.00    +0.116 A 
ATOM      7  N   UNL     1      44.109  24.050  30.808  0.00  0.00    -0.223 NA
ATOM      8  C   UNL     1      45.080  24.605  31.621  0.00  0.00    +0.220 A 
ATOM      9  N   UNL     1      45.510  23.982  32.783  0.00  0.00    -0.283 N 
ATOM     36  H   UNL     1      46.233  24.421  33.352  0.00  0.00    +0.155 HD
ATOM     37  N   UNL     1      45.632  25.793  31.297  0.00  0.00    -0.214 NA
BRANCH   4   3
ATOM      1  C   UNL     1      46.269  29.936  28.633  0.00  0.00    +0.020 A 
ATOM      2  C   UNL     1      45.576  28.683  28.826  0.00  0.00    +0.013 A 
ATOM      3  C   UNL     1      45.940  27.792  29.921  0.00  0.00    +0.019 A 
ATOM     38  C   UNL     1      47.015  28.203  30.811  0.00  0.00    +0.120 A 
ATOM     39  N   UNL     1      47.665  29.415  30.600  0.00  0.00    -0.263 NA
ATOM     40  C   UNL     1      47.326  30.280  29.548  0.00  0.00    +0.111 A 
ENDBRANCH   4   3
ENDBRANCH  10   9
BRANCH  12  13
ATOM     13  N   UNL     1      45.034  19.078  32.097  0.00  0.00    -0.281 N 
ATOM     14  C   UNL     1      46.040  18.161  32.357  0.00  0.00    +0.248 C 
ATOM     30  O   UNL     1      46.978  18.360  33.115  0.00  0.00    -0.270 OA
ATOM     31  H   UNL     1      44.427  18.864  31.305  0.00  0.00    +0.155 HD
BRANCH  14  15
ATOM     15  C   UNL     1      46.008  16.837  31.663  0.00  0.00    +0.037 A 
ATOM     16  C   UNL     1      44.816  15.986  31.706  0.00  0.00    +0.013 A 
ATOM     17  C   UNL     1      44.817  14.706  31.043  0.00  0.00    +0.005 A 
ATOM     18  C   UNL     1      46.015  14.271  30.329  0.00  0.00    -0.033 A 
ATOM     28  C   UNL     1      47.181  15.137  30.298  0.00  0.00    +0.005 A 
ATOM     29  C   UNL     1      47.184  16.392  30.948  0.00  0.00    +0.013 A 
BRANCH  18  19
ATOM     19  C   UNL     1      46.113  12.912  29.611  0.00  0.00    +0.119 C 
BRANCH  19  20
ATOM     20  N   UNL     1      46.867  11.825  30.304  0.00  0.00    -0.302 NA
ATOM     21  C   UNL     1      48.261  11.620  29.702  0.00  0.00    +0.066 C 
ATOM     22  C   UNL     1      49.045  10.495  30.453  0.00  0.00    -0.064 C 
ATOM     23  N   UNL     1      48.238   9.196  30.406  0.00  0.00    +0.379 N 
ATOM     24  C   UNL     1      48.999   8.122  31.061  0.00  0.00    -0.096 C 
ATOM     25  H   UNL     1      48.111   8.916  29.335  0.00  0.00    -0.082 HD
ATOM     26  C   UNL     1      46.850   9.392  31.000  0.00  0.00    -0.064 C 
ATOM     27  C   UNL     1      46.091  10.532  30.266  0.00  0.00    +0.066 C 
ENDBRANCH  19  20
ENDBRANCH  18  19
ENDBRANCH  14  15
ENDBRANCH  12  13
TORSDOF 6
ENDMDL
MODEL 3
REMARK VINA RESULT:      -7.6      2.373      3.381
REMARK  Name = C:\Users\Docking\Desktop\test protocol\1iep_ligandH.pdb
REMARK  8 active torsions:
REMARK  status: ('A' for Active; 'I' for Inactive)
REMARK    1  A    between atoms: _5  and  _11
REMARK    2  A    between atoms: _19  and  _21
REMARK    3  A    between atoms: _22  and  _66
REMARK    4  A    between atoms: _27  and  _30
REMARK    5  A    between atoms: _32  and  _33
REMARK    6  A    between atoms: _38  and  _43
REMARK    7  A    between atoms: _43  and  _46
REMARK    8  A    between atoms: _53  and  _55
REMARK                            x       y       z     vdW  Elec       q    Type
REMARK                         _______ _______ _______ _____ _____    ______ ____
ROOT
ATOM     10  C   UNL     1      45.407  21.722  32.956  0.00  0.00    +0.038 A 
ATOM     11  C   UNL     1      45.977  20.606  32.291  0.00  0.00    +0.047 A 
ATOM     12  C   UNL     1      45.545  19.250  32.591  0.00  0.00    +0.035 A 
ATOM     32  C   UNL     1      44.528  19.066  33.573  0.00  0.00    +0.024 A 
ATOM     33  C   UNL     1      43.938  20.189  34.259  0.00  0.00    +0.007 A 
ATOM     34  C   UNL     1      44.362  21.529  33.968  0.00  0.00    -0.029 A 
ATOM     35  C   UNL     1      43.699  22.694  34.739  0.00  0.00    +0.045 C 
ENDROOT
BRANCH  10   9
ATOM      4  C   UNL     1      45.219  25.733  30.326  0.00  0.00    +0.077 A 
ATOM      5  C   UNL     1      44.147  25.224  29.520  0.00  0.00    +0.048 A 
ATOM      6  C   UNL     1      43.678  23.923  29.809  0.00  0.00    +0.116 A 
ATOM      7  N   UNL     1      44.245  23.195  30.832  0.00  0.00    -0.223 NA
ATOM      8  C   UNL     1      45.279  23.714  31.590  0.00  0.00    +0.220 A 
ATOM      9  N   UNL     1      45.859  23.002  32.628  0.00  0.00    -0.283 N 
ATOM     36  H   UNL     1      46.624  23.417  33.159  0.00  0.00    +0.155 HD
ATOM     37  N   UNL     1      45.746  24.953  31.332  0.00  0.00    -0.214 NA
BRANCH   4   3
ATOM      1  C   UNL     1      46.019  29.310  28.961  0.00  0.00    +0.020 A 
ATOM      2  C   UNL     1      45.405  28.009  29.092  0.00  0.00    +0.013 A 
ATOM      3  C   UNL     1      45.822  27.091  30.145  0.00  0.00    +0.019 A 
ATOM     38  C   UNL     1      46.870  27.525  31.057  0.00  0.00    +0.120 A 
ATOM     39  N   UNL     1      47.443  28.784  30.905  0.00  0.00    -0.263 NA
ATOM     40  C   UNL     1      47.052  29.674  29.894  0.00  0.00    +0.111 A 
ENDBRANCH   4   3
ENDBRANCH  10   9
BRANCH  12  13
ATOM     13  N   UNL     1      46.094  18.078  31.955  0.00  0.00    -0.281 N 
ATOM     14  C   UNL     1      47.164  17.304  32.372  0.00  0.00    +0.248 C 
ATOM     30  O   UNL     1      47.952  17.629  33.248  0.00  0.00    -0.270 OA
ATOM     31  H   UNL     1      45.637  17.783  31.092  0.00  0.00    +0.155 HD
BRANCH  14  15
ATOM     15  C   UNL     1      47.403  15.985  31.711  0.00  0.00    +0.037 A 
ATOM     16  C   UNL     1      48.648  15.243  31.924  0.00  0.00    +0.013 A 
ATOM     17  C   UNL     1      48.860  13.981  31.260  0.00  0.00    +0.005 A 
ATOM     18  C   UNL     1      47.822  13.452  30.378  0.00  0.00    -0.033 A 
ATOM     28  C   UNL     1      46.595  14.207  30.189  0.00  0.00    +0.005 A 
ATOM     29  C   UNL     1      46.384  15.445  30.836  0.00  0.00    +0.013 A 
BRANCH  18  19
ATOM     19  C   UNL     1      47.972  12.124  29.613  0.00  0.00    +0.119 C 
BRANCH  19  20
ATOM     20  N   UNL     1      47.569  10.875  30.325  0.00  0.00    -0.302 NA
ATOM     21  C   UNL     1      48.453   9.685  29.943  0.00  0.00    +0.066 C 
ATOM     22  C   UNL     1      48.031   8.392  30.715  0.00  0.00    -0.064 C 
ATOM     23  N   UNL     1      46.560   8.088  30.429  0.00  0.00    +0.379 N 
ATOM     24  C   UNL     1      46.176   6.841  31.107  0.00  0.00    -0.096 C 
ATOM     25  H   UNL     1      46.456   7.922  29.331  0.00  0.00    -0.082 HD
ATOM     26  C   UNL     1      45.674   9.267  30.803  0.00  0.00    -0.064 C 
ATOM     27  C   UNL     1      46.120  10.554  30.053  0.00  0.00    +0.066 C 
ENDBRANCH  19  20
ENDBRANCH  18  19
ENDBRANCH  14  15
ENDBRANCH  12  13
TORSDOF 6
ENDMDL
MODEL 4
REMARK VINA RESULT:      -7.5      3.963     12.325
REMARK  Name = C:\Users\Docking\Desktop\test protocol\1iep_ligandH.pdb
REMARK  8 active torsions:
REMARK  status: ('A' for Active; 'I' for Inactive)
REMARK    1  A    between atoms: _5  and  _11
REMARK    2  A    between atoms: _19  and  _21
REMARK    3  A    between atoms: _22  and  _66
REMARK    4  A    between atoms: _27  and  _30
REMARK    5  A    between atoms: _32  and  _33
REMARK    6  A    between atoms: _38  and  _43
REMARK    7  A    between atoms: _43  and  _46
REMARK    8  A    between atoms: _53  and  _55
REMARK                            x       y       z     vdW  Elec       q    Type
REMARK                         _______ _______ _______ _____ _____    ______ ____
ROOT
ATOM     10  C   UNL     1      44.918  15.091  31.653  0.00  0.00    +0.038 A 
ATOM     11  C   UNL     1      44.468  16.435  31.612  0.00  0.00    +0.047 A 
ATOM     12  C   UNL     1      45.324  17.500  31.111  0.00  0.00    +0.035 A 
ATOM     32  C   UNL     1      46.631  17.158  30.656  0.00  0.00    +0.024 A 
ATOM     33  C   UNL     1      47.104  15.797  30.691  0.00  0.00    +0.007 A 
ATOM     34  C   UNL     1      46.266  14.743  31.187  0.00  0.00    -0.029 A 
ATOM     35  C   UNL     1      46.828  13.303  31.208  0.00  0.00    +0.045 C 
ENDROOT
BRANCH  10   9
ATOM      4  C   UNL     1      41.800  13.438  34.906  0.00  0.00    +0.077 A 
ATOM      5  C   UNL     1      41.921  14.621  35.710  0.00  0.00    +0.048 A 
ATOM      6  C   UNL     1      42.802  15.627  35.254  0.00  0.00    +0.116 A 
ATOM      7  N   UNL     1      43.504  15.454  34.081  0.00  0.00    -0.223 NA
ATOM      8  C   UNL     1      43.365  14.301  33.331  0.00  0.00    +0.220 A 
ATOM      9  N   UNL     1      44.055  14.109  32.144  0.00  0.00    -0.283 N 
ATOM     36  H   UNL     1      43.930  13.241  31.623  0.00  0.00    +0.155 HD
ATOM     37  N   UNL     1      42.531  13.324  33.745  0.00  0.00    -0.214 NA
BRANCH   4   3
ATOM      1  C   UNL     1      38.638  11.215  35.505  0.00  0.00    +0.020 A 
ATOM      2  C   UNL     1      39.455  12.355  35.158  0.00  0.00    +0.013 A 
ATOM      3  C   UNL     1      40.907  12.288  35.253  0.00  0.00    +0.019 A 
ATOM     38  C   UNL     1      41.507  11.041  35.705  0.00  0.00    +0.120 A 
ATOM     39  N   UNL     1      40.696   9.960  36.033  0.00  0.00    -0.263 NA
ATOM     40  C   UNL     1      39.296  10.014  35.947  0.00  0.00    +0.111 A 
ENDBRANCH   4   3
ENDBRANCH  10   9
BRANCH  12  13
ATOM     13  N   UNL     1      44.925  18.884  31.053  0.00  0.00    -0.281 N 
ATOM     14  C   UNL     1      45.319  19.919  31.885  0.00  0.00    +0.248 C 
ATOM     30  O   UNL     1      45.912  19.768  32.942  0.00  0.00    -0.270 OA
ATOM     31  H   UNL     1      44.273  19.131  30.308  0.00  0.00    +0.155 HD
BRANCH  14  15
ATOM     15  C   UNL     1      44.994  21.325  31.492  0.00  0.00    +0.037 A 
ATOM     16  C   UNL     1      44.152  22.174  32.337  0.00  0.00    +0.013 A 
ATOM     17  C   UNL     1      43.840  23.520  31.927  0.00  0.00    +0.005 A 
ATOM     18  C   UNL     1      44.374  24.026  30.664  0.00  0.00    -0.033 A 
ATOM     28  C   UNL     1      45.211  23.163  29.848  0.00  0.00    +0.005 A 
ATOM     29  C   UNL     1      45.518  21.843  30.246  0.00  0.00    +0.013 A 
BRANCH  18  19
ATOM     19  C   UNL     1      44.075  25.442  30.137  0.00  0.00    +0.119 C 
BRANCH  19  20
ATOM     20  N   UNL     1      45.230  26.380  30.006  0.00  0.00    -0.302 NA
ATOM     21  C   UNL     1      46.117  26.377  31.254  0.00  0.00    +0.066 C 
ATOM     22  C   UNL     1      47.333  27.347  31.090  0.00  0.00    -0.064 C 
ATOM     23  N   UNL     1      46.820  28.757  30.793  0.00  0.00    +0.379 N 
ATOM     24  C   UNL     1      47.958  29.683  30.696  0.00  0.00    -0.096 C 
ATOM     25  H   UNL     1      46.195  29.079  31.658  0.00  0.00    -0.082 HD
ATOM     26  C   UNL     1      45.935  28.768  29.555  0.00  0.00    -0.064 C 
ATOM     27  C   UNL     1      44.747  27.779  29.716  0.00  0.00    +0.066 C 
ENDBRANCH  19  20
ENDBRANCH  18  19
ENDBRANCH  14  15
ENDBRANCH  12  13
TORSDOF 6
ENDMDL
MODEL 5
REMARK VINA RESULT:      -7.2      3.662      7.693
REMARK  Name = C:\Users\Docking\Desktop\test protocol\1iep_ligandH.pdb
REMARK  8 active torsions:
REMARK  status: ('A' for Active; 'I' for Inactive)
REMARK    1  A    between atoms: _5  and  _11
REMARK    2  A    between atoms: _19  and  _21
REMARK    3  A    between atoms: _22  and  _66
REMARK    4  A    between atoms: _27  and  _30
REMARK    5  A    between atoms: _32  and  _33
REMARK    6  A    between atoms: _38  and  _43
REMARK    7  A    between atoms: _43  and  _46
REMARK    8  A    between atoms: _53  and  _55
REMARK                            x       y       z     vdW  Elec       q    Type
REMARK                         _______ _______ _______ _____ _____    ______ ____
ROOT
ATOM     10  C   UNL     1      44.834  27.987  30.353  0.00  0.00    +0.038 A 
ATOM     11  C   UNL     1      45.134  26.601  30.305  0.00  0.00    +0.047 A 
ATOM     12  C   UNL     1      44.844  25.730  31.434  0.00  0.00    +0.035 A 
ATOM     32  C   UNL     1      44.247  26.303  32.594  0.00  0.00    +0.024 A 
ATOM     33  C   UNL     1      43.937  27.710  32.659  0.00  0.00    +0.007 A 
ATOM     34  C   UNL     1      44.222  28.575  31.551  0.00  0.00    -0.029 A 
ATOM     35  C   UNL     1      43.874  30.076  31.679  0.00  0.00    +0.045 C 
ENDROOT
BRANCH  10   9
ATOM      4  C   UNL     1      47.668  31.041  27.969  0.00  0.00    +0.077 A 
ATOM      5  C   UNL     1      48.620  31.087  29.042  0.00  0.00    +0.048 A 
ATOM      6  C   UNL     1      48.339  30.316  30.192  0.00  0.00    +0.116 A 
ATOM      7  N   UNL     1      47.190  29.559  30.254  0.00  0.00    -0.223 NA
ATOM      8  C   UNL     1      46.292  29.538  29.203  0.00  0.00    +0.220 A 
ATOM      9  N   UNL     1      45.133  28.777  29.241  0.00  0.00    -0.283 N 
ATOM     36  H   UNL     1      44.493  28.795  28.447  0.00  0.00    +0.155 HD
ATOM     37  N   UNL     1      46.536  30.267  28.094  0.00  0.00    -0.214 NA
BRANCH   4   3
ATOM      1  C   UNL     1      49.130  32.479  24.638  0.00  0.00    +0.020 A 
ATOM      2  C   UNL     1      49.029  31.728  25.869  0.00  0.00    +0.013 A 
ATOM      3  C   UNL     1      47.825  31.798  26.687  0.00  0.00    +0.019 A 
ATOM     38  C   UNL     1      46.733  32.643  26.229  0.00  0.00    +0.120 A 
ATOM     39  N   UNL     1      46.859  33.356  25.041  0.00  0.00    -0.263 NA
ATOM     40  C   UNL     1      48.013  33.298  24.246  0.00  0.00    +0.111 A 
ENDBRANCH   4   3
ENDBRANCH  10   9
BRANCH  12  13
ATOM     13  N   UNL     1      45.133  24.318  31.446  0.00  0.00    -0.281 N 
ATOM     14  C   UNL     1      44.412  23.295  30.851  0.00  0.00    +0.248 C 
ATOM     30  O   UNL     1      43.286  23.419  30.394  0.00  0.00    -0.270 OA
ATOM     31  H   UNL     1      45.971  24.037  31.956  0.00  0.00    +0.155 HD
BRANCH  14  15
ATOM     15  C   UNL     1      45.026  21.935  30.764  0.00  0.00    +0.037 A 
ATOM     16  C   UNL     1      44.937  20.988  31.878  0.00  0.00    +0.013 A 
ATOM     17  C   UNL     1      45.552  19.689  31.774  0.00  0.00    +0.005 A 
ATOM     18  C   UNL     1      46.261  19.328  30.549  0.00  0.00    -0.033 A 
ATOM     28  C   UNL     1      46.329  20.285  29.456  0.00  0.00    +0.005 A 
ATOM     29  C   UNL     1      45.728  21.560  29.555  0.00  0.00    +0.013 A 
BRANCH  18  19
ATOM     19  C   UNL     1      46.965  17.972  30.358  0.00  0.00    +0.119 C 
BRANCH  19  20
ATOM     20  N   UNL     1      46.531  16.847  31.239  0.00  0.00    -0.302 NA
ATOM     21  C   UNL     1      47.573  15.726  31.295  0.00  0.00    +0.066 C 
ATOM     22  C   UNL     1      47.113  14.567  32.238  0.00  0.00    -0.064 C 
ATOM     23  N   UNL     1      45.764  14.029  31.760  0.00  0.00    +0.379 N 
ATOM     24  C   UNL     1      45.356  12.901  32.611  0.00  0.00    -0.096 C 
ATOM     25  H   UNL     1      45.903  13.639  30.725  0.00  0.00    -0.082 HD
ATOM     26  C   UNL     1      44.722  15.138  31.700  0.00  0.00    -0.064 C 
ATOM     27  C   UNL     1      45.202  16.297  30.783  0.00  0.00    +0.066 C 
ENDBRANCH  19  20
ENDBRANCH  18  19
ENDBRANCH  14  15
ENDBRANCH  12  13
TORSDOF 6
ENDMDL
