MODEL 1
REMARK VINA RESULT:      -9.1      0.000      0.000
REMARK  Name = C:\Users\Docking\Desktop\test protocol\1iep_ligandH.pdb
REMARK  8 active torsions:
REMARK  status: ('A' for Active; 'I' for Inactive)
REMARK    1  A    between atoms: _5  and  _11
REMARK    2  A    between atoms: _19  and  _21
REMARK    3  A    between atoms: _22  and  _66
REMARK    4  A    between atoms: _27  and  _30
REMARK    5  A    between atoms: _32  and  _33
REMARK    6  A    between atoms: _38  and  _43
REMARK    7  A    between atoms: _43  and  _46
REMARK    8  A    between atoms: _53  and  _55
REMARK                            x       y       z     vdW  Elec       q    Type
REMARK                         _______ _______ _______ _____ _____    ______ ____
ROOT
ATOM     10  C   UNL     1       0.569   0.169  17.961  0.00  0.00    +0.038 A 
ATOM     11  C   UNL     1       0.239  -0.482  16.745  0.00  0.00    +0.047 A 
ATOM     12  C   UNL     1       0.560  -1.885  16.530  0.00  0.00    +0.035 A 
ATOM     32  C   UNL     1       1.216  -2.595  17.578  0.00  0.00    +0.024 A 
ATOM     33  C   UNL     1       1.560  -1.949  18.820  0.00  0.00    +0.007 A 
ATOM     34  C   UNL     1       1.248  -0.565  19.036  0.00  0.00    -0.029 A 
ATOM     35  C   UNL     1       1.646   0.078  20.385  0.00  0.00    +0.045 C 
ENDROOT
BRANCH  10   9
ATOM      4  C   UNL     1      -2.041   3.691  19.914  0.00  0.00    +0.077 A 
ATOM      5  C   UNL     1      -2.828   2.765  20.677  0.00  0.00    +0.048 A 
ATOM      6  C   UNL     1      -2.534   1.391  20.533  0.00  0.00    +0.116 A 
ATOM      7  N   UNL     1      -1.525   0.984  19.686  0.00  0.00    -0.223 NA
ATOM      8  C   UNL     1      -0.787   1.903  18.964  0.00  0.00    +0.220 A 
ATOM      9  N   UNL     1       0.237   1.517  18.112  0.00  0.00    -0.283 N 
ATOM     36  H   UNL     1       0.754   2.225  17.591  0.00  0.00    +0.155 HD
ATOM     37  N   UNL     1      -1.049   3.221  19.083  0.00  0.00    -0.214 NA
BRANCH   4   3
ATOM      1  C   UNL     1      -3.668   7.248  19.972  0.00  0.00    +0.020 A 
ATOM      2  C   UNL     1      -3.541   5.810  19.922  0.00  0.00    +0.013 A 
ATOM      3  C   UNL     1      -2.229   5.176  19.962  0.00  0.00    +0.019 A 
ATOM     38  C   UNL     1      -1.056   6.032  20.053  0.00  0.00    +0.120 A 
ATOM     39  N   UNL     1      -1.209   7.415  20.097  0.00  0.00    -0.263 NA
ATOM     40  C   UNL     1      -2.466   8.036  20.058  0.00  0.00    +0.111 A 
ENDBRANCH   4   3
ENDBRANCH  10   9
BRANCH  12  13
ATOM     13  N   UNL     1       0.256  -2.597  15.314  0.00  0.00    -0.281 N 
ATOM     14  C   UNL     1      -0.991  -2.910  14.799  0.00  0.00    +0.248 C 
ATOM     30  O   UNL     1      -2.039  -2.810  15.418  0.00  0.00    -0.270 OA
ATOM     31  H   UNL     1       1.059  -2.908  14.766  0.00  0.00    +0.155 HD
BRANCH  14  15
ATOM     15  C   UNL     1      -1.086  -3.421  13.397  0.00  0.00    +0.037 A 
ATOM     16  C   UNL     1      -1.113  -4.858  13.113  0.00  0.00    +0.013 A 
ATOM     17  C   UNL     1      -1.188  -5.324  11.751  0.00  0.00    +0.005 A 
ATOM     18  C   UNL     1      -1.237  -4.351  10.662  0.00  0.00    -0.033 A 
ATOM     28  C   UNL     1      -1.214  -2.931  10.973  0.00  0.00    +0.005 A 
ATOM     29  C   UNL     1      -1.140  -2.470  12.307  0.00  0.00    +0.013 A 
BRANCH  18  19
ATOM     19  C   UNL     1      -1.297  -4.758   9.178  0.00  0.00    +0.119 C 
BRANCH  19  20
ATOM     20  N   UNL     1      -0.015  -5.167   8.530  0.00  0.00    -0.302 NA
ATOM     21  C   UNL     1       0.565  -4.054   7.651  0.00  0.00    +0.066 C 
ATOM     22  C   UNL     1       1.916  -4.491   6.999  0.00  0.00    -0.064 C 
ATOM     23  N   UNL     1       1.697  -5.766   6.183  0.00  0.00    +0.379 N 
ATOM     24  C   UNL     1       2.953  -6.147   5.521  0.00  0.00    -0.096 C 
ATOM     25  H   UNL     1       0.952  -5.534   5.387  0.00  0.00    -0.082 HD
ATOM     26  C   UNL     1       1.118  -6.877   7.048  0.00  0.00    -0.064 C 
ATOM     27  C   UNL     1      -0.210  -6.422   7.715  0.00  0.00    +0.066 C 
ENDBRANCH  19  20
ENDBRANCH  18  19
ENDBRANCH  14  15
ENDBRANCH  12  13
TORSDOF 6
ENDMDL
MODEL 2
REMARK VINA RESULT:      -9.0      1.589      2.265
REMARK  Name = C:\Users\Docking\Desktop\test protocol\1iep_ligandH.pdb
REMARK  8 active torsions:
REMARK  status: ('A' for Active; 'I' for Inactive)
REMARK    1  A    between atoms: _5  and  _11
REMARK    2  A    between atoms: _19  and  _21
REMARK    3  A    between atoms: _22  and  _66
REMARK    4  A    between atoms: _27  and  _30
REMARK    5  A    between atoms: _32  and  _33
REMARK    6  A    between atoms: _38  and  _43
REMARK    7  A    between atoms: _43  and  _46
REMARK    8  A    between atoms: _53  and  _55
REMARK                            x       y       z     vdW  Elec       q    Type
REMARK                         _______ _______ _______ _____ _____    ______ ____
ROOT
ATOM     10  C   UNL     1       0.712   0.093  18.000  0.00  0.00    +0.038 A 
ATOM     11  C   UNL     1       0.303  -0.617  16.842  0.00  0.00    +0.047 A 
ATOM     12  C   UNL     1       0.679  -2.008  16.641  0.00  0.00    +0.035 A 
ATOM     32  C   UNL     1       1.469  -2.646  17.642  0.00  0.00    +0.024 A 
ATOM     33  C   UNL     1       1.894  -1.938  18.824  0.00  0.00    +0.007 A 
ATOM     34  C   UNL     1       1.528  -0.565  19.026  0.00  0.00    -0.029 A 
ATOM     35  C   UNL     1       2.017   0.145  20.310  0.00  0.00    +0.045 C 
ENDROOT
BRANCH  10   9
ATOM      4  C   UNL     1      -2.042   3.517  19.932  0.00  0.00    +0.077 A 
ATOM      5  C   UNL     1      -2.787   2.564  20.705  0.00  0.00    +0.048 A 
ATOM      6  C   UNL     1      -2.434   1.203  20.571  0.00  0.00    +0.116 A 
ATOM      7  N   UNL     1      -1.412   0.833  19.725  0.00  0.00    -0.223 NA
ATOM      8  C   UNL     1      -0.715   1.776  18.993  0.00  0.00    +0.220 A 
ATOM      9  N   UNL     1       0.323   1.427  18.142  0.00  0.00    -0.283 N 
ATOM     36  H   UNL     1       0.807   2.153  17.613  0.00  0.00    +0.155 HD
ATOM     37  N   UNL     1      -1.033   3.083  19.102  0.00  0.00    -0.214 NA
BRANCH   4   3
ATOM      1  C   UNL     1      -1.519   7.390  20.083  0.00  0.00    +0.020 A 
ATOM      2  C   UNL     1      -1.222   5.977  20.052  0.00  0.00    +0.013 A 
ATOM      3  C   UNL     1      -2.294   4.992  19.968  0.00  0.00    +0.019 A 
ATOM     38  C   UNL     1      -3.666   5.475  19.915  0.00  0.00    +0.120 A 
ATOM     39  N   UNL     1      -3.921   6.842  19.948  0.00  0.00    -0.263 NA
ATOM     40  C   UNL     1      -2.898   7.799  20.031  0.00  0.00    +0.111 A 
ENDBRANCH   4   3
ENDBRANCH  10   9
BRANCH  12  13
ATOM     13  N   UNL     1       0.300  -2.778  15.482  0.00  0.00    -0.281 N 
ATOM     14  C   UNL     1      -0.977  -3.034  15.010  0.00  0.00    +0.248 C 
ATOM     30  O   UNL     1      -2.002  -2.816  15.637  0.00  0.00    -0.270 OA
ATOM     31  H   UNL     1       1.067  -3.183  14.945  0.00  0.00    +0.155 HD
BRANCH  14  15
ATOM     15  C   UNL     1      -1.137  -3.632  13.649  0.00  0.00    +0.037 A 
ATOM     16  C   UNL     1      -1.185  -5.083  13.458  0.00  0.00    +0.013 A 
ATOM     17  C   UNL     1      -1.323  -5.634  12.133  0.00  0.00    +0.005 A 
ATOM     18  C   UNL     1      -1.415  -4.731  10.988  0.00  0.00    -0.033 A 
ATOM     28  C   UNL     1      -1.370  -3.295  11.207  0.00  0.00    +0.005 A 
ATOM     29  C   UNL     1      -1.234  -2.752  12.504  0.00  0.00    +0.013 A 
BRANCH  18  19
ATOM     19  C   UNL     1      -1.543  -5.231   9.537  0.00  0.00    +0.119 C 
BRANCH  19  20
ATOM     20  N   UNL     1      -2.050  -4.260   8.522  0.00  0.00    -0.302 NA
ATOM     21  C   UNL     1      -3.326  -4.760   7.837  0.00  0.00    +0.066 C 
ATOM     22  C   UNL     1      -3.856  -3.722   6.794  0.00  0.00    -0.064 C 
ATOM     23  N   UNL     1      -2.763  -3.437   5.762  0.00  0.00    +0.379 N 
ATOM     24  C   UNL     1      -3.278  -2.506   4.748  0.00  0.00    -0.096 C 
ATOM     25  H   UNL     1      -2.523  -4.398   5.250  0.00  0.00    -0.082 HD
ATOM     26  C   UNL     1      -1.490  -2.943   6.435  0.00  0.00    -0.064 C 
ATOM     27  C   UNL     1      -0.989  -3.968   7.490  0.00  0.00    +0.066 C 
ENDBRANCH  19  20
ENDBRANCH  18  19
ENDBRANCH  14  15
ENDBRANCH  12  13
TORSDOF 6
ENDMDL
MODEL 3
REMARK VINA RESULT:      -9.0      1.978      2.396
REMARK  Name = C:\Users\Docking\Desktop\test protocol\1iep_ligandH.pdb
REMARK  8 active torsions:
REMARK  status: ('A' for Active; 'I' for Inactive)
REMARK    1  A    between atoms: _5  and  _11
REMARK    2  A    between atoms: _19  and  _21
REMARK    3  A    between atoms: _22  and  _66
REMARK    4  A    between atoms: _27  and  _30
REMARK    5  A    between atoms: _32  and  _33
REMARK    6  A    between atoms: _38  and  _43
REMARK    7  A    between atoms: _43  and  _46
REMARK    8  A    between atoms: _53  and  _55
REMARK                            x       y       z     vdW  Elec       q    Type
REMARK                         _______ _______ _______ _____ _____    ______ ____
ROOT
ATOM     10  C   UNL     1      -0.124   0.796  19.471  0.00  0.00    +0.038 A 
ATOM     11  C   UNL     1      -0.215   0.042  18.272  0.00  0.00    +0.047 A 
ATOM     12  C   UNL     1      -0.070  -1.405  18.280  0.00  0.00    +0.035 A 
ATOM     32  C   UNL     1       0.165  -2.053  19.528  0.00  0.00    +0.024 A 
ATOM     33  C   UNL     1       0.263  -1.303  20.755  0.00  0.00    +0.007 A 
ATOM     34  C   UNL     1       0.123   0.125  20.753  0.00  0.00    -0.029 A 
ATOM     35  C   UNL     1       0.243   0.879  22.098  0.00  0.00    +0.045 C 
ENDROOT
BRANCH  10   9
ATOM      4  C   UNL     1      -2.715   4.805  19.967  0.00  0.00    +0.077 A 
ATOM      5  C   UNL     1      -3.882   4.072  20.365  0.00  0.00    +0.048 A 
ATOM      6  C   UNL     1      -3.776   2.664  20.422  0.00  0.00    +0.116 A 
ATOM      7  N   UNL     1      -2.586   2.046  20.104  0.00  0.00    -0.223 NA
ATOM      8  C   UNL     1      -1.480   2.783  19.722  0.00  0.00    +0.220 A 
ATOM      9  N   UNL     1      -0.271   2.183  19.405  0.00  0.00    -0.283 N 
ATOM     36  H   UNL     1       0.520   2.761  19.121  0.00  0.00    +0.155 HD
ATOM     37  N   UNL     1      -1.556   4.128  19.658  0.00  0.00    -0.214 NA
BRANCH   4   3
ATOM      1  C   UNL     1      -3.767   8.560  19.664  0.00  0.00    +0.020 A 
ATOM      2  C   UNL     1      -3.867   7.122  19.764  0.00  0.00    +0.013 A 
ATOM      3  C   UNL     1      -2.669   6.298  19.861  0.00  0.00    +0.019 A 
ATOM     38  C   UNL     1      -1.376   6.964  19.857  0.00  0.00    +0.120 A 
ATOM     39  N   UNL     1      -1.310   8.351  19.759  0.00  0.00    -0.263 NA
ATOM     40  C   UNL     1      -2.456   9.155  19.662  0.00  0.00    +0.111 A 
ENDBRANCH   4   3
ENDBRANCH  10   9
BRANCH  12  13
ATOM     13  N   UNL     1      -0.146  -2.222  17.094  0.00  0.00    -0.281 N 
ATOM     14  C   UNL     1      -1.211  -2.991  16.657  0.00  0.00    +0.248 C 
ATOM     30  O   UNL     1      -2.191  -3.264  17.334  0.00  0.00    -0.270 OA
ATOM     31  H   UNL     1       0.688  -2.234  16.506  0.00  0.00    +0.155 HD
BRANCH  14  15
ATOM     15  C   UNL     1      -1.177  -3.551  15.271  0.00  0.00    +0.037 A 
ATOM     16  C   UNL     1      -1.162  -4.997  15.036  0.00  0.00    +0.013 A 
ATOM     17  C   UNL     1      -1.112  -5.510  13.690  0.00  0.00    +0.005 A 
ATOM     18  C   UNL     1      -1.077  -4.575  12.568  0.00  0.00    -0.033 A 
ATOM     28  C   UNL     1      -1.097  -3.146  12.830  0.00  0.00    +0.005 A 
ATOM     29  C   UNL     1      -1.146  -2.639  14.148  0.00  0.00    +0.013 A 
BRANCH  18  19
ATOM     19  C   UNL     1      -1.001  -5.033  11.099  0.00  0.00    +0.119 C 
BRANCH  19  20
ATOM     20  N   UNL     1      -1.209  -3.995  10.047  0.00  0.00    -0.302 NA
ATOM     21  C   UNL     1      -2.121  -4.492   8.922  0.00  0.00    +0.066 C 
ATOM     22  C   UNL     1      -2.347  -3.385   7.841  0.00  0.00    -0.064 C 
ATOM     23  N   UNL     1      -0.995  -2.936   7.284  0.00  0.00    +0.379 N 
ATOM     24  C   UNL     1      -1.207  -1.937   6.227  0.00  0.00    -0.096 C 
ATOM     25  H   UNL     1      -0.510  -3.825   6.818  0.00  0.00    -0.082 HD
ATOM     26  C   UNL     1      -0.081  -2.443   8.397  0.00  0.00    -0.064 C 
ATOM     27  C   UNL     1       0.113  -3.540   9.480  0.00  0.00    +0.066 C 
ENDBRANCH  19  20
ENDBRANCH  18  19
ENDBRANCH  14  15
ENDBRANCH  12  13
TORSDOF 6
ENDMDL
MODEL 4
REMARK VINA RESULT:      -9.0      4.493      7.675
REMARK  Name = C:\Users\Docking\Desktop\test protocol\1iep_ligandH.pdb
REMARK  8 active torsions:
REMARK  status: ('A' for Active; 'I' for Inactive)
REMARK    1  A    between atoms: _5  and  _11
REMARK    2  A    between atoms: _19  and  _21
REMARK    3  A    between atoms: _22  and  _66
REMARK    4  A    between atoms: _27  and  _30
REMARK    5  A    between atoms: _32  and  _33
REMARK    6  A    between atoms: _38  and  _43
REMARK    7  A    between atoms: _43  and  _46
REMARK    8  A    between atoms: _53  and  _55
REMARK                            x       y       z     vdW  Elec       q    Type
REMARK                         _______ _______ _______ _____ _____    ______ ____
ROOT
ATOM     10  C   UNL     1       0.788  -2.770  17.775  0.00  0.00    +0.038 A 
ATOM     11  C   UNL     1       0.713  -3.042  16.385  0.00  0.00    +0.047 A 
ATOM     12  C   UNL     1       0.100  -2.097  15.464  0.00  0.00    +0.035 A 
ATOM     32  C   UNL     1      -0.424  -0.882  15.994  0.00  0.00    +0.024 A 
ATOM     33  C   UNL     1      -0.357  -0.589  17.404  0.00  0.00    +0.007 A 
ATOM     34  C   UNL     1       0.244  -1.519  18.317  0.00  0.00    -0.029 A 
ATOM     35  C   UNL     1       0.282  -1.156  19.820  0.00  0.00    +0.045 C 
ENDROOT
BRANCH  10   9
ATOM      4  C   UNL     1       4.407  -4.279  20.543  0.00  0.00    +0.077 A 
ATOM      5  C   UNL     1       5.181  -3.101  20.276  0.00  0.00    +0.048 A 
ATOM      6  C   UNL     1       4.614  -2.134  19.415  0.00  0.00    +0.116 A 
ATOM      7  N   UNL     1       3.366  -2.340  18.868  0.00  0.00    -0.223 NA
ATOM      8  C   UNL     1       2.647  -3.488  19.145  0.00  0.00    +0.220 A 
ATOM      9  N   UNL     1       1.387  -3.713  18.613  0.00  0.00    -0.283 N 
ATOM     36  H   UNL     1       0.892  -4.576  18.835  0.00  0.00    +0.155 HD
ATOM     37  N   UNL     1       3.167  -4.427  19.963  0.00  0.00    -0.214 NA
BRANCH   4   3
ATOM      1  C   UNL     1       5.415  -7.809  21.892  0.00  0.00    +0.020 A 
ATOM      2  C   UNL     1       4.964  -6.774  20.990  0.00  0.00    +0.013 A 
ATOM      3  C   UNL     1       4.868  -5.389  21.435  0.00  0.00    +0.019 A 
ATOM     38  C   UNL     1       5.241  -5.083  22.808  0.00  0.00    +0.120 A 
ATOM     39  N   UNL     1       5.671  -6.101  23.653  0.00  0.00    -0.263 NA
ATOM     40  C   UNL     1       5.765  -7.437  23.237  0.00  0.00    +0.111 A 
ENDBRANCH   4   3
ENDBRANCH  10   9
BRANCH  12  13
ATOM     13  N   UNL     1      -0.012  -2.323  14.045  0.00  0.00    -0.281 N 
ATOM     14  C   UNL     1      -1.083  -2.861  13.350  0.00  0.00    +0.248 C 
ATOM     30  O   UNL     1      -2.029  -3.430  13.872  0.00  0.00    -0.270 OA
ATOM     31  H   UNL     1       0.797  -2.054  13.484  0.00  0.00    +0.155 HD
BRANCH  14  15
ATOM     15  C   UNL     1      -1.097  -2.766  11.858  0.00  0.00    +0.037 A 
ATOM     16  C   UNL     1      -1.539  -3.890  11.029  0.00  0.00    +0.013 A 
ATOM     17  C   UNL     1      -1.526  -3.777   9.592  0.00  0.00    +0.005 A 
ATOM     18  C   UNL     1      -1.071  -2.534   8.975  0.00  0.00    -0.033 A 
ATOM     28  C   UNL     1      -0.643  -1.433   9.822  0.00  0.00    +0.005 A 
ATOM     29  C   UNL     1      -0.653  -1.540  11.230  0.00  0.00    +0.013 A 
BRANCH  18  19
ATOM     19  C   UNL     1      -1.004  -2.333   7.450  0.00  0.00    +0.119 C 
BRANCH  19  20
ATOM     20  N   UNL     1      -2.041  -3.020   6.623  0.00  0.00    -0.302 NA
ATOM     21  C   UNL     1      -1.503  -4.298   5.973  0.00  0.00    +0.066 C 
ATOM     22  C   UNL     1      -2.607  -5.017   5.131  0.00  0.00    -0.064 C 
ATOM     23  N   UNL     1      -3.143  -4.054   4.070  0.00  0.00    +0.379 N 
ATOM     24  C   UNL     1      -4.139  -4.745   3.239  0.00  0.00    -0.096 C 
ATOM     25  H   UNL     1      -2.290  -3.770   3.410  0.00  0.00    -0.082 HD
ATOM     26  C   UNL     1      -3.677  -2.779   4.708  0.00  0.00    -0.064 C 
ATOM     27  C   UNL     1      -2.581  -2.089   5.566  0.00  0.00    +0.066 C 
ENDBRANCH  19  20
ENDBRANCH  18  19
ENDBRANCH  14  15
ENDBRANCH  12  13
TORSDOF 6
ENDMDL
MODEL 5
REMARK VINA RESULT:      -8.7      4.570     14.093
REMARK  Name = C:\Users\Docking\Desktop\test protocol\1iep_ligandH.pdb
REMARK  8 active torsions:
REMARK  status: ('A' for Active; 'I' for Inactive)
REMARK    1  A    between atoms: _5  and  _11
REMARK    2  A    between atoms: _19  and  _21
REMARK    3  A    between atoms: _22  and  _66
REMARK    4  A    between atoms: _27  and  _30
REMARK    5  A    between atoms: _32  and  _33
REMARK    6  A    between atoms: _38  and  _43
REMARK    7  A    between atoms: _43  and  _46
REMARK    8  A    between atoms: _53  and  _55
REMARK                            x       y       z     vdW  Elec       q    Type
REMARK                         _______ _______ _______ _____ _____    ______ ____
ROOT
ATOM     10  C   UNL     1      -0.143  -4.807   8.105  0.00  0.00    +0.038 A 
ATOM     11  C   UNL     1       0.086  -4.398   9.444  0.00  0.00    +0.047 A 
ATOM     12  C   UNL     1      -0.679  -3.316  10.041  0.00  0.00    +0.035 A 
ATOM     32  C   UNL     1      -1.673  -2.672   9.247  0.00  0.00    +0.024 A 
ATOM     33  C   UNL     1      -1.918  -3.074   7.885  0.00  0.00    +0.007 A 
ATOM     34  C   UNL     1      -1.165  -4.140   7.289  0.00  0.00    -0.029 A 
ATOM     35  C   UNL     1      -1.466  -4.525   5.822  0.00  0.00    +0.045 C 
ENDROOT
BRANCH  10   9
ATOM      4  C   UNL     1       3.747  -6.492   5.854  0.00  0.00    +0.077 A 
ATOM      5  C   UNL     1       4.290  -5.176   5.683  0.00  0.00    +0.048 A 
ATOM      6  C   UNL     1       3.534  -4.091   6.181  0.00  0.00    +0.116 A 
ATOM      7  N   UNL     1       2.326  -4.318   6.804  0.00  0.00    -0.223 NA
ATOM      8  C   UNL     1       1.830  -5.601   6.952  0.00  0.00    +0.220 A 
ATOM      9  N   UNL     1       0.621  -5.853   7.582  0.00  0.00    -0.283 N 
ATOM     36  H   UNL     1       0.286  -6.812   7.664  0.00  0.00    +0.155 HD
ATOM     37  N   UNL     1       2.532  -6.653   6.483  0.00  0.00    -0.214 NA
BRANCH   4   3
ATOM      1  C   UNL     1       6.416  -9.289   5.256  0.00  0.00    +0.020 A 
ATOM      2  C   UNL     1       5.804  -8.071   5.736  0.00  0.00    +0.013 A 
ATOM      3  C   UNL     1       4.429  -7.739   5.384  0.00  0.00    +0.019 A 
ATOM     38  C   UNL     1       3.695  -8.669   4.539  0.00  0.00    +0.120 A 
ATOM     39  N   UNL     1       4.310  -9.833   4.090  0.00  0.00    -0.263 NA
ATOM     40  C   UNL     1       5.633 -10.162   4.421  0.00  0.00    +0.111 A 
ENDBRANCH   4   3
ENDBRANCH  10   9
BRANCH  12  13
ATOM     13  N   UNL     1      -0.485  -2.852  11.393  0.00  0.00    -0.281 N 
ATOM     14  C   UNL     1      -1.206  -3.199  12.524  0.00  0.00    +0.248 C 
ATOM     30  O   UNL     1      -2.268  -3.803  12.509  0.00  0.00    -0.270 OA
ATOM     31  H   UNL     1       0.275  -2.186  11.533  0.00  0.00    +0.155 HD
BRANCH  14  15
ATOM     15  C   UNL     1      -0.676  -2.808  13.866  0.00  0.00    +0.037 A 
ATOM     16  C   UNL     1       0.020  -3.773  14.719  0.00  0.00    +0.013 A 
ATOM     17  C   UNL     1       0.506  -3.374  16.016  0.00  0.00    +0.005 A 
ATOM     18  C   UNL     1       0.298  -2.000  16.467  0.00  0.00    -0.033 A 
ATOM     28  C   UNL     1      -0.391  -1.061  15.598  0.00  0.00    +0.005 A 
ATOM     29  C   UNL     1      -0.870  -1.449  14.326  0.00  0.00    +0.013 A 
BRANCH  18  19
ATOM     19  C   UNL     1       0.764  -1.492  17.844  0.00  0.00    +0.119 C 
BRANCH  19  20
ATOM     20  N   UNL     1       1.900  -2.214  18.491  0.00  0.00    -0.302 NA
ATOM     21  C   UNL     1       1.423  -3.166  19.592  0.00  0.00    +0.066 C 
ATOM     22  C   UNL     1       2.621  -3.930  20.243  0.00  0.00    -0.064 C 
ATOM     23  N   UNL     1       3.626  -2.919  20.799  0.00  0.00    +0.379 N 
ATOM     24  C   UNL     1       4.725  -3.634  21.462  0.00  0.00    -0.096 C 
ATOM     25  H   UNL     1       3.101  -2.312  21.573  0.00  0.00    -0.082 HD
ATOM     26  C   UNL     1       4.103  -1.967  19.711  0.00  0.00    -0.064 C 
ATOM     27  C   UNL     1       2.902  -1.235  19.051  0.00  0.00    +0.066 C 
ENDBRANCH  19  20
ENDBRANCH  18  19
ENDBRANCH  14  15
ENDBRANCH  12  13
TORSDOF 6
ENDMDL
