MODEL 1
REMARK VINA RESULT:      -9.3      0.000      0.000
REMARK  Name = C:\Users\Docking\Desktop\test protocol\1iep_ligandH.pdb
REMARK  8 active torsions:
REMARK  status: ('A' for Active; 'I' for Inactive)
REMARK    1  A    between atoms: _5  and  _11
REMARK    2  A    between atoms: _19  and  _21
REMARK    3  A    between atoms: _22  and  _66
REMARK    4  A    between atoms: _27  and  _30
REMARK    5  A    between atoms: _32  and  _33
REMARK    6  A    between atoms: _38  and  _43
REMARK    7  A    between atoms: _43  and  _46
REMARK    8  A    between atoms: _53  and  _55
REMARK                            x       y       z     vdW  Elec       q    Type
REMARK                         _______ _______ _______ _____ _____    ______ ____
ROOT
ATOM     10  C   UNL     1       0.794   0.025  17.946  0.00  0.00    +0.038 A 
ATOM     11  C   UNL     1       0.370  -0.681  16.791  0.00  0.00    +0.047 A 
ATOM     12  C   UNL     1       0.726  -2.077  16.589  0.00  0.00    +0.035 A 
ATOM     32  C   UNL     1       1.513  -2.724  17.585  0.00  0.00    +0.024 A 
ATOM     33  C   UNL     1       1.954  -2.022  18.765  0.00  0.00    +0.007 A 
ATOM     34  C   UNL     1       1.608  -0.644  18.968  0.00  0.00    -0.029 A 
ATOM     35  C   UNL     1       2.113   0.060  20.249  0.00  0.00    +0.045 C 
ENDROOT
BRANCH  10   9
ATOM      4  C   UNL     1      -1.862   3.492  19.937  0.00  0.00    +0.077 A 
ATOM      5  C   UNL     1      -2.591   2.553  20.740  0.00  0.00    +0.048 A 
ATOM      6  C   UNL     1      -2.257   1.187  20.606  0.00  0.00    +0.116 A 
ATOM      7  N   UNL     1      -1.266   0.799  19.731  0.00  0.00    -0.223 NA
ATOM      8  C   UNL     1      -0.583   1.730  18.970  0.00  0.00    +0.220 A 
ATOM      9  N   UNL     1       0.423   1.364  18.089  0.00  0.00    -0.283 N 
ATOM     36  H   UNL     1       0.898   2.080  17.540  0.00  0.00    +0.155 HD
ATOM     37  N   UNL     1      -0.884   3.041  19.078  0.00  0.00    -0.214 NA
BRANCH   4   3
ATOM      1  C   UNL     1      -1.302   7.357  20.156  0.00  0.00    +0.020 A 
ATOM      2  C   UNL     1      -1.022   5.940  20.133  0.00  0.00    +0.013 A 
ATOM      3  C   UNL     1      -2.097   4.970  19.968  0.00  0.00    +0.019 A 
ATOM     38  C   UNL     1      -3.456   5.471  19.828  0.00  0.00    +0.120 A 
ATOM     39  N   UNL     1      -3.696   6.841  19.856  0.00  0.00    -0.263 NA
ATOM     40  C   UNL     1      -2.670   7.784  20.016  0.00  0.00    +0.111 A 
ENDBRANCH   4   3
ENDBRANCH  10   9
BRANCH  12  13
ATOM     13  N   UNL     1       0.331  -2.842  15.433  0.00  0.00    -0.281 N 
ATOM     14  C   UNL     1      -0.952  -3.181  15.033  0.00  0.00    +0.248 C 
ATOM     30  O   UNL     1      -1.948  -3.058  15.730  0.00  0.00    -0.270 OA
ATOM     31  H   UNL     1       1.088  -3.174  14.836  0.00  0.00    +0.155 HD
BRANCH  14  15
ATOM     15  C   UNL     1      -1.155  -3.753  13.667  0.00  0.00    +0.037 A 
ATOM     16  C   UNL     1      -1.170  -5.201  13.444  0.00  0.00    +0.013 A 
ATOM     17  C   UNL     1      -1.351  -5.726  12.114  0.00  0.00    +0.005 A 
ATOM     18  C   UNL     1      -1.521  -4.801  10.996  0.00  0.00    -0.033 A 
ATOM     28  C   UNL     1      -1.507  -3.370  11.247  0.00  0.00    +0.005 A 
ATOM     29  C   UNL     1      -1.329  -2.851  12.549  0.00  0.00    +0.013 A 
BRANCH  18  19
ATOM     19  C   UNL     1      -1.699  -5.273   9.541  0.00  0.00    +0.119 C 
BRANCH  19  20
ATOM     20  N   UNL     1      -2.115  -4.249   8.537  0.00  0.00    -0.302 NA
ATOM     21  C   UNL     1      -3.410  -4.641   7.820  0.00  0.00    +0.066 C 
ATOM     22  C   UNL     1      -3.844  -3.548   6.789  0.00  0.00    -0.064 C 
ATOM     23  N   UNL     1      -2.714  -3.324   5.783  0.00  0.00    +0.379 N 
ATOM     24  C   UNL     1      -3.141  -2.339   4.778  0.00  0.00    -0.096 C 
ATOM     25  H   UNL     1      -2.534  -4.289   5.255  0.00  0.00    -0.082 HD
ATOM     26  C   UNL     1      -1.422  -2.936   6.487  0.00  0.00    -0.064 C 
ATOM     27  C   UNL     1      -1.016  -4.014   7.530  0.00  0.00    +0.066 C 
ENDBRANCH  19  20
ENDBRANCH  18  19
ENDBRANCH  14  15
ENDBRANCH  12  13
TORSDOF 6
ENDMDL
MODEL 2
REMARK VINA RESULT:      -9.3      1.529      2.113
REMARK  Name = C:\Users\Docking\Desktop\test protocol\1iep_ligandH.pdb
REMARK  8 active torsions:
REMARK  status: ('A' for Active; 'I' for Inactive)
REMARK    1  A    between atoms: _5  and  _11
REMARK    2  A    between atoms: _19  and  _21
REMARK    3  A    between atoms: _22  and  _66
REMARK    4  A    between atoms: _27  and  _30
REMARK    5  A    between atoms: _32  and  _33
REMARK    6  A    between atoms: _38  and  _43
REMARK    7  A    between atoms: _43  and  _46
REMARK    8  A    between atoms: _53  and  _55
REMARK                            x       y       z     vdW  Elec       q    Type
REMARK                         _______ _______ _______ _____ _____    ______ ____
ROOT
ATOM     10  C   UNL     1       0.763  -0.049  17.994  0.00  0.00    +0.038 A 
ATOM     11  C   UNL     1       0.350  -0.711  16.810  0.00  0.00    +0.047 A 
ATOM     12  C   UNL     1       0.726  -2.092  16.549  0.00  0.00    +0.035 A 
ATOM     32  C   UNL     1       1.522  -2.770  17.517  0.00  0.00    +0.024 A 
ATOM     33  C   UNL     1       1.953  -2.112  18.726  0.00  0.00    +0.007 A 
ATOM     34  C   UNL     1       1.587  -0.749  18.987  0.00  0.00    -0.029 A 
ATOM     35  C   UNL     1       2.082  -0.092  20.297  0.00  0.00    +0.045 C 
ENDROOT
BRANCH  10   9
ATOM      4  C   UNL     1      -1.978   3.287  20.090  0.00  0.00    +0.077 A 
ATOM      5  C   UNL     1      -2.713   2.302  20.831  0.00  0.00    +0.048 A 
ATOM      6  C   UNL     1      -2.359   0.948  20.638  0.00  0.00    +0.116 A 
ATOM      7  N   UNL     1      -1.344   0.614  19.768  0.00  0.00    -0.223 NA
ATOM      8  C   UNL     1      -0.656   1.589  19.068  0.00  0.00    +0.220 A 
ATOM      9  N   UNL     1       0.373   1.277  18.193  0.00  0.00    -0.283 N 
ATOM     36  H   UNL     1       0.851   2.024  17.690  0.00  0.00    +0.155 HD
ATOM     37  N   UNL     1      -0.976   2.889  19.233  0.00  0.00    -0.214 NA
BRANCH   4   3
ATOM      1  C   UNL     1      -1.804   7.151  19.513  0.00  0.00    +0.020 A 
ATOM      2  C   UNL     1      -1.520   5.741  19.380  0.00  0.00    +0.013 A 
ATOM      3  C   UNL     1      -2.232   4.759  20.188  0.00  0.00    +0.019 A 
ATOM     38  C   UNL     1      -3.233   5.240  21.129  0.00  0.00    +0.120 A 
ATOM     39  N   UNL     1      -3.483   6.605  21.236  0.00  0.00    -0.263 NA
ATOM     40  C   UNL     1      -2.804   7.559  20.465  0.00  0.00    +0.111 A 
ENDBRANCH   4   3
ENDBRANCH  10   9
BRANCH  12  13
ATOM     13  N   UNL     1       0.342  -2.813  15.361  0.00  0.00    -0.281 N 
ATOM     14  C   UNL     1      -0.935  -3.029  14.871  0.00  0.00    +0.248 C 
ATOM     30  O   UNL     1      -1.962  -2.815  15.498  0.00  0.00    -0.270 OA
ATOM     31  H   UNL     1       1.105  -3.213  14.815  0.00  0.00    +0.155 HD
BRANCH  14  15
ATOM     15  C   UNL     1      -1.096  -3.575  13.489  0.00  0.00    +0.037 A 
ATOM     16  C   UNL     1      -1.152  -5.019  13.244  0.00  0.00    +0.013 A 
ATOM     17  C   UNL     1      -1.290  -5.519  11.899  0.00  0.00    +0.005 A 
ATOM     18  C   UNL     1      -1.375  -4.574  10.788  0.00  0.00    -0.033 A 
ATOM     28  C   UNL     1      -1.323  -3.147  11.060  0.00  0.00    +0.005 A 
ATOM     29  C   UNL     1      -1.186  -2.653  12.377  0.00  0.00    +0.013 A 
BRANCH  18  19
ATOM     19  C   UNL     1      -1.503  -5.019   9.319  0.00  0.00    +0.119 C 
BRANCH  19  20
ATOM     20  N   UNL     1      -0.258  -5.475   8.632  0.00  0.00    -0.302 NA
ATOM     21  C   UNL     1       0.340  -4.382   7.741  0.00  0.00    +0.066 C 
ATOM     22  C   UNL     1       1.654  -4.868   7.048  0.00  0.00    -0.064 C 
ATOM     23  N   UNL     1       1.362  -6.130   6.235  0.00  0.00    +0.379 N 
ATOM     24  C   UNL     1       2.582  -6.557   5.535  0.00  0.00    -0.096 C 
ATOM     25  H   UNL     1       0.603  -5.866   5.462  0.00  0.00    -0.082 HD
ATOM     26  C   UNL     1       0.765  -7.221   7.113  0.00  0.00    -0.064 C 
ATOM     27  C   UNL     1      -0.524  -6.718   7.820  0.00  0.00    +0.066 C 
ENDBRANCH  19  20
ENDBRANCH  18  19
ENDBRANCH  14  15
ENDBRANCH  12  13
TORSDOF 6
ENDMDL
MODEL 3
REMARK VINA RESULT:      -9.1      1.554      2.223
REMARK  Name = C:\Users\Docking\Desktop\test protocol\1iep_ligandH.pdb
REMARK  8 active torsions:
REMARK  status: ('A' for Active; 'I' for Inactive)
REMARK    1  A    between atoms: _5  and  _11
REMARK    2  A    between atoms: _19  and  _21
REMARK    3  A    between atoms: _22  and  _66
REMARK    4  A    between atoms: _27  and  _30
REMARK    5  A    between atoms: _32  and  _33
REMARK    6  A    between atoms: _38  and  _43
REMARK    7  A    between atoms: _43  and  _46
REMARK    8  A    between atoms: _53  and  _55
REMARK                            x       y       z     vdW  Elec       q    Type
REMARK                         _______ _______ _______ _____ _____    ______ ____
ROOT
ATOM     10  C   UNL     1       0.565   0.285  18.140  0.00  0.00    +0.038 A 
ATOM     11  C   UNL     1       0.239  -0.393  16.938  0.00  0.00    +0.047 A 
ATOM     12  C   UNL     1       0.545  -1.805  16.763  0.00  0.00    +0.035 A 
ATOM     32  C   UNL     1       1.180  -2.496  17.835  0.00  0.00    +0.024 A 
ATOM     33  C   UNL     1       1.519  -1.822  19.064  0.00  0.00    +0.007 A 
ATOM     34  C   UNL     1       1.223  -0.429  19.241  0.00  0.00    -0.029 A 
ATOM     35  C   UNL     1       1.616   0.243  20.577  0.00  0.00    +0.045 C 
ENDROOT
BRANCH  10   9
ATOM      4  C   UNL     1      -2.069   3.882  19.916  0.00  0.00    +0.077 A 
ATOM      5  C   UNL     1      -2.904   2.983  20.659  0.00  0.00    +0.048 A 
ATOM      6  C   UNL     1      -2.626   1.602  20.551  0.00  0.00    +0.116 A 
ATOM      7  N   UNL     1      -1.589   1.164  19.757  0.00  0.00    -0.223 NA
ATOM      8  C   UNL     1      -0.804   2.058  19.052  0.00  0.00    +0.220 A 
ATOM      9  N   UNL     1       0.249   1.641  18.254  0.00  0.00    -0.283 N 
ATOM     36  H   UNL     1       0.800   2.331  17.744  0.00  0.00    +0.155 HD
ATOM     37  N   UNL     1      -1.050   3.382  19.137  0.00  0.00    -0.214 NA
BRANCH   4   3
ATOM      1  C   UNL     1      -1.331   7.719  20.099  0.00  0.00    +0.020 A 
ATOM      2  C   UNL     1      -1.117   6.290  20.094  0.00  0.00    +0.013 A 
ATOM      3  C   UNL     1      -2.235   5.370  19.929  0.00  0.00    +0.019 A 
ATOM     38  C   UNL     1      -3.567   5.933  19.769  0.00  0.00    +0.120 A 
ATOM     39  N   UNL     1      -3.743   7.313  19.780  0.00  0.00    -0.263 NA
ATOM     40  C   UNL     1      -2.675   8.208  19.940  0.00  0.00    +0.111 A 
ENDBRANCH   4   3
ENDBRANCH  10   9
BRANCH  12  13
ATOM     13  N   UNL     1       0.245  -2.544  15.562  0.00  0.00    -0.281 N 
ATOM     14  C   UNL     1      -0.933  -3.195  15.234  0.00  0.00    +0.248 C 
ATOM     30  O   UNL     1      -1.840  -3.422  16.022  0.00  0.00    -0.270 OA
ATOM     31  H   UNL     1       0.991  -2.593  14.869  0.00  0.00    +0.155 HD
BRANCH  14  15
ATOM     15  C   UNL     1      -1.127  -3.677  13.833  0.00  0.00    +0.037 A 
ATOM     16  C   UNL     1      -1.325  -2.736  12.727  0.00  0.00    +0.013 A 
ATOM     17  C   UNL     1      -1.527  -3.228  11.387  0.00  0.00    +0.005 A 
ATOM     18  C   UNL     1      -1.529  -4.669  11.145  0.00  0.00    -0.033 A 
ATOM     28  C   UNL     1      -1.324  -5.579  12.260  0.00  0.00    +0.005 A 
ATOM     29  C   UNL     1      -1.128  -5.101  13.575  0.00  0.00    +0.013 A 
BRANCH  18  19
ATOM     19  C   UNL     1      -1.757  -5.283   9.752  0.00  0.00    +0.119 C 
BRANCH  19  20
ATOM     20  N   UNL     1      -0.551  -5.749   9.004  0.00  0.00    -0.302 NA
ATOM     21  C   UNL     1       0.014  -4.658   8.089  0.00  0.00    +0.066 C 
ATOM     22  C   UNL     1       1.289  -5.155   7.332  0.00  0.00    -0.064 C 
ATOM     23  N   UNL     1       0.944  -6.411   6.529  0.00  0.00    +0.379 N 
ATOM     24  C   UNL     1       2.125  -6.847   5.769  0.00  0.00    -0.096 C 
ATOM     25  H   UNL     1       0.152  -6.135   5.794  0.00  0.00    -0.082 HD
ATOM     26  C   UNL     1       0.378  -7.499   7.430  0.00  0.00    -0.064 C 
ATOM     27  C   UNL     1      -0.870  -6.985   8.200  0.00  0.00    +0.066 C 
ENDBRANCH  19  20
ENDBRANCH  18  19
ENDBRANCH  14  15
ENDBRANCH  12  13
TORSDOF 6
ENDMDL
MODEL 4
REMARK VINA RESULT:      -9.1      4.259     14.146
REMARK  Name = C:\Users\Docking\Desktop\test protocol\1iep_ligandH.pdb
REMARK  8 active torsions:
REMARK  status: ('A' for Active; 'I' for Inactive)
REMARK    1  A    between atoms: _5  and  _11
REMARK    2  A    between atoms: _19  and  _21
REMARK    3  A    between atoms: _22  and  _66
REMARK    4  A    between atoms: _27  and  _30
REMARK    5  A    between atoms: _32  and  _33
REMARK    6  A    between atoms: _38  and  _43
REMARK    7  A    between atoms: _43  and  _46
REMARK    8  A    between atoms: _53  and  _55
REMARK                            x       y       z     vdW  Elec       q    Type
REMARK                         _______ _______ _______ _____ _____    ______ ____
ROOT
ATOM     10  C   UNL     1      -0.241  -4.848   8.107  0.00  0.00    +0.038 A 
ATOM     11  C   UNL     1      -0.004  -4.402   9.433  0.00  0.00    +0.047 A 
ATOM     12  C   UNL     1      -0.811  -3.347  10.027  0.00  0.00    +0.035 A 
ATOM     32  C   UNL     1      -1.852  -2.770   9.243  0.00  0.00    +0.024 A 
ATOM     33  C   UNL     1      -2.106  -3.211   7.894  0.00  0.00    +0.007 A 
ATOM     34  C   UNL     1      -1.313  -4.249   7.302  0.00  0.00    -0.029 A 
ATOM     35  C   UNL     1      -1.625  -4.678   5.849  0.00  0.00    +0.045 C 
ENDROOT
BRANCH  10   9
ATOM      4  C   UNL     1       3.709  -6.385   5.855  0.00  0.00    +0.077 A 
ATOM      5  C   UNL     1       4.199  -5.048   5.677  0.00  0.00    +0.048 A 
ATOM      6  C   UNL     1       3.400  -3.993   6.172  0.00  0.00    +0.116 A 
ATOM      7  N   UNL     1       2.204  -4.266   6.799  0.00  0.00    -0.223 NA
ATOM      8  C   UNL     1       1.760  -5.566   6.953  0.00  0.00    +0.220 A 
ATOM      9  N   UNL     1       0.563  -5.864   7.587  0.00  0.00    -0.283 N 
ATOM     36  H   UNL     1       0.267  -6.836   7.674  0.00  0.00    +0.155 HD
ATOM     37  N   UNL     1       2.503  -6.591   6.487  0.00  0.00    -0.214 NA
BRANCH   4   3
ATOM      1  C   UNL     1       4.553  -9.823   4.191  0.00  0.00    +0.020 A 
ATOM      2  C   UNL     1       3.802  -8.664   4.618  0.00  0.00    +0.013 A 
ATOM      3  C   UNL     1       4.440  -7.605   5.389  0.00  0.00    +0.019 A 
ATOM     38  C   UNL     1       5.851  -7.749   5.715  0.00  0.00    +0.120 A 
ATOM     39  N   UNL     1       6.548  -8.877   5.292  0.00  0.00    -0.263 NA
ATOM     40  C   UNL     1       5.944  -9.903   4.550  0.00  0.00    +0.111 A 
ENDBRANCH   4   3
ENDBRANCH  10   9
BRANCH  12  13
ATOM     13  N   UNL     1      -0.611  -2.847  11.365  0.00  0.00    -0.281 N 
ATOM     14  C   UNL     1      -1.324  -3.167  12.508  0.00  0.00    +0.248 C 
ATOM     30  O   UNL     1      -2.385  -3.775  12.514  0.00  0.00    -0.270 OA
ATOM     31  H   UNL     1       0.147  -2.175  11.483  0.00  0.00    +0.155 HD
BRANCH  14  15
ATOM     15  C   UNL     1      -0.789  -2.738  13.836  0.00  0.00    +0.037 A 
ATOM     16  C   UNL     1      -0.955  -1.363  14.314  0.00  0.00    +0.013 A 
ATOM     17  C   UNL     1      -0.414  -0.972  15.592  0.00  0.00    +0.005 A 
ATOM     18  C   UNL     1       0.297  -1.958  16.402  0.00  0.00    -0.033 A 
ATOM     28  C   UNL     1       0.442  -3.317  15.906  0.00  0.00    +0.005 A 
ATOM     29  C   UNL     1      -0.086  -3.704  14.653  0.00  0.00    +0.013 A 
BRANCH  18  19
ATOM     19  C   UNL     1       0.925  -1.624  17.768  0.00  0.00    +0.119 C 
BRANCH  19  20
ATOM     20  N   UNL     1       0.224  -0.611  18.612  0.00  0.00    -0.302 NA
ATOM     21  C   UNL     1       0.568   0.822  18.195  0.00  0.00    +0.066 C 
ATOM     22  C   UNL     1      -0.191   1.868  19.075  0.00  0.00    -0.064 C 
ATOM     23  N   UNL     1       0.151   1.636  20.548  0.00  0.00    +0.379 N 
ATOM     24  C   UNL     1      -0.516   2.655  21.372  0.00  0.00    -0.096 C 
ATOM     25  H   UNL     1       1.251   1.772  20.665  0.00  0.00    -0.082 HD
ATOM     26  C   UNL     1      -0.186   0.213  20.970  0.00  0.00    -0.064 C 
ATOM     27  C   UNL     1       0.551  -0.819  20.071  0.00  0.00    +0.066 C 
ENDBRANCH  19  20
ENDBRANCH  18  19
ENDBRANCH  14  15
ENDBRANCH  12  13
TORSDOF 6
ENDMDL
MODEL 5
REMARK VINA RESULT:      -9.0      4.616     14.132
REMARK  Name = C:\Users\Docking\Desktop\test protocol\1iep_ligandH.pdb
REMARK  8 active torsions:
REMARK  status: ('A' for Active; 'I' for Inactive)
REMARK    1  A    between atoms: _5  and  _11
REMARK    2  A    between atoms: _19  and  _21
REMARK    3  A    between atoms: _22  and  _66
REMARK    4  A    between atoms: _27  and  _30
REMARK    5  A    between atoms: _32  and  _33
REMARK    6  A    between atoms: _38  and  _43
REMARK    7  A    between atoms: _43  and  _46
REMARK    8  A    between atoms: _53  and  _55
REMARK                            x       y       z     vdW  Elec       q    Type
REMARK                         _______ _______ _______ _____ _____    ______ ____
ROOT
ATOM     10  C   UNL     1      -0.180  -4.813   8.008  0.00  0.00    +0.038 A 
ATOM     11  C   UNL     1       0.046  -4.414   9.350  0.00  0.00    +0.047 A 
ATOM     12  C   UNL     1      -0.778  -3.395   9.981  0.00  0.00    +0.035 A 
ATOM     32  C   UNL     1      -1.827  -2.806   9.217  0.00  0.00    +0.024 A 
ATOM     33  C   UNL     1      -2.070  -3.199   7.851  0.00  0.00    +0.007 A 
ATOM     34  C   UNL     1      -1.258  -4.201   7.223  0.00  0.00    -0.029 A 
ATOM     35  C   UNL     1      -1.560  -4.579   5.754  0.00  0.00    +0.045 C 
ENDROOT
BRANCH  10   9
ATOM      4  C   UNL     1       3.835  -6.209   5.779  0.00  0.00    +0.077 A 
ATOM      5  C   UNL     1       4.324  -4.863   5.691  0.00  0.00    +0.048 A 
ATOM      6  C   UNL     1       3.509  -3.840   6.224  0.00  0.00    +0.116 A 
ATOM      7  N   UNL     1       2.297  -4.151   6.802  0.00  0.00    -0.223 NA
ATOM      8  C   UNL     1       1.854  -5.459   6.869  0.00  0.00    +0.220 A 
ATOM      9  N   UNL     1       0.642  -5.796   7.452  0.00  0.00    -0.283 N 
ATOM     36  H   UNL     1       0.348  -6.772   7.476  0.00  0.00    +0.155 HD
ATOM     37  N   UNL     1       2.614  -6.454   6.366  0.00  0.00    -0.214 NA
BRANCH   4   3
ATOM      1  C   UNL     1       6.553  -8.975   5.266  0.00  0.00    +0.020 A 
ATOM      2  C   UNL     1       5.872  -7.818   5.799  0.00  0.00    +0.013 A 
ATOM      3  C   UNL     1       4.583  -7.399   5.264  0.00  0.00    +0.019 A 
ATOM     38  C   UNL     1       4.005  -8.180   4.181  0.00  0.00    +0.120 A 
ATOM     39  N   UNL     1       4.684  -9.289   3.686  0.00  0.00    -0.263 NA
ATOM     40  C   UNL     1       5.926  -9.701   4.193  0.00  0.00    +0.111 A 
ENDBRANCH   4   3
ENDBRANCH  10   9
BRANCH  12  13
ATOM     13  N   UNL     1      -0.591  -2.943  11.338  0.00  0.00    -0.281 N 
ATOM     14  C   UNL     1      -1.363  -3.240  12.449  0.00  0.00    +0.248 C 
ATOM     30  O   UNL     1      -2.463  -3.770  12.404  0.00  0.00    -0.270 OA
ATOM     31  H   UNL     1       0.209  -2.330  11.498  0.00  0.00    +0.155 HD
BRANCH  14  15
ATOM     15  C   UNL     1      -0.846  -2.882  13.805  0.00  0.00    +0.037 A 
ATOM     16  C   UNL     1      -0.273  -3.899  14.692  0.00  0.00    +0.013 A 
ATOM     17  C   UNL     1       0.203  -3.530  16.001  0.00  0.00    +0.005 A 
ATOM     18  C   UNL     1       0.110  -2.137  16.431  0.00  0.00    -0.033 A 
ATOM     28  C   UNL     1      -0.457  -1.148  15.529  0.00  0.00    +0.005 A 
ATOM     29  C   UNL     1      -0.926  -1.506  14.245  0.00  0.00    +0.013 A 
BRANCH  18  19
ATOM     19  C   UNL     1       0.575  -1.657  17.819  0.00  0.00    +0.119 C 
BRANCH  19  20
ATOM     20  N   UNL     1       1.879  -2.181  18.322  0.00  0.00    -0.302 NA
ATOM     21  C   UNL     1       1.702  -3.440  19.176  0.00  0.00    +0.066 C 
ATOM     22  C   UNL     1       3.078  -3.988  19.675  0.00  0.00    -0.064 C 
ATOM     23  N   UNL     1       3.802  -2.896  20.465  0.00  0.00    +0.379 N 
ATOM     24  C   UNL     1       5.071  -3.426  20.985  0.00  0.00    -0.096 C 
ATOM     25  H   UNL     1       3.163  -2.630  21.339  0.00  0.00    -0.082 HD
ATOM     26  C   UNL     1       3.981  -1.639  19.625  0.00  0.00    -0.064 C 
ATOM     27  C   UNL     1       2.609  -1.120  19.109  0.00  0.00    +0.066 C 
ENDBRANCH  19  20
ENDBRANCH  18  19
ENDBRANCH  14  15
ENDBRANCH  12  13
TORSDOF 6
ENDMDL
