MODEL 1
REMARK VINA RESULT:      -8.9      0.000      0.000
REMARK  Name = C:\Users\Docking\Desktop\test protocol\1iep_ligandH.pdb
REMARK  8 active torsions:
REMARK  status: ('A' for Active; 'I' for Inactive)
REMARK    1  A    between atoms: _5  and  _11
REMARK    2  A    between atoms: _19  and  _21
REMARK    3  A    between atoms: _22  and  _66
REMARK    4  A    between atoms: _27  and  _30
REMARK    5  A    between atoms: _32  and  _33
REMARK    6  A    between atoms: _38  and  _43
REMARK    7  A    between atoms: _43  and  _46
REMARK    8  A    between atoms: _53  and  _55
REMARK                            x       y       z     vdW  Elec       q    Type
REMARK                         _______ _______ _______ _____ _____    ______ ____
ROOT
ATOM     10  C   UNL     1      -0.152  -4.604   8.107  0.00  0.00    +0.038 A 
ATOM     11  C   UNL     1       0.059  -4.230   9.459  0.00  0.00    +0.047 A 
ATOM     12  C   UNL     1      -0.693  -3.143  10.065  0.00  0.00    +0.035 A 
ATOM     32  C   UNL     1      -1.656  -2.459   9.266  0.00  0.00    +0.024 A 
ATOM     33  C   UNL     1      -1.883  -2.826   7.890  0.00  0.00    +0.007 A 
ATOM     34  C   UNL     1      -1.141  -3.896   7.286  0.00  0.00    -0.029 A 
ATOM     35  C   UNL     1      -1.422  -4.242   5.805  0.00  0.00    +0.045 C 
ENDROOT
BRANCH  10   9
ATOM      4  C   UNL     1       3.714  -6.323   5.841  0.00  0.00    +0.077 A 
ATOM      5  C   UNL     1       4.274  -5.012   5.677  0.00  0.00    +0.048 A 
ATOM      6  C   UNL     1       3.532  -3.922   6.184  0.00  0.00    +0.116 A 
ATOM      7  N   UNL     1       2.322  -4.138   6.807  0.00  0.00    -0.223 NA
ATOM      8  C   UNL     1       1.810  -5.415   6.947  0.00  0.00    +0.220 A 
ATOM      9  N   UNL     1       0.598  -5.656   7.576  0.00  0.00    -0.283 N 
ATOM     36  H   UNL     1       0.251  -6.612   7.653  0.00  0.00    +0.155 HD
ATOM     37  N   UNL     1       2.498  -6.472   6.470  0.00  0.00    -0.214 NA
BRANCH   4   3
ATOM      1  C   UNL     1       6.420  -8.982   4.888  0.00  0.00    +0.020 A 
ATOM      2  C   UNL     1       5.827  -7.752   5.361  0.00  0.00    +0.013 A 
ATOM      3  C   UNL     1       4.380  -7.575   5.362  0.00  0.00    +0.019 A 
ATOM     38  C   UNL     1       3.555  -8.670   4.875  0.00  0.00    +0.120 A 
ATOM     39  N   UNL     1       4.154  -9.843   4.424  0.00  0.00    -0.263 NA
ATOM     40  C   UNL     1       5.545 -10.024   4.417  0.00  0.00    +0.111 A 
ENDBRANCH   4   3
ENDBRANCH  10   9
BRANCH  12  13
ATOM     13  N   UNL     1      -0.516  -2.713  11.430  0.00  0.00    -0.281 N 
ATOM     14  C   UNL     1      -1.251  -3.088  12.543  0.00  0.00    +0.248 C 
ATOM     30  O   UNL     1      -2.313  -3.690  12.499  0.00  0.00    -0.270 OA
ATOM     31  H   UNL     1       0.243  -2.052  11.596  0.00  0.00    +0.155 HD
BRANCH  14  15
ATOM     15  C   UNL     1      -0.738  -2.730  13.901  0.00  0.00    +0.037 A 
ATOM     16  C   UNL     1       0.054  -3.678  14.688  0.00  0.00    +0.013 A 
ATOM     17  C   UNL     1       0.522  -3.314  16.002  0.00  0.00    +0.005 A 
ATOM     18  C   UNL     1       0.200  -1.993  16.536  0.00  0.00    -0.033 A 
ATOM     28  C   UNL     1      -0.583  -1.070  15.731  0.00  0.00    +0.005 A 
ATOM     29  C   UNL     1      -1.044  -1.424  14.444  0.00  0.00    +0.013 A 
BRANCH  18  19
ATOM     19  C   UNL     1       0.640  -1.527  17.937  0.00  0.00    +0.119 C 
BRANCH  19  20
ATOM     20  N   UNL     1       1.855  -2.169  18.520  0.00  0.00    -0.302 NA
ATOM     21  C   UNL     1       1.499  -3.236  19.559  0.00  0.00    +0.066 C 
ATOM     22  C   UNL     1       2.782  -3.913  20.143  0.00  0.00    -0.064 C 
ATOM     23  N   UNL     1       3.686  -2.842  20.755  0.00  0.00    +0.379 N 
ATOM     24  C   UNL     1       4.866  -3.481  21.356  0.00  0.00    -0.096 C 
ATOM     25  H   UNL     1       3.115  -2.346  21.574  0.00  0.00    -0.082 HD
ATOM     26  C   UNL     1       4.043  -1.775  19.730  0.00  0.00    -0.064 C 
ATOM     27  C   UNL     1       2.761  -1.130  19.135  0.00  0.00    +0.066 C 
ENDBRANCH  19  20
ENDBRANCH  18  19
ENDBRANCH  14  15
ENDBRANCH  12  13
TORSDOF 6
ENDMDL
MODEL 2
REMARK VINA RESULT:      -8.8      4.647     14.232
REMARK  Name = C:\Users\Docking\Desktop\test protocol\1iep_ligandH.pdb
REMARK  8 active torsions:
REMARK  status: ('A' for Active; 'I' for Inactive)
REMARK    1  A    between atoms: _5  and  _11
REMARK    2  A    between atoms: _19  and  _21
REMARK    3  A    between atoms: _22  and  _66
REMARK    4  A    between atoms: _27  and  _30
REMARK    5  A    between atoms: _32  and  _33
REMARK    6  A    between atoms: _38  and  _43
REMARK    7  A    between atoms: _43  and  _46
REMARK    8  A    between atoms: _53  and  _55
REMARK                            x       y       z     vdW  Elec       q    Type
REMARK                         _______ _______ _______ _____ _____    ______ ____
ROOT
ATOM     10  C   UNL     1       0.683   0.185  17.906  0.00  0.00    +0.038 A 
ATOM     11  C   UNL     1       0.276  -0.539  16.756  0.00  0.00    +0.047 A 
ATOM     12  C   UNL     1       0.675  -1.924  16.558  0.00  0.00    +0.035 A 
ATOM     32  C   UNL     1       1.488  -2.541  17.552  0.00  0.00    +0.024 A 
ATOM     33  C   UNL     1       1.912  -1.820  18.727  0.00  0.00    +0.007 A 
ATOM     34  C   UNL     1       1.523  -0.454  18.927  0.00  0.00    -0.029 A 
ATOM     35  C   UNL     1       2.013   0.272  20.201  0.00  0.00    +0.045 C 
ENDROOT
BRANCH  10   9
ATOM      4  C   UNL     1      -1.897   3.610  20.061  0.00  0.00    +0.077 A 
ATOM      5  C   UNL     1      -2.493   2.673  20.968  0.00  0.00    +0.048 A 
ATOM      6  C   UNL     1      -2.115   1.317  20.843  0.00  0.00    +0.116 A 
ATOM      7  N   UNL     1      -1.206   0.939  19.878  0.00  0.00    -0.223 NA
ATOM      8  C   UNL     1      -0.651   1.868  19.018  0.00  0.00    +0.220 A 
ATOM      9  N   UNL     1       0.271   1.512  18.046  0.00  0.00    -0.283 N 
ATOM     36  H   UNL     1       0.652   2.226  17.426  0.00  0.00    +0.155 HD
ATOM     37  N   UNL     1      -0.997   3.169  19.117  0.00  0.00    -0.214 NA
BRANCH   4   3
ATOM      1  C   UNL     1      -3.780   7.038  20.069  0.00  0.00    +0.020 A 
ATOM      2  C   UNL     1      -3.549   5.612  20.058  0.00  0.00    +0.013 A 
ATOM      3  C   UNL     1      -2.193   5.078  20.071  0.00  0.00    +0.019 A 
ATOM     38  C   UNL     1      -1.085   6.020  20.096  0.00  0.00    +0.120 A 
ATOM     39  N   UNL     1      -1.338   7.389  20.104  0.00  0.00    -0.263 NA
ATOM     40  C   UNL     1      -2.639   7.915  20.090  0.00  0.00    +0.111 A 
ENDBRANCH   4   3
ENDBRANCH  10   9
BRANCH  12  13
ATOM     13  N   UNL     1       0.299  -2.706  15.406  0.00  0.00    -0.281 N 
ATOM     14  C   UNL     1      -0.964  -3.156  15.059  0.00  0.00    +0.248 C 
ATOM     30  O   UNL     1      -1.934  -3.135  15.801  0.00  0.00    -0.270 OA
ATOM     31  H   UNL     1       1.056  -2.959  14.771  0.00  0.00    +0.155 HD
BRANCH  14  15
ATOM     15  C   UNL     1      -1.177  -3.726  13.693  0.00  0.00    +0.037 A 
ATOM     16  C   UNL     1      -1.182  -5.173  13.466  0.00  0.00    +0.013 A 
ATOM     17  C   UNL     1      -1.373  -5.696  12.136  0.00  0.00    +0.005 A 
ATOM     18  C   UNL     1      -1.561  -4.769  11.023  0.00  0.00    -0.033 A 
ATOM     28  C   UNL     1      -1.557  -3.338  11.277  0.00  0.00    +0.005 A 
ATOM     29  C   UNL     1      -1.370  -2.822  12.579  0.00  0.00    +0.013 A 
BRANCH  18  19
ATOM     19  C   UNL     1      -1.751  -5.237   9.568  0.00  0.00    +0.119 C 
BRANCH  19  20
ATOM     20  N   UNL     1      -2.207  -4.218   8.575  0.00  0.00    -0.302 NA
ATOM     21  C   UNL     1      -3.466  -4.666   7.829  0.00  0.00    +0.066 C 
ATOM     22  C   UNL     1      -3.942  -3.579   6.811  0.00  0.00    -0.064 C 
ATOM     23  N   UNL     1      -2.811  -3.274   5.829  0.00  0.00    +0.379 N 
ATOM     24  C   UNL     1      -3.274  -2.295   4.835  0.00  0.00    -0.096 C 
ATOM     25  H   UNL     1      -2.570  -4.218   5.287  0.00  0.00    -0.082 HD
ATOM     26  C   UNL     1      -1.553  -2.830   6.562  0.00  0.00    -0.064 C 
ATOM     27  C   UNL     1      -1.105  -3.905   7.592  0.00  0.00    +0.066 C 
ENDBRANCH  19  20
ENDBRANCH  18  19
ENDBRANCH  14  15
ENDBRANCH  12  13
TORSDOF 6
ENDMDL
MODEL 3
REMARK VINA RESULT:      -8.8     13.611     17.844
REMARK  Name = C:\Users\Docking\Desktop\test protocol\1iep_ligandH.pdb
REMARK  8 active torsions:
REMARK  status: ('A' for Active; 'I' for Inactive)
REMARK    1  A    between atoms: _5  and  _11
REMARK    2  A    between atoms: _19  and  _21
REMARK    3  A    between atoms: _22  and  _66
REMARK    4  A    between atoms: _27  and  _30
REMARK    5  A    between atoms: _32  and  _33
REMARK    6  A    between atoms: _38  and  _43
REMARK    7  A    between atoms: _43  and  _46
REMARK    8  A    between atoms: _53  and  _55
REMARK                            x       y       z     vdW  Elec       q    Type
REMARK                         _______ _______ _______ _____ _____    ______ ____
ROOT
ATOM     10  C   UNL     1       2.571   0.157  27.847  0.00  0.00    +0.038 A 
ATOM     11  C   UNL     1       2.230   0.850  26.657  0.00  0.00    +0.047 A 
ATOM     12  C   UNL     1       0.842   1.035  26.265  0.00  0.00    +0.035 A 
ATOM     32  C   UNL     1      -0.175   0.503  27.111  0.00  0.00    +0.024 A 
ATOM     33  C   UNL     1       0.153  -0.204  28.324  0.00  0.00    +0.007 A 
ATOM     34  C   UNL     1       1.521  -0.392  28.714  0.00  0.00    -0.029 A 
ATOM     35  C   UNL     1       1.815  -1.164  30.021  0.00  0.00    +0.045 C 
ENDROOT
BRANCH  10   9
ATOM      4  C   UNL     1       6.824  -2.018  27.385  0.00  0.00    +0.077 A 
ATOM      5  C   UNL     1       6.308  -2.955  26.430  0.00  0.00    +0.048 A 
ATOM      6  C   UNL     1       4.941  -2.848  26.090  0.00  0.00    +0.116 A 
ATOM      7  N   UNL     1       4.158  -1.872  26.668  0.00  0.00    -0.223 NA
ATOM      8  C   UNL     1       4.687  -0.985  27.587  0.00  0.00    +0.220 A 
ATOM      9  N   UNL     1       3.920   0.009  28.175  0.00  0.00    -0.283 N 
ATOM     36  H   UNL     1       4.346   0.639  28.854  0.00  0.00    +0.155 HD
ATOM     37  N   UNL     1       5.990  -1.067  27.930  0.00  0.00    -0.214 NA
BRANCH   4   3
ATOM      1  C   UNL     1      10.733  -1.864  27.422  0.00  0.00    +0.020 A 
ATOM      2  C   UNL     1       9.376  -1.875  26.928  0.00  0.00    +0.013 A 
ATOM      3  C   UNL     1       8.249  -2.001  27.844  0.00  0.00    +0.019 A 
ATOM     38  C   UNL     1       8.533  -2.113  29.267  0.00  0.00    +0.120 A 
ATOM     39  N   UNL     1       9.851  -2.100  29.715  0.00  0.00    -0.263 NA
ATOM     40  C   UNL     1      10.942  -1.982  28.842  0.00  0.00    +0.111 A 
ENDBRANCH   4   3
ENDBRANCH  10   9
BRANCH  12  13
ATOM     13  N   UNL     1       0.435   1.722  25.064  0.00  0.00    -0.281 N 
ATOM     14  C   UNL     1       0.430   1.237  23.767  0.00  0.00    +0.248 C 
ATOM     30  O   UNL     1       0.979   0.205  23.412  0.00  0.00    -0.270 OA
ATOM     31  H   UNL     1       0.112   2.681  25.186  0.00  0.00    +0.155 HD
BRANCH  14  15
ATOM     15  C   UNL     1      -0.274   2.021  22.706  0.00  0.00    +0.037 A 
ATOM     16  C   UNL     1      -0.613   1.418  21.415  0.00  0.00    +0.013 A 
ATOM     17  C   UNL     1      -1.277   2.201  20.403  0.00  0.00    +0.005 A 
ATOM     18  C   UNL     1      -1.608   3.597  20.680  0.00  0.00    -0.033 A 
ATOM     28  C   UNL     1      -1.265   4.168  21.972  0.00  0.00    +0.005 A 
ATOM     29  C   UNL     1      -0.613   3.404  22.966  0.00  0.00    +0.013 A 
BRANCH  18  19
ATOM     19  C   UNL     1      -2.298   4.513  19.652  0.00  0.00    +0.119 C 
BRANCH  19  20
ATOM     20  N   UNL     1      -2.416   5.961  19.997  0.00  0.00    -0.302 NA
ATOM     21  C   UNL     1      -3.800   6.521  19.658  0.00  0.00    +0.066 C 
ATOM     22  C   UNL     1      -3.913   8.031  20.047  0.00  0.00    -0.064 C 
ATOM     23  N   UNL     1      -2.818   8.823  19.330  0.00  0.00    +0.379 N 
ATOM     24  C   UNL     1      -2.958  10.252  19.648  0.00  0.00    -0.096 C 
ATOM     25  H   UNL     1      -2.977   8.703  18.233  0.00  0.00    -0.082 HD
ATOM     26  C   UNL     1      -1.439   8.271  19.660  0.00  0.00    -0.064 C 
ATOM     27  C   UNL     1      -1.346   6.762  19.297  0.00  0.00    +0.066 C 
ENDBRANCH  19  20
ENDBRANCH  18  19
ENDBRANCH  14  15
ENDBRANCH  12  13
TORSDOF 6
ENDMDL
MODEL 4
REMARK VINA RESULT:      -8.8      1.741      2.636
REMARK  Name = C:\Users\Docking\Desktop\test protocol\1iep_ligandH.pdb
REMARK  8 active torsions:
REMARK  status: ('A' for Active; 'I' for Inactive)
REMARK    1  A    between atoms: _5  and  _11
REMARK    2  A    between atoms: _19  and  _21
REMARK    3  A    between atoms: _22  and  _66
REMARK    4  A    between atoms: _27  and  _30
REMARK    5  A    between atoms: _32  and  _33
REMARK    6  A    between atoms: _38  and  _43
REMARK    7  A    between atoms: _43  and  _46
REMARK    8  A    between atoms: _53  and  _55
REMARK                            x       y       z     vdW  Elec       q    Type
REMARK                         _______ _______ _______ _____ _____    ______ ____
ROOT
ATOM     10  C   UNL     1      -0.247  -4.829   8.071  0.00  0.00    +0.038 A 
ATOM     11  C   UNL     1      -0.033  -4.378   9.399  0.00  0.00    +0.047 A 
ATOM     12  C   UNL     1      -0.842  -3.314   9.972  0.00  0.00    +0.035 A 
ATOM     32  C   UNL     1      -1.862  -2.731   9.165  0.00  0.00    +0.024 A 
ATOM     33  C   UNL     1      -2.093  -3.176   7.813  0.00  0.00    +0.007 A 
ATOM     34  C   UNL     1      -1.297  -4.224   7.241  0.00  0.00    -0.029 A 
ATOM     35  C   UNL     1      -1.584  -4.656   5.784  0.00  0.00    +0.045 C 
ENDROOT
BRANCH  10   9
ATOM      4  C   UNL     1       3.732  -6.411   5.903  0.00  0.00    +0.077 A 
ATOM      5  C   UNL     1       4.236  -5.079   5.727  0.00  0.00    +0.048 A 
ATOM      6  C   UNL     1       3.438  -4.015   6.202  0.00  0.00    +0.116 A 
ATOM      7  N   UNL     1       2.227  -4.274   6.806  0.00  0.00    -0.223 NA
ATOM      8  C   UNL     1       1.769  -5.570   6.959  0.00  0.00    +0.220 A 
ATOM      9  N   UNL     1       0.558  -5.854   7.571  0.00  0.00    -0.283 N 
ATOM     36  H   UNL     1       0.252  -6.823   7.658  0.00  0.00    +0.155 HD
ATOM     37  N   UNL     1       2.512  -6.604   6.513  0.00  0.00    -0.214 NA
BRANCH   4   3
ATOM      1  C   UNL     1       4.595  -9.836   4.223  0.00  0.00    +0.020 A 
ATOM      2  C   UNL     1       3.847  -8.668   4.627  0.00  0.00    +0.013 A 
ATOM      3  C   UNL     1       4.461  -7.640   5.457  0.00  0.00    +0.019 A 
ATOM     38  C   UNL     1       5.845  -7.825   5.865  0.00  0.00    +0.120 A 
ATOM     39  N   UNL     1       6.541  -8.961   5.462  0.00  0.00    -0.263 NA
ATOM     40  C   UNL     1       5.960  -9.958   4.665  0.00  0.00    +0.111 A 
ENDBRANCH   4   3
ENDBRANCH  10   9
BRANCH  12  13
ATOM     13  N   UNL     1      -0.665  -2.810  11.311  0.00  0.00    -0.281 N 
ATOM     14  C   UNL     1      -1.348  -3.181  12.458  0.00  0.00    +0.248 C 
ATOM     30  O   UNL     1      -2.368  -3.855  12.467  0.00  0.00    -0.270 OA
ATOM     31  H   UNL     1       0.050  -2.092  11.428  0.00  0.00    +0.155 HD
BRANCH  14  15
ATOM     15  C   UNL     1      -0.832  -2.727  13.785  0.00  0.00    +0.037 A 
ATOM     16  C   UNL     1      -1.059  -1.360  14.261  0.00  0.00    +0.013 A 
ATOM     17  C   UNL     1      -0.536  -0.942  15.538  0.00  0.00    +0.005 A 
ATOM     18  C   UNL     1       0.220  -1.895  16.348  0.00  0.00    -0.033 A 
ATOM     28  C   UNL     1       0.426  -3.246  15.854  0.00  0.00    +0.005 A 
ATOM     29  C   UNL     1      -0.085  -3.658  14.603  0.00  0.00    +0.013 A 
BRANCH  18  19
ATOM     19  C   UNL     1       0.833  -1.530  17.713  0.00  0.00    +0.119 C 
BRANCH  19  20
ATOM     20  N   UNL     1       0.116  -0.508  18.533  0.00  0.00    -0.302 NA
ATOM     21  C   UNL     1       0.589   0.914  18.221  0.00  0.00    +0.066 C 
ATOM     22  C   UNL     1      -0.187   1.972  19.072  0.00  0.00    -0.064 C 
ATOM     23  N   UNL     1      -0.010   1.656  20.558  0.00  0.00    +0.379 N 
ATOM     24  C   UNL     1      -0.690   2.682  21.362  0.00  0.00    -0.096 C 
ATOM     25  H   UNL     1       1.080   1.713  20.788  0.00  0.00    -0.082 HD
ATOM     26  C   UNL     1      -0.475   0.242  20.877  0.00  0.00    -0.064 C 
ATOM     27  C   UNL     1       0.282  -0.798  20.005  0.00  0.00    +0.066 C 
ENDBRANCH  19  20
ENDBRANCH  18  19
ENDBRANCH  14  15
ENDBRANCH  12  13
TORSDOF 6
ENDMDL
MODEL 5
REMARK VINA RESULT:      -8.7      4.515     13.993
REMARK  Name = C:\Users\Docking\Desktop\test protocol\1iep_ligandH.pdb
REMARK  8 active torsions:
REMARK  status: ('A' for Active; 'I' for Inactive)
REMARK    1  A    between atoms: _5  and  _11
REMARK    2  A    between atoms: _19  and  _21
REMARK    3  A    between atoms: _22  and  _66
REMARK    4  A    between atoms: _27  and  _30
REMARK    5  A    between atoms: _32  and  _33
REMARK    6  A    between atoms: _38  and  _43
REMARK    7  A    between atoms: _43  and  _46
REMARK    8  A    between atoms: _53  and  _55
REMARK                            x       y       z     vdW  Elec       q    Type
REMARK                         _______ _______ _______ _____ _____    ______ ____
ROOT
ATOM     10  C   UNL     1       0.689   0.103  17.849  0.00  0.00    +0.038 A 
ATOM     11  C   UNL     1       0.289  -0.607  16.688  0.00  0.00    +0.047 A 
ATOM     12  C   UNL     1       0.666  -1.998  16.490  0.00  0.00    +0.035 A 
ATOM     32  C   UNL     1       1.448  -2.637  17.496  0.00  0.00    +0.024 A 
ATOM     33  C   UNL     1       1.864  -1.930  18.682  0.00  0.00    +0.007 A 
ATOM     34  C   UNL     1       1.498  -0.557  18.882  0.00  0.00    -0.029 A 
ATOM     35  C   UNL     1       1.977   0.153  20.169  0.00  0.00    +0.045 C 
ENDROOT
BRANCH  10   9
ATOM      4  C   UNL     1      -1.808   3.579  20.022  0.00  0.00    +0.077 A 
ATOM      5  C   UNL     1      -2.408   2.655  20.940  0.00  0.00    +0.048 A 
ATOM      6  C   UNL     1      -2.053   1.293  20.816  0.00  0.00    +0.116 A 
ATOM      7  N   UNL     1      -1.163   0.896  19.842  0.00  0.00    -0.223 NA
ATOM      8  C   UNL     1      -0.604   1.812  18.970  0.00  0.00    +0.220 A 
ATOM      9  N   UNL     1       0.300   1.437  17.988  0.00  0.00    -0.283 N 
ATOM     36  H   UNL     1       0.684   2.142  17.360  0.00  0.00    +0.155 HD
ATOM     37  N   UNL     1      -0.927   3.119  19.068  0.00  0.00    -0.214 NA
BRANCH   4   3
ATOM      1  C   UNL     1      -1.338   7.462  20.045  0.00  0.00    +0.020 A 
ATOM      2  C   UNL     1      -1.021   6.052  20.039  0.00  0.00    +0.013 A 
ATOM      3  C   UNL     1      -2.080   5.051  20.029  0.00  0.00    +0.019 A 
ATOM     38  C   UNL     1      -3.460   5.512  20.024  0.00  0.00    +0.120 A 
ATOM     39  N   UNL     1      -3.735   6.876  20.032  0.00  0.00    -0.263 NA
ATOM     40  C   UNL     1      -2.724   7.849  20.043  0.00  0.00    +0.111 A 
ENDBRANCH   4   3
ENDBRANCH  10   9
BRANCH  12  13
ATOM     13  N   UNL     1       0.296  -2.768  15.328  0.00  0.00    -0.281 N 
ATOM     14  C   UNL     1      -0.978  -3.097  14.895  0.00  0.00    +0.248 C 
ATOM     30  O   UNL     1      -1.992  -2.960  15.563  0.00  0.00    -0.270 OA
ATOM     31  H   UNL     1       1.067  -3.111  14.755  0.00  0.00    +0.155 HD
BRANCH  14  15
ATOM     15  C   UNL     1      -1.148  -3.677  13.527  0.00  0.00    +0.037 A 
ATOM     16  C   UNL     1      -1.184  -5.126  13.315  0.00  0.00    +0.013 A 
ATOM     17  C   UNL     1      -1.332  -5.658  11.984  0.00  0.00    +0.005 A 
ATOM     18  C   UNL     1      -1.448  -4.739  10.854  0.00  0.00    -0.033 A 
ATOM     28  C   UNL     1      -1.415  -3.306  11.094  0.00  0.00    +0.005 A 
ATOM     29  C   UNL     1      -1.269  -2.781  12.397  0.00  0.00    +0.013 A 
BRANCH  18  19
ATOM     19  C   UNL     1      -1.588  -5.219   9.397  0.00  0.00    +0.119 C 
BRANCH  19  20
ATOM     20  N   UNL     1      -0.339  -5.625   8.687  0.00  0.00    -0.302 NA
ATOM     21  C   UNL     1       0.227  -4.492   7.826  0.00  0.00    +0.066 C 
ATOM     22  C   UNL     1       1.547  -4.927   7.109  0.00  0.00    -0.064 C 
ATOM     23  N   UNL     1       1.276  -6.170   6.259  0.00  0.00    +0.379 N 
ATOM     24  C   UNL     1       2.501  -6.547   5.538  0.00  0.00    -0.096 C 
ATOM     25  H   UNL     1       0.506  -5.899   5.500  0.00  0.00    -0.082 HD
ATOM     26  C   UNL     1       0.711  -7.300   7.107  0.00  0.00    -0.064 C 
ATOM     27  C   UNL     1      -0.584  -6.848   7.839  0.00  0.00    +0.066 C 
ENDBRANCH  19  20
ENDBRANCH  18  19
ENDBRANCH  14  15
ENDBRANCH  12  13
TORSDOF 6
ENDMDL
