MODEL 1
REMARK VINA RESULT:      -8.4      0.000      0.000
REMARK  Name = C:\Users\Docking\Desktop\test protocol\1iep_ligandH.pdb
REMARK  8 active torsions:
REMARK  status: ('A' for Active; 'I' for Inactive)
REMARK    1  A    between atoms: _5  and  _11
REMARK    2  A    between atoms: _19  and  _21
REMARK    3  A    between atoms: _22  and  _66
REMARK    4  A    between atoms: _27  and  _30
REMARK    5  A    between atoms: _32  and  _33
REMARK    6  A    between atoms: _38  and  _43
REMARK    7  A    between atoms: _43  and  _46
REMARK    8  A    between atoms: _53  and  _55
REMARK                            x       y       z     vdW  Elec       q    Type
REMARK                         _______ _______ _______ _____ _____    ______ ____
ROOT
ATOM     10  C   UNL     1      53.831  24.072  38.500  0.00  0.00    +0.038 A 
ATOM     11  C   UNL     1      52.649  24.354  39.230  0.00  0.00    +0.047 A 
ATOM     12  C   UNL     1      52.463  23.854  40.584  0.00  0.00    +0.035 A 
ATOM     32  C   UNL     1      53.504  23.071  41.163  0.00  0.00    +0.024 A 
ATOM     33  C   UNL     1      54.712  22.774  40.435  0.00  0.00    +0.007 A 
ATOM     34  C   UNL     1      54.900  23.263  39.099  0.00  0.00    -0.029 A 
ATOM     35  C   UNL     1      56.213  22.908  38.362  0.00  0.00    +0.045 C 
ENDROOT
BRANCH  10   9
ATOM      4  C   UNL     1      53.383  23.671  33.738  0.00  0.00    +0.077 A 
ATOM      5  C   UNL     1      52.882  22.331  33.839  0.00  0.00    +0.048 A 
ATOM      6  C   UNL     1      52.761  21.779  35.134  0.00  0.00    +0.116 A 
ATOM      7  N   UNL     1      53.118  22.521  36.238  0.00  0.00    -0.223 NA
ATOM      8  C   UNL     1      53.600  23.810  36.106  0.00  0.00    +0.220 A 
ATOM      9  N   UNL     1      53.957  24.578  37.204  0.00  0.00    -0.283 N 
ATOM     36  H   UNL     1      54.315  25.522  37.064  0.00  0.00    +0.155 HD
ATOM     37  N   UNL     1      53.726  24.359  34.880  0.00  0.00    -0.214 NA
BRANCH   4   3
ATOM      1  C   UNL     1      54.692  26.110  30.974  0.00  0.00    +0.020 A 
ATOM      2  C   UNL     1      54.557  25.444  32.249  0.00  0.00    +0.013 A 
ATOM      3  C   UNL     1      53.565  24.393  32.439  0.00  0.00    +0.019 A 
ATOM     38  C   UNL     1      52.719  24.037  31.310  0.00  0.00    +0.120 A 
ATOM     39  N   UNL     1      52.871  24.697  30.094  0.00  0.00    -0.263 NA
ATOM     40  C   UNL     1      53.821  25.711  29.900  0.00  0.00    +0.111 A 
ENDBRANCH   4   3
ENDBRANCH  10   9
BRANCH  12  13
ATOM     13  N   UNL     1      51.281  24.101  41.371  0.00  0.00    -0.281 N 
ATOM     14  C   UNL     1      50.952  25.246  42.078  0.00  0.00    +0.248 C 
ATOM     30  O   UNL     1      51.729  26.158  42.315  0.00  0.00    -0.270 OA
ATOM     31  H   UNL     1      50.604  23.339  41.412  0.00  0.00    +0.155 HD
BRANCH  14  15
ATOM     15  C   UNL     1      49.563  25.392  42.610  0.00  0.00    +0.037 A 
ATOM     16  C   UNL     1      48.665  26.438  42.113  0.00  0.00    +0.013 A 
ATOM     17  C   UNL     1      47.336  26.568  42.655  0.00  0.00    +0.005 A 
ATOM     18  C   UNL     1      46.896  25.648  43.701  0.00  0.00    -0.033 A 
ATOM     28  C   UNL     1      47.806  24.616  44.172  0.00  0.00    +0.005 A 
ATOM     29  C   UNL     1      49.110  24.487  43.644  0.00  0.00    +0.013 A 
BRANCH  18  19
ATOM     19  C   UNL     1      45.503  25.726  44.353  0.00  0.00    +0.119 C 
BRANCH  19  20
ATOM     20  N   UNL     1      44.490  26.605  43.696  0.00  0.00    -0.302 NA
ATOM     21  C   UNL     1      43.974  27.693  44.641  0.00  0.00    +0.066 C 
ATOM     22  C   UNL     1      42.931  28.617  43.931  0.00  0.00    -0.064 C 
ATOM     23  N   UNL     1      41.775  27.766  43.404  0.00  0.00    +0.379 N 
ATOM     24  C   UNL     1      40.766  28.638  42.786  0.00  0.00    -0.096 C 
ATOM     25  H   UNL     1      41.300  27.263  44.278  0.00  0.00    -0.082 HD
ATOM     26  C   UNL     1      42.280  26.679  42.465  0.00  0.00    -0.064 C 
ATOM     27  C   UNL     1      43.337  25.785  43.171  0.00  0.00    +0.066 C 
ENDBRANCH  19  20
ENDBRANCH  18  19
ENDBRANCH  14  15
ENDBRANCH  12  13
TORSDOF 6
ENDMDL
MODEL 2
REMARK VINA RESULT:      -8.0      1.430      2.205
REMARK  Name = C:\Users\Docking\Desktop\test protocol\1iep_ligandH.pdb
REMARK  8 active torsions:
REMARK  status: ('A' for Active; 'I' for Inactive)
REMARK    1  A    between atoms: _5  and  _11
REMARK    2  A    between atoms: _19  and  _21
REMARK    3  A    between atoms: _22  and  _66
REMARK    4  A    between atoms: _27  and  _30
REMARK    5  A    between atoms: _32  and  _33
REMARK    6  A    between atoms: _38  and  _43
REMARK    7  A    between atoms: _43  and  _46
REMARK    8  A    between atoms: _53  and  _55
REMARK                            x       y       z     vdW  Elec       q    Type
REMARK                         _______ _______ _______ _____ _____    ______ ____
ROOT
ATOM     10  C   UNL     1      54.047  24.229  38.397  0.00  0.00    +0.038 A 
ATOM     11  C   UNL     1      52.846  24.492  39.104  0.00  0.00    +0.047 A 
ATOM     12  C   UNL     1      52.689  24.095  40.494  0.00  0.00    +0.035 A 
ATOM     32  C   UNL     1      53.777  23.433  41.135  0.00  0.00    +0.024 A 
ATOM     33  C   UNL     1      55.004  23.157  40.431  0.00  0.00    +0.007 A 
ATOM     34  C   UNL     1      55.164  23.544  39.058  0.00  0.00    -0.029 A 
ATOM     35  C   UNL     1      56.500  23.216  38.351  0.00  0.00    +0.045 C 
ENDROOT
BRANCH  10   9
ATOM      4  C   UNL     1      53.407  23.498  33.696  0.00  0.00    +0.077 A 
ATOM      5  C   UNL     1      52.859  22.190  33.914  0.00  0.00    +0.048 A 
ATOM      6  C   UNL     1      52.765  21.740  35.250  0.00  0.00    +0.116 A 
ATOM      7  N   UNL     1      53.191  22.546  36.284  0.00  0.00    -0.223 NA
ATOM      8  C   UNL     1      53.716  23.801  36.039  0.00  0.00    +0.220 A 
ATOM      9  N   UNL     1      54.143  24.632  37.063  0.00  0.00    -0.283 N 
ATOM     36  H   UNL     1      54.532  25.548  36.841  0.00  0.00    +0.155 HD
ATOM     37  N   UNL     1      53.818  24.254  34.772  0.00  0.00    -0.214 NA
BRANCH   4   3
ATOM      1  C   UNL     1      54.684  25.694  30.723  0.00  0.00    +0.020 A 
ATOM      2  C   UNL     1      54.570  25.131  32.048  0.00  0.00    +0.013 A 
ATOM      3  C   UNL     1      53.568  24.115  32.342  0.00  0.00    +0.019 A 
ATOM     38  C   UNL     1      52.690  23.687  31.263  0.00  0.00    +0.120 A 
ATOM     39  N   UNL     1      52.822  24.248  29.997  0.00  0.00    -0.263 NA
ATOM     40  C   UNL     1      53.782  25.228  29.703  0.00  0.00    +0.111 A 
ENDBRANCH   4   3
ENDBRANCH  10   9
BRANCH  12  13
ATOM     13  N   UNL     1      51.490  24.328  41.261  0.00  0.00    -0.281 N 
ATOM     14  C   UNL     1      51.086  25.504  41.873  0.00  0.00    +0.248 C 
ATOM     30  O   UNL     1      51.803  26.480  42.035  0.00  0.00    -0.270 OA
ATOM     31  H   UNL     1      50.863  23.530  41.365  0.00  0.00    +0.155 HD
BRANCH  14  15
ATOM     15  C   UNL     1      49.689  25.603  42.394  0.00  0.00    +0.037 A 
ATOM     16  C   UNL     1      49.169  24.637  43.365  0.00  0.00    +0.013 A 
ATOM     17  C   UNL     1      47.812  24.746  43.838  0.00  0.00    +0.005 A 
ATOM     18  C   UNL     1      46.965  25.827  43.341  0.00  0.00    -0.033 A 
ATOM     28  C   UNL     1      47.508  26.775  42.382  0.00  0.00    +0.005 A 
ATOM     29  C   UNL     1      48.837  26.671  41.915  0.00  0.00    +0.013 A 
BRANCH  18  19
ATOM     19  C   UNL     1      45.498  26.008  43.775  0.00  0.00    +0.119 C 
BRANCH  19  20
ATOM     20  N   UNL     1      45.212  25.993  45.240  0.00  0.00    -0.302 NA
ATOM     21  C   UNL     1      44.420  24.750  45.659  0.00  0.00    +0.066 C 
ATOM     22  C   UNL     1      44.149  24.740  47.198  0.00  0.00    -0.064 C 
ATOM     23  N   UNL     1      43.402  26.016  47.590  0.00  0.00    +0.379 N 
ATOM     24  C   UNL     1      43.094  25.982  49.028  0.00  0.00    -0.096 C 
ATOM     25  H   UNL     1      42.434  26.024  47.037  0.00  0.00    -0.082 HD
ATOM     26  C   UNL     1      44.180  27.256  47.176  0.00  0.00    -0.064 C 
ATOM     27  C   UNL     1      44.470  27.242  45.649  0.00  0.00    +0.066 C 
ENDBRANCH  19  20
ENDBRANCH  18  19
ENDBRANCH  14  15
ENDBRANCH  12  13
TORSDOF 6
ENDMDL
MODEL 3
REMARK VINA RESULT:      -7.9      7.296     11.619
REMARK  Name = C:\Users\Docking\Desktop\test protocol\1iep_ligandH.pdb
REMARK  8 active torsions:
REMARK  status: ('A' for Active; 'I' for Inactive)
REMARK    1  A    between atoms: _5  and  _11
REMARK    2  A    between atoms: _19  and  _21
REMARK    3  A    between atoms: _22  and  _66
REMARK    4  A    between atoms: _27  and  _30
REMARK    5  A    between atoms: _32  and  _33
REMARK    6  A    between atoms: _38  and  _43
REMARK    7  A    between atoms: _43  and  _46
REMARK    8  A    between atoms: _53  and  _55
REMARK                            x       y       z     vdW  Elec       q    Type
REMARK                         _______ _______ _______ _____ _____    ______ ____
ROOT
ATOM     10  C   UNL     1      45.246  25.143  44.865  0.00  0.00    +0.038 A 
ATOM     11  C   UNL     1      45.007  24.845  46.230  0.00  0.00    +0.047 A 
ATOM     12  C   UNL     1      43.814  25.329  46.909  0.00  0.00    +0.035 A 
ATOM     32  C   UNL     1      42.885  26.112  46.164  0.00  0.00    +0.024 A 
ATOM     33  C   UNL     1      43.113  26.426  44.775  0.00  0.00    +0.007 A 
ATOM     34  C   UNL     1      44.289  25.953  44.102  0.00  0.00    -0.029 A 
ATOM     35  C   UNL     1      44.485  26.325  42.614  0.00  0.00    +0.045 C 
ENDROOT
BRANCH  10   9
ATOM      4  C   UNL     1      49.835  25.591  43.531  0.00  0.00    +0.077 A 
ATOM      5  C   UNL     1      49.918  26.926  44.052  0.00  0.00    +0.048 A 
ATOM      6  C   UNL     1      48.755  27.462  44.648  0.00  0.00    +0.116 A 
ATOM      7  N   UNL     1      47.601  26.712  44.715  0.00  0.00    -0.223 NA
ATOM      8  C   UNL     1      47.555  25.429  44.201  0.00  0.00    +0.220 A 
ATOM      9  N   UNL     1      46.408  24.653  44.264  0.00  0.00    -0.283 N 
ATOM     36  H   UNL     1      46.412  23.714  43.867  0.00  0.00    +0.155 HD
ATOM     37  N   UNL     1      48.652  24.894  43.625  0.00  0.00    -0.214 NA
BRANCH   4   3
ATOM      1  C   UNL     1      53.405  24.699  42.204  0.00  0.00    +0.020 A 
ATOM      2  C   UNL     1      52.335  25.421  42.852  0.00  0.00    +0.013 A 
ATOM      3  C   UNL     1      50.980  24.885  42.874  0.00  0.00    +0.019 A 
ATOM     38  C   UNL     1      50.740  23.604  42.226  0.00  0.00    +0.120 A 
ATOM     39  N   UNL     1      51.790  22.931  41.609  0.00  0.00    -0.263 NA
ATOM     40  C   UNL     1      53.097  23.439  41.580  0.00  0.00    +0.111 A 
ENDBRANCH   4   3
ENDBRANCH  10   9
BRANCH  12  13
ATOM     13  N   UNL     1      43.522  25.065  48.296  0.00  0.00    -0.281 N 
ATOM     14  C   UNL     1      43.608  25.940  49.366  0.00  0.00    +0.248 C 
ATOM     30  O   UNL     1      44.157  27.031  49.324  0.00  0.00    -0.270 OA
ATOM     31  H   UNL     1      43.214  24.117  48.515  0.00  0.00    +0.155 HD
BRANCH  14  15
ATOM     15  C   UNL     1      43.009  25.540  50.676  0.00  0.00    +0.037 A 
ATOM     16  C   UNL     1      41.587  25.210  50.792  0.00  0.00    +0.013 A 
ATOM     17  C   UNL     1      41.031  24.844  52.071  0.00  0.00    +0.005 A 
ATOM     18  C   UNL     1      41.901  24.805  53.244  0.00  0.00    -0.033 A 
ATOM     28  C   UNL     1      43.310  25.131  53.099  0.00  0.00    +0.005 A 
ATOM     29  C   UNL     1      43.857  25.492  51.848  0.00  0.00    +0.013 A 
BRANCH  18  19
ATOM     19  C   UNL     1      41.390  24.445  54.652  0.00  0.00    +0.119 C 
BRANCH  19  20
ATOM     20  N   UNL     1      40.355  25.339  55.253  0.00  0.00    -0.302 NA
ATOM     21  C   UNL     1      40.692  25.717  56.698  0.00  0.00    +0.066 C 
ATOM     22  C   UNL     1      39.611  26.670  57.304  0.00  0.00    -0.064 C 
ATOM     23  N   UNL     1      38.240  25.997  57.225  0.00  0.00    +0.379 N 
ATOM     24  C   UNL     1      37.230  26.867  57.846  0.00  0.00    -0.096 C 
ATOM     25  H   UNL     1      38.290  25.057  57.822  0.00  0.00    -0.082 HD
ATOM     26  C   UNL     1      37.898  25.616  55.792  0.00  0.00    -0.064 C 
ATOM     27  C   UNL     1      38.994  24.692  55.190  0.00  0.00    +0.066 C 
ENDBRANCH  19  20
ENDBRANCH  18  19
ENDBRANCH  14  15
ENDBRANCH  12  13
TORSDOF 6
ENDMDL
MODEL 4
REMARK VINA RESULT:      -7.8     15.332     17.709
REMARK  Name = C:\Users\Docking\Desktop\test protocol\1iep_ligandH.pdb
REMARK  8 active torsions:
REMARK  status: ('A' for Active; 'I' for Inactive)
REMARK    1  A    between atoms: _5  and  _11
REMARK    2  A    between atoms: _19  and  _21
REMARK    3  A    between atoms: _22  and  _66
REMARK    4  A    between atoms: _27  and  _30
REMARK    5  A    between atoms: _32  and  _33
REMARK    6  A    between atoms: _38  and  _43
REMARK    7  A    between atoms: _43  and  _46
REMARK    8  A    between atoms: _53  and  _55
REMARK                            x       y       z     vdW  Elec       q    Type
REMARK                         _______ _______ _______ _____ _____    ______ ____
ROOT
ATOM     10  C   UNL     1      40.203  26.043  52.879  0.00  0.00    +0.038 A 
ATOM     11  C   UNL     1      39.526  26.520  51.727  0.00  0.00    +0.047 A 
ATOM     12  C   UNL     1      38.827  27.796  51.739  0.00  0.00    +0.035 A 
ATOM     32  C   UNL     1      38.840  28.562  52.941  0.00  0.00    +0.024 A 
ATOM     33  C   UNL     1      39.522  28.092  54.121  0.00  0.00    +0.007 A 
ATOM     34  C   UNL     1      40.211  26.833  54.116  0.00  0.00    -0.029 A 
ATOM     35  C   UNL     1      40.920  26.377  55.412  0.00  0.00    +0.045 C 
ENDROOT
BRANCH  10   9
ATOM      4  C   UNL     1      44.125  23.368  52.176  0.00  0.00    +0.077 A 
ATOM      5  C   UNL     1      44.932  24.520  51.892  0.00  0.00    +0.048 A 
ATOM      6  C   UNL     1      44.298  25.782  51.930  0.00  0.00    +0.116 A 
ATOM      7  N   UNL     1      42.956  25.873  52.232  0.00  0.00    -0.223 NA
ATOM      8  C   UNL     1      42.206  24.742  52.498  0.00  0.00    +0.220 A 
ATOM      9  N   UNL     1      40.857  24.812  52.811  0.00  0.00    -0.283 N 
ATOM     36  H   UNL     1      40.338  23.954  52.994  0.00  0.00    +0.155 HD
ATOM     37  N   UNL     1      42.788  23.525  52.467  0.00  0.00    -0.214 NA
BRANCH   4   3
ATOM      1  C   UNL     1      44.861  19.656  51.187  0.00  0.00    +0.020 A 
ATOM      2  C   UNL     1      44.326  20.997  51.138  0.00  0.00    +0.013 A 
ATOM      3  C   UNL     1      44.651  21.966  52.177  0.00  0.00    +0.019 A 
ATOM     38  C   UNL     1      45.528  21.544  53.259  0.00  0.00    +0.120 A 
ATOM     39  N   UNL     1      46.027  20.245  53.280  0.00  0.00    -0.263 NA
ATOM     40  C   UNL     1      45.720  19.303  52.287  0.00  0.00    +0.111 A 
ENDBRANCH   4   3
ENDBRANCH  10   9
BRANCH  12  13
ATOM     13  N   UNL     1      38.116  28.327  50.603  0.00  0.00    -0.281 N 
ATOM     14  C   UNL     1      38.646  28.869  49.443  0.00  0.00    +0.248 C 
ATOM     30  O   UNL     1      39.820  29.176  49.298  0.00  0.00    -0.270 OA
ATOM     31  H   UNL     1      37.097  28.300  50.660  0.00  0.00    +0.155 HD
BRANCH  14  15
ATOM     15  C   UNL     1      37.738  29.120  48.283  0.00  0.00    +0.037 A 
ATOM     16  C   UNL     1      37.667  28.184  47.158  0.00  0.00    +0.013 A 
ATOM     17  C   UNL     1      36.796  28.458  46.042  0.00  0.00    +0.005 A 
ATOM     18  C   UNL     1      35.987  29.675  46.048  0.00  0.00    -0.033 A 
ATOM     28  C   UNL     1      36.073  30.583  47.179  0.00  0.00    +0.005 A 
ATOM     29  C   UNL     1      36.927  30.318  48.274  0.00  0.00    +0.013 A 
BRANCH  18  19
ATOM     19  C   UNL     1      35.046  30.058  44.891  0.00  0.00    +0.119 C 
BRANCH  19  20
ATOM     20  N   UNL     1      33.784  29.273  44.747  0.00  0.00    -0.302 NA
ATOM     21  C   UNL     1      33.584  28.763  43.317  0.00  0.00    +0.066 C 
ATOM     22  C   UNL     1      32.271  27.925  43.190  0.00  0.00    -0.064 C 
ATOM     23  N   UNL     1      31.080  28.777  43.632  0.00  0.00    +0.379 N 
ATOM     24  C   UNL     1      29.837  28.012  43.458  0.00  0.00    -0.096 C 
ATOM     25  H   UNL     1      31.029  29.663  42.956  0.00  0.00    -0.082 HD
ATOM     26  C   UNL     1      31.272  29.291  45.052  0.00  0.00    -0.064 C 
ATOM     27  C   UNL     1      32.594  30.098  45.174  0.00  0.00    +0.066 C 
ENDBRANCH  19  20
ENDBRANCH  18  19
ENDBRANCH  14  15
ENDBRANCH  12  13
TORSDOF 6
ENDMDL
MODEL 5
REMARK VINA RESULT:      -7.8      5.625      9.860
REMARK  Name = C:\Users\Docking\Desktop\test protocol\1iep_ligandH.pdb
REMARK  8 active torsions:
REMARK  status: ('A' for Active; 'I' for Inactive)
REMARK    1  A    between atoms: _5  and  _11
REMARK    2  A    between atoms: _19  and  _21
REMARK    3  A    between atoms: _22  and  _66
REMARK    4  A    between atoms: _27  and  _30
REMARK    5  A    between atoms: _32  and  _33
REMARK    6  A    between atoms: _38  and  _43
REMARK    7  A    between atoms: _43  and  _46
REMARK    8  A    between atoms: _53  and  _55
REMARK                            x       y       z     vdW  Elec       q    Type
REMARK                         _______ _______ _______ _____ _____    ______ ____
ROOT
ATOM     10  C   UNL     1      47.038  26.346  43.361  0.00  0.00    +0.038 A 
ATOM     11  C   UNL     1      46.483  25.917  44.593  0.00  0.00    +0.047 A 
ATOM     12  C   UNL     1      45.466  26.702  45.275  0.00  0.00    +0.035 A 
ATOM     32  C   UNL     1      45.035  27.919  44.671  0.00  0.00    +0.024 A 
ATOM     33  C   UNL     1      45.590  28.371  43.419  0.00  0.00    +0.007 A 
ATOM     34  C   UNL     1      46.595  27.602  42.743  0.00  0.00    -0.029 A 
ATOM     35  C   UNL     1      47.159  28.138  41.407  0.00  0.00    +0.045 C 
ENDROOT
BRANCH  10   9
ATOM      4  C   UNL     1      51.597  24.996  42.703  0.00  0.00    +0.077 A 
ATOM      5  C   UNL     1      52.082  25.972  43.635  0.00  0.00    +0.048 A 
ATOM      6  C   UNL     1      51.127  26.807  44.256  0.00  0.00    +0.116 A 
ATOM      7  N   UNL     1      49.788  26.667  43.961  0.00  0.00    -0.223 NA
ATOM      8  C   UNL     1      49.354  25.716  43.056  0.00  0.00    +0.220 A 
ATOM      9  N   UNL     1      48.012  25.552  42.750  0.00  0.00    -0.283 N 
ATOM     36  H   UNL     1      47.732  24.844  42.072  0.00  0.00    +0.155 HD
ATOM     37  N   UNL     1      50.246  24.907  42.448  0.00  0.00    -0.214 NA
BRANCH   4   3
ATOM      1  C   UNL     1      52.935  21.829  40.837  0.00  0.00    +0.020 A 
ATOM      2  C   UNL     1      52.040  22.715  41.545  0.00  0.00    +0.013 A 
ATOM      3  C   UNL     1      52.482  24.038  41.967  0.00  0.00    +0.019 A 
ATOM     38  C   UNL     1      53.846  24.437  41.655  0.00  0.00    +0.120 A 
ATOM     39  N   UNL     1      54.686  23.562  40.973  0.00  0.00    -0.263 NA
ATOM     40  C   UNL     1      54.272  22.286  40.563  0.00  0.00    +0.111 A 
ENDBRANCH   4   3
ENDBRANCH  10   9
BRANCH  12  13
ATOM     13  N   UNL     1      44.871  26.321  46.532  0.00  0.00    -0.281 N 
ATOM     14  C   UNL     1      44.147  25.176  46.819  0.00  0.00    +0.248 C 
ATOM     30  O   UNL     1      43.716  24.401  45.977  0.00  0.00    -0.270 OA
ATOM     31  H   UNL     1      45.000  26.975  47.304  0.00  0.00    +0.155 HD
BRANCH  14  15
ATOM     15  C   UNL     1      43.846  24.851  48.246  0.00  0.00    +0.037 A 
ATOM     16  C   UNL     1      42.876  25.634  49.016  0.00  0.00    +0.013 A 
ATOM     17  C   UNL     1      42.617  25.310  50.396  0.00  0.00    +0.005 A 
ATOM     18  C   UNL     1      43.328  24.195  51.016  0.00  0.00    -0.033 A 
ATOM     28  C   UNL     1      44.281  23.431  50.228  0.00  0.00    +0.005 A 
ATOM     29  C   UNL     1      44.538  23.746  48.875  0.00  0.00    +0.013 A 
BRANCH  18  19
ATOM     19  C   UNL     1      43.129  23.791  52.489  0.00  0.00    +0.119 C 
BRANCH  19  20
ATOM     20  N   UNL     1      44.200  24.180  53.454  0.00  0.00    -0.302 NA
ATOM     21  C   UNL     1      44.833  25.528  53.099  0.00  0.00    +0.066 C 
ATOM     22  C   UNL     1      45.936  25.930  54.132  0.00  0.00    -0.064 C 
ATOM     23  N   UNL     1      46.999  24.831  54.192  0.00  0.00    +0.379 N 
ATOM     24  C   UNL     1      48.066  25.232  55.120  0.00  0.00    -0.096 C 
ATOM     25  H   UNL     1      47.449  24.741  53.176  0.00  0.00    -0.082 HD
ATOM     26  C   UNL     1      46.378  23.487  54.543  0.00  0.00    -0.064 C 
ATOM     27  C   UNL     1      45.263  23.111  53.527  0.00  0.00    +0.066 C 
ENDBRANCH  19  20
ENDBRANCH  18  19
ENDBRANCH  14  15
ENDBRANCH  12  13
TORSDOF 6
ENDMDL
