MODEL 1
REMARK VINA RESULT:      -8.6      0.000      0.000
REMARK  Name = C:\Users\Docking\Desktop\test protocol\1iep_ligandH.pdb
REMARK  8 active torsions:
REMARK  status: ('A' for Active; 'I' for Inactive)
REMARK    1  A    between atoms: _5  and  _11
REMARK    2  A    between atoms: _19  and  _21
REMARK    3  A    between atoms: _22  and  _66
REMARK    4  A    between atoms: _27  and  _30
REMARK    5  A    between atoms: _32  and  _33
REMARK    6  A    between atoms: _38  and  _43
REMARK    7  A    between atoms: _43  and  _46
REMARK    8  A    between atoms: _53  and  _55
REMARK                            x       y       z     vdW  Elec       q    Type
REMARK                         _______ _______ _______ _____ _____    ______ ____
ROOT
ATOM     10  C   UNL     1      43.114  23.516  49.968  0.00  0.00    +0.038 A 
ATOM     11  C   UNL     1      43.019  24.414  48.875  0.00  0.00    +0.047 A 
ATOM     12  C   UNL     1      44.084  24.516  47.890  0.00  0.00    +0.035 A 
ATOM     32  C   UNL     1      45.231  23.684  48.047  0.00  0.00    +0.024 A 
ATOM     33  C   UNL     1      45.345  22.766  49.153  0.00  0.00    +0.007 A 
ATOM     34  C   UNL     1      44.298  22.664  50.130  0.00  0.00    -0.029 A 
ATOM     35  C   UNL     1      44.476  21.667  51.298  0.00  0.00    +0.045 C 
ENDROOT
BRANCH  10   9
ATOM      4  C   UNL     1      40.853  25.046  53.916  0.00  0.00    +0.077 A 
ATOM      5  C   UNL     1      41.868  26.022  54.191  0.00  0.00    +0.048 A 
ATOM      6  C   UNL     1      42.959  26.093  53.296  0.00  0.00    +0.116 A 
ATOM      7  N   UNL     1      43.020  25.246  52.210  0.00  0.00    -0.223 NA
ATOM      8  C   UNL     1      42.025  24.315  51.975  0.00  0.00    +0.220 A 
ATOM      9  N   UNL     1      42.061  23.460  50.885  0.00  0.00    -0.283 N 
ATOM     36  H   UNL     1      41.312  22.782  50.751  0.00  0.00    +0.155 HD
ATOM     37  N   UNL     1      40.973  24.227  52.816  0.00  0.00    -0.214 NA
BRANCH   4   3
ATOM      1  C   UNL     1      37.205  24.265  55.092  0.00  0.00    +0.020 A 
ATOM      2  C   UNL     1      38.348  24.439  54.226  0.00  0.00    +0.013 A 
ATOM      3  C   UNL     1      39.637  24.851  54.768  0.00  0.00    +0.019 A 
ATOM     38  C   UNL     1      39.736  25.081  56.201  0.00  0.00    +0.120 A 
ATOM     39  N   UNL     1      38.617  24.907  57.010  0.00  0.00    -0.263 NA
ATOM     40  C   UNL     1      37.371  24.511  56.500  0.00  0.00    +0.111 A 
ENDBRANCH   4   3
ENDBRANCH  10   9
BRANCH  12  13
ATOM     13  N   UNL     1      44.047  25.415  46.764  0.00  0.00    -0.281 N 
ATOM     14  C   UNL     1      43.781  25.111  45.439  0.00  0.00    +0.248 C 
ATOM     30  O   UNL     1      43.744  23.977  44.984  0.00  0.00    -0.270 OA
ATOM     31  H   UNL     1      44.241  26.396  46.968  0.00  0.00    +0.155 HD
BRANCH  14  15
ATOM     15  C   UNL     1      43.535  26.227  44.476  0.00  0.00    +0.037 A 
ATOM     16  C   UNL     1      43.669  27.628  44.887  0.00  0.00    +0.013 A 
ATOM     17  C   UNL     1      43.409  28.686  43.943  0.00  0.00    +0.005 A 
ATOM     18  C   UNL     1      43.013  28.347  42.578  0.00  0.00    -0.033 A 
ATOM     28  C   UNL     1      42.893  26.950  42.196  0.00  0.00    +0.005 A 
ATOM     29  C   UNL     1      43.146  25.910  43.119  0.00  0.00    +0.013 A 
BRANCH  18  19
ATOM     19  C   UNL     1      42.696  29.411  41.511  0.00  0.00    +0.119 C 
BRANCH  19  20
ATOM     20  N   UNL     1      41.402  30.146  41.642  0.00  0.00    -0.302 NA
ATOM     21  C   UNL     1      40.340  29.315  42.366  0.00  0.00    +0.066 C 
ATOM     22  C   UNL     1      39.000  30.107  42.514  0.00  0.00    -0.064 C 
ATOM     23  N   UNL     1      38.506  30.531  41.130  0.00  0.00    +0.379 N 
ATOM     24  C   UNL     1      37.217  31.226  41.261  0.00  0.00    -0.096 C 
ATOM     25  H   UNL     1      38.332  29.604  40.535  0.00  0.00    -0.082 HD
ATOM     26  C   UNL     1      39.557  31.356  40.402  0.00  0.00    -0.064 C 
ATOM     27  C   UNL     1      40.893  30.570  40.286  0.00  0.00    +0.066 C 
ENDBRANCH  19  20
ENDBRANCH  18  19
ENDBRANCH  14  15
ENDBRANCH  12  13
TORSDOF 6
ENDMDL
MODEL 2
REMARK VINA RESULT:      -8.5      6.522     12.151
REMARK  Name = C:\Users\Docking\Desktop\test protocol\1iep_ligandH.pdb
REMARK  8 active torsions:
REMARK  status: ('A' for Active; 'I' for Inactive)
REMARK    1  A    between atoms: _5  and  _11
REMARK    2  A    between atoms: _19  and  _21
REMARK    3  A    between atoms: _22  and  _66
REMARK    4  A    between atoms: _27  and  _30
REMARK    5  A    between atoms: _32  and  _33
REMARK    6  A    between atoms: _38  and  _43
REMARK    7  A    between atoms: _43  and  _46
REMARK    8  A    between atoms: _53  and  _55
REMARK                            x       y       z     vdW  Elec       q    Type
REMARK                         _______ _______ _______ _____ _____    ______ ____
ROOT
ATOM     10  C   UNL     1      44.962  23.380  51.343  0.00  0.00    +0.038 A 
ATOM     11  C   UNL     1      44.037  23.499  52.411  0.00  0.00    +0.047 A 
ATOM     12  C   UNL     1      42.623  23.735  52.159  0.00  0.00    +0.035 A 
ATOM     32  C   UNL     1      42.187  23.841  50.807  0.00  0.00    +0.024 A 
ATOM     33  C   UNL     1      43.114  23.724  49.709  0.00  0.00    +0.007 A 
ATOM     34  C   UNL     1      44.510  23.494  49.951  0.00  0.00    -0.029 A 
ATOM     35  C   UNL     1      45.460  23.383  48.736  0.00  0.00    +0.045 C 
ENDROOT
BRANCH  10   9
ATOM      4  C   UNL     1      49.391  24.929  52.359  0.00  0.00    +0.077 A 
ATOM      5  C   UNL     1      48.996  26.304  52.258  0.00  0.00    +0.048 A 
ATOM      6  C   UNL     1      47.647  26.571  51.936  0.00  0.00    +0.116 A 
ATOM      7  N   UNL     1      46.765  25.531  51.732  0.00  0.00    -0.223 NA
ATOM      8  C   UNL     1      47.179  24.216  51.835  0.00  0.00    +0.220 A 
ATOM      9  N   UNL     1      46.308  23.154  51.642  0.00  0.00    -0.283 N 
ATOM     36  H   UNL     1      46.653  22.198  51.720  0.00  0.00    +0.155 HD
ATOM     37  N   UNL     1      48.463  23.935  52.140  0.00  0.00    -0.214 NA
BRANCH   4   3
ATOM      1  C   UNL     1      52.428  23.069  53.976  0.00  0.00    +0.020 A 
ATOM      2  C   UNL     1      51.067  23.460  53.689  0.00  0.00    +0.013 A 
ATOM      3  C   UNL     1      50.781  24.486  52.694  0.00  0.00    +0.019 A 
ATOM     38  C   UNL     1      51.903  25.101  52.001  0.00  0.00    +0.120 A 
ATOM     39  N   UNL     1      53.203  24.705  52.299  0.00  0.00    -0.263 NA
ATOM     40  C   UNL     1      53.491  23.720  53.256  0.00  0.00    +0.111 A 
ENDBRANCH   4   3
ENDBRANCH  10   9
BRANCH  12  13
ATOM     13  N   UNL     1      41.639  23.873  53.203  0.00  0.00    -0.281 N 
ATOM     14  C   UNL     1      40.901  24.997  53.535  0.00  0.00    +0.248 C 
ATOM     30  O   UNL     1      41.132  26.123  53.120  0.00  0.00    -0.270 OA
ATOM     31  H   UNL     1      41.464  23.040  53.766  0.00  0.00    +0.155 HD
BRANCH  14  15
ATOM     15  C   UNL     1      39.749  24.853  54.477  0.00  0.00    +0.037 A 
ATOM     16  C   UNL     1      39.931  24.971  55.925  0.00  0.00    +0.013 A 
ATOM     17  C   UNL     1      38.806  24.810  56.812  0.00  0.00    +0.005 A 
ATOM     18  C   UNL     1      37.487  24.531  56.251  0.00  0.00    -0.033 A 
ATOM     28  C   UNL     1      37.332  24.425  54.809  0.00  0.00    +0.005 A 
ATOM     29  C   UNL     1      38.433  24.580  53.937  0.00  0.00    +0.013 A 
BRANCH  18  19
ATOM     19  C   UNL     1      36.234  24.325  57.123  0.00  0.00    +0.119 C 
BRANCH  19  20
ATOM     20  N   UNL     1      35.463  25.543  57.513  0.00  0.00    -0.302 NA
ATOM     21  C   UNL     1      36.378  26.668  58.005  0.00  0.00    +0.066 C 
ATOM     22  C   UNL     1      35.558  27.943  58.387  0.00  0.00    -0.064 C 
ATOM     23  N   UNL     1      34.525  27.579  59.455  0.00  0.00    +0.379 N 
ATOM     24  C   UNL     1      33.791  28.788  59.859  0.00  0.00    -0.096 C 
ATOM     25  H   UNL     1      35.078  27.205  60.347  0.00  0.00    -0.082 HD
ATOM     26  C   UNL     1      33.612  26.459  58.975  0.00  0.00    -0.064 C 
ATOM     27  C   UNL     1      34.440  25.208  58.569  0.00  0.00    +0.066 C 
ENDBRANCH  19  20
ENDBRANCH  18  19
ENDBRANCH  14  15
ENDBRANCH  12  13
TORSDOF 6
ENDMDL
MODEL 3
REMARK VINA RESULT:      -8.2      6.166     12.126
REMARK  Name = C:\Users\Docking\Desktop\test protocol\1iep_ligandH.pdb
REMARK  8 active torsions:
REMARK  status: ('A' for Active; 'I' for Inactive)
REMARK    1  A    between atoms: _5  and  _11
REMARK    2  A    between atoms: _19  and  _21
REMARK    3  A    between atoms: _22  and  _66
REMARK    4  A    between atoms: _27  and  _30
REMARK    5  A    between atoms: _32  and  _33
REMARK    6  A    between atoms: _38  and  _43
REMARK    7  A    between atoms: _43  and  _46
REMARK    8  A    between atoms: _53  and  _55
REMARK                            x       y       z     vdW  Elec       q    Type
REMARK                         _______ _______ _______ _____ _____    ______ ____
ROOT
ATOM     10  C   UNL     1      44.742  24.811  50.609  0.00  0.00    +0.038 A 
ATOM     11  C   UNL     1      43.869  24.930  51.720  0.00  0.00    +0.047 A 
ATOM     12  C   UNL     1      42.586  24.245  51.747  0.00  0.00    +0.035 A 
ATOM     32  C   UNL     1      42.224  23.445  50.624  0.00  0.00    +0.024 A 
ATOM     33  C   UNL     1      43.099  23.313  49.485  0.00  0.00    +0.007 A 
ATOM     34  C   UNL     1      44.365  23.989  49.453  0.00  0.00    -0.029 A 
ATOM     35  C   UNL     1      45.259  23.817  48.203  0.00  0.00    +0.045 C 
ENDROOT
BRANCH  10   9
ATOM      4  C   UNL     1      49.421  25.066  51.646  0.00  0.00    +0.077 A 
ATOM      5  C   UNL     1      49.430  23.744  52.203  0.00  0.00    +0.048 A 
ATOM      6  C   UNL     1      48.208  23.035  52.210  0.00  0.00    +0.116 A 
ATOM      7  N   UNL     1      47.069  23.614  51.696  0.00  0.00    -0.223 NA
ATOM      8  C   UNL     1      47.094  24.891  51.167  0.00  0.00    +0.220 A 
ATOM      9  N   UNL     1      45.962  25.490  50.637  0.00  0.00    -0.283 N 
ATOM     36  H   UNL     1      46.020  26.437  50.263  0.00  0.00    +0.155 HD
ATOM     37  N   UNL     1      48.248  25.590  51.150  0.00  0.00    -0.214 NA
BRANCH   4   3
ATOM      1  C   UNL     1      51.986  27.795  50.518  0.00  0.00    +0.020 A 
ATOM      2  C   UNL     1      50.795  26.978  50.553  0.00  0.00    +0.013 A 
ATOM      3  C   UNL     1      50.634  25.940  51.563  0.00  0.00    +0.019 A 
ATOM     38  C   UNL     1      51.704  25.754  52.531  0.00  0.00    +0.120 A 
ATOM     39  N   UNL     1      52.840  26.555  52.472  0.00  0.00    -0.263 NA
ATOM     40  C   UNL     1      53.008  27.555  51.503  0.00  0.00    +0.111 A 
ENDBRANCH   4   3
ENDBRANCH  10   9
BRANCH  12  13
ATOM     13  N   UNL     1      41.655  24.335  52.844  0.00  0.00    -0.281 N 
ATOM     14  C   UNL     1      40.757  25.354  53.117  0.00  0.00    +0.248 C 
ATOM     30  O   UNL     1      40.767  26.449  52.575  0.00  0.00    -0.270 OA
ATOM     31  H   UNL     1      41.659  23.553  53.499  0.00  0.00    +0.155 HD
BRANCH  14  15
ATOM     15  C   UNL     1      39.703  25.129  54.154  0.00  0.00    +0.037 A 
ATOM     16  C   UNL     1      40.053  24.933  55.563  0.00  0.00    +0.013 A 
ATOM     17  C   UNL     1      39.019  24.701  56.539  0.00  0.00    +0.005 A 
ATOM     18  C   UNL     1      37.623  24.665  56.109  0.00  0.00    -0.033 A 
ATOM     28  C   UNL     1      37.304  24.867  54.706  0.00  0.00    +0.005 A 
ATOM     29  C   UNL     1      38.315  25.094  53.746  0.00  0.00    +0.013 A 
BRANCH  18  19
ATOM     19  C   UNL     1      36.456  24.402  57.079  0.00  0.00    +0.119 C 
BRANCH  19  20
ATOM     20  N   UNL     1      35.612  25.572  57.466  0.00  0.00    -0.302 NA
ATOM     21  C   UNL     1      36.455  26.748  57.967  0.00  0.00    +0.066 C 
ATOM     22  C   UNL     1      35.558  27.971  58.346  0.00  0.00    -0.064 C 
ATOM     23  N   UNL     1      34.539  27.544  59.405  0.00  0.00    +0.379 N 
ATOM     24  C   UNL     1      33.732  28.706  59.806  0.00  0.00    -0.096 C 
ATOM     25  H   UNL     1      35.107  27.201  60.301  0.00  0.00    -0.082 HD
ATOM     26  C   UNL     1      33.699  26.373  58.916  0.00  0.00    -0.064 C 
ATOM     27  C   UNL     1      34.602  25.174  58.514  0.00  0.00    +0.066 C 
ENDBRANCH  19  20
ENDBRANCH  18  19
ENDBRANCH  14  15
ENDBRANCH  12  13
TORSDOF 6
ENDMDL
MODEL 4
REMARK VINA RESULT:      -8.2      2.778     12.013
REMARK  Name = C:\Users\Docking\Desktop\test protocol\1iep_ligandH.pdb
REMARK  8 active torsions:
REMARK  status: ('A' for Active; 'I' for Inactive)
REMARK    1  A    between atoms: _5  and  _11
REMARK    2  A    between atoms: _19  and  _21
REMARK    3  A    between atoms: _22  and  _66
REMARK    4  A    between atoms: _27  and  _30
REMARK    5  A    between atoms: _32  and  _33
REMARK    6  A    between atoms: _38  and  _43
REMARK    7  A    between atoms: _43  and  _46
REMARK    8  A    between atoms: _53  and  _55
REMARK                            x       y       z     vdW  Elec       q    Type
REMARK                         _______ _______ _______ _____ _____    ______ ____
ROOT
ATOM     10  C   UNL     1      43.281  23.742  49.832  0.00  0.00    +0.038 A 
ATOM     11  C   UNL     1      42.300  24.030  50.815  0.00  0.00    +0.047 A 
ATOM     12  C   UNL     1      42.513  23.689  52.213  0.00  0.00    +0.035 A 
ATOM     32  C   UNL     1      43.739  23.058  52.575  0.00  0.00    +0.024 A 
ATOM     33  C   UNL     1      44.747  22.758  51.589  0.00  0.00    +0.007 A 
ATOM     34  C   UNL     1      44.541  23.090  50.208  0.00  0.00    -0.029 A 
ATOM     35  C   UNL     1      45.653  22.739  49.192  0.00  0.00    +0.045 C 
ENDROOT
BRANCH  10   9
ATOM      4  C   UNL     1      43.794  26.644  46.043  0.00  0.00    +0.077 A 
ATOM      5  C   UNL     1      44.623  27.555  46.778  0.00  0.00    +0.048 A 
ATOM      6  C   UNL     1      44.887  27.245  48.131  0.00  0.00    +0.116 A 
ATOM      7  N   UNL     1      44.357  26.105  48.696  0.00  0.00    -0.223 NA
ATOM      8  C   UNL     1      43.561  25.248  47.959  0.00  0.00    +0.220 A 
ATOM      9  N   UNL     1      43.024  24.091  48.504  0.00  0.00    -0.283 N 
ATOM     36  H   UNL     1      42.435  23.489  47.929  0.00  0.00    +0.155 HD
ATOM     37  N   UNL     1      43.292  25.523  46.665  0.00  0.00    -0.214 NA
BRANCH   4   3
ATOM      1  C   UNL     1      43.786  26.451  42.136  0.00  0.00    +0.020 A 
ATOM      2  C   UNL     1      44.183  26.238  43.508  0.00  0.00    +0.013 A 
ATOM      3  C   UNL     1      43.427  26.833  44.603  0.00  0.00    +0.019 A 
ATOM     38  C   UNL     1      42.265  27.643  44.273  0.00  0.00    +0.120 A 
ATOM     39  N   UNL     1      41.907  27.832  42.941  0.00  0.00    -0.263 NA
ATOM     40  C   UNL     1      42.628  27.266  41.879  0.00  0.00    +0.111 A 
ENDBRANCH   4   3
ENDBRANCH  10   9
BRANCH  12  13
ATOM     13  N   UNL     1      41.550  23.949  53.254  0.00  0.00    -0.281 N 
ATOM     14  C   UNL     1      40.640  24.991  53.332  0.00  0.00    +0.248 C 
ATOM     30  O   UNL     1      40.664  25.983  52.619  0.00  0.00    -0.270 OA
ATOM     31  H   UNL     1      41.536  23.283  54.027  0.00  0.00    +0.155 HD
BRANCH  14  15
ATOM     15  C   UNL     1      39.558  24.929  54.360  0.00  0.00    +0.037 A 
ATOM     16  C   UNL     1      39.869  24.920  55.792  0.00  0.00    +0.013 A 
ATOM     17  C   UNL     1      38.806  24.843  56.763  0.00  0.00    +0.005 A 
ATOM     18  C   UNL     1      37.421  24.775  56.304  0.00  0.00    -0.033 A 
ATOM     28  C   UNL     1      37.140  24.790  54.878  0.00  0.00    +0.005 A 
ATOM     29  C   UNL     1      38.179  24.865  53.924  0.00  0.00    +0.013 A 
BRANCH  18  19
ATOM     19  C   UNL     1      36.225  24.668  57.268  0.00  0.00    +0.119 C 
BRANCH  19  20
ATOM     20  N   UNL     1      35.517  25.935  57.622  0.00  0.00    -0.302 NA
ATOM     21  C   UNL     1      36.470  26.982  58.207  0.00  0.00    +0.066 C 
ATOM     22  C   UNL     1      35.717  28.308  58.550  0.00  0.00    -0.064 C 
ATOM     23  N   UNL     1      34.578  28.007  59.526  0.00  0.00    +0.379 N 
ATOM     24  C   UNL     1      33.905  29.261  59.896  0.00  0.00    -0.096 C 
ATOM     25  H   UNL     1      35.030  27.580  60.451  0.00  0.00    -0.082 HD
ATOM     26  C   UNL     1      33.627  26.965  58.954  0.00  0.00    -0.064 C 
ATOM     27  C   UNL     1      34.391  25.662  58.589  0.00  0.00    +0.066 C 
ENDBRANCH  19  20
ENDBRANCH  18  19
ENDBRANCH  14  15
ENDBRANCH  12  13
TORSDOF 6
ENDMDL
MODEL 5
REMARK VINA RESULT:      -8.1      4.153      6.764
REMARK  Name = C:\Users\Docking\Desktop\test protocol\1iep_ligandH.pdb
REMARK  8 active torsions:
REMARK  status: ('A' for Active; 'I' for Inactive)
REMARK    1  A    between atoms: _5  and  _11
REMARK    2  A    between atoms: _19  and  _21
REMARK    3  A    between atoms: _22  and  _66
REMARK    4  A    between atoms: _27  and  _30
REMARK    5  A    between atoms: _32  and  _33
REMARK    6  A    between atoms: _38  and  _43
REMARK    7  A    between atoms: _43  and  _46
REMARK    8  A    between atoms: _53  and  _55
REMARK                            x       y       z     vdW  Elec       q    Type
REMARK                         _______ _______ _______ _____ _____    ______ ____
ROOT
ATOM     10  C   UNL     1      43.806  26.007  47.590  0.00  0.00    +0.038 A 
ATOM     11  C   UNL     1      42.475  26.129  47.115  0.00  0.00    +0.047 A 
ATOM     12  C   UNL     1      41.980  27.386  46.576  0.00  0.00    +0.035 A 
ATOM     32  C   UNL     1      42.869  28.500  46.535  0.00  0.00    +0.024 A 
ATOM     33  C   UNL     1      44.225  28.394  47.015  0.00  0.00    +0.007 A 
ATOM     34  C   UNL     1      44.718  27.157  47.549  0.00  0.00    -0.029 A 
ATOM     35  C   UNL     1      46.178  27.104  48.055  0.00  0.00    +0.045 C 
ENDROOT
BRANCH  10   9
ATOM      4  C   UNL     1      43.849  22.618  50.988  0.00  0.00    +0.077 A 
ATOM      5  C   UNL     1      42.976  23.376  51.838  0.00  0.00    +0.048 A 
ATOM      6  C   UNL     1      42.545  24.636  51.367  0.00  0.00    +0.116 A 
ATOM      7  N   UNL     1      42.961  25.094  50.136  0.00  0.00    -0.223 NA
ATOM      8  C   UNL     1      43.804  24.339  49.341  0.00  0.00    +0.220 A 
ATOM      9  N   UNL     1      44.229  24.776  48.096  0.00  0.00    -0.283 N 
ATOM     36  H   UNL     1      44.856  24.193  47.544  0.00  0.00    +0.155 HD
ATOM     37  N   UNL     1      44.231  23.132  49.769  0.00  0.00    -0.214 NA
BRANCH   4   3
ATOM      1  C   UNL     1      44.667  18.793  50.938  0.00  0.00    +0.020 A 
ATOM      2  C   UNL     1      44.122  20.074  50.550  0.00  0.00    +0.013 A 
ATOM      3  C   UNL     1      44.387  21.267  51.344  0.00  0.00    +0.019 A 
ATOM     38  C   UNL     1      45.213  21.129  52.534  0.00  0.00    +0.120 A 
ATOM     39  N   UNL     1      45.723  19.882  52.884  0.00  0.00    -0.263 NA
ATOM     40  C   UNL     1      45.473  18.727  52.128  0.00  0.00    +0.111 A 
ENDBRANCH   4   3
ENDBRANCH  10   9
BRANCH  12  13
ATOM     13  N   UNL     1      40.637  27.572  46.087  0.00  0.00    -0.281 N 
ATOM     14  C   UNL     1      39.630  28.348  46.636  0.00  0.00    +0.248 C 
ATOM     30  O   UNL     1      39.666  28.837  47.755  0.00  0.00    -0.270 OA
ATOM     31  H   UNL     1      40.399  27.069  45.232  0.00  0.00    +0.155 HD
BRANCH  14  15
ATOM     15  C   UNL     1      38.398  28.609  45.830  0.00  0.00    +0.037 A 
ATOM     16  C   UNL     1      37.069  28.265  46.342  0.00  0.00    +0.013 A 
ATOM     17  C   UNL     1      35.898  28.511  45.537  0.00  0.00    +0.005 A 
ATOM     18  C   UNL     1      36.053  29.106  44.212  0.00  0.00    -0.033 A 
ATOM     28  C   UNL     1      37.383  29.442  43.731  0.00  0.00    +0.005 A 
ATOM     29  C   UNL     1      38.532  29.201  44.516  0.00  0.00    +0.013 A 
BRANCH  18  19
ATOM     19  C   UNL     1      34.861  29.384  43.276  0.00  0.00    +0.119 C 
BRANCH  19  20
ATOM     20  N   UNL     1      33.522  28.884  43.707  0.00  0.00    -0.302 NA
ATOM     21  C   UNL     1      32.657  28.459  42.518  0.00  0.00    +0.066 C 
ATOM     22  C   UNL     1      31.267  27.918  42.989  0.00  0.00    -0.064 C 
ATOM     23  N   UNL     1      30.559  28.991  43.817  0.00  0.00    +0.379 N 
ATOM     24  C   UNL     1      29.229  28.507  44.213  0.00  0.00    -0.096 C 
ATOM     25  H   UNL     1      30.415  29.882  43.163  0.00  0.00    -0.082 HD
ATOM     26  C   UNL     1      31.414  29.422  45.001  0.00  0.00    -0.064 C 
ATOM     27  C   UNL     1      32.803  29.930  44.524  0.00  0.00    +0.066 C 
ENDBRANCH  19  20
ENDBRANCH  18  19
ENDBRANCH  14  15
ENDBRANCH  12  13
TORSDOF 6
ENDMDL
