MODEL 1
REMARK VINA RESULT:      -9.6      0.000      0.000
REMARK  Name = C:\Users\Docking\Desktop\test protocol\1iep_ligandH.pdb
REMARK  8 active torsions:
REMARK  status: ('A' for Active; 'I' for Inactive)
REMARK    1  A    between atoms: _5  and  _11
REMARK    2  A    between atoms: _19  and  _21
REMARK    3  A    between atoms: _22  and  _66
REMARK    4  A    between atoms: _27  and  _30
REMARK    5  A    between atoms: _32  and  _33
REMARK    6  A    between atoms: _38  and  _43
REMARK    7  A    between atoms: _43  and  _46
REMARK    8  A    between atoms: _53  and  _55
REMARK                            x       y       z     vdW  Elec       q    Type
REMARK                         _______ _______ _______ _____ _____    ______ ____
ROOT
ATOM     10  C   UNL     1      19.614  18.687  24.483  0.00  0.00    +0.038 A 
ATOM     11  C   UNL     1      18.896  18.984  25.669  0.00  0.00    +0.047 A 
ATOM     12  C   UNL     1      19.165  20.195  26.429  0.00  0.00    +0.035 A 
ATOM     32  C   UNL     1      20.170  21.084  25.948  0.00  0.00    +0.024 A 
ATOM     33  C   UNL     1      20.910  20.798  24.745  0.00  0.00    +0.007 A 
ATOM     34  C   UNL     1      20.651  19.603  23.993  0.00  0.00    -0.029 A 
ATOM     35  C   UNL     1      21.479  19.344  22.713  0.00  0.00    +0.045 C 
ENDROOT
BRANCH  10   9
ATOM      4  C   UNL     1      20.291  14.022  23.579  0.00  0.00    +0.077 A 
ATOM      5  C   UNL     1      21.349  13.929  24.543  0.00  0.00    +0.048 A 
ATOM      6  C   UNL     1      21.694  15.106  25.245  0.00  0.00    +0.116 A 
ATOM      7  N   UNL     1      21.022  16.283  24.994  0.00  0.00    -0.223 NA
ATOM      8  C   UNL     1      20.008  16.339  24.056  0.00  0.00    +0.220 A 
ATOM      9  N   UNL     1      19.314  17.510  23.793  0.00  0.00    -0.283 N 
ATOM     36  H   UNL     1      18.577  17.512  23.089  0.00  0.00    +0.155 HD
ATOM     37  N   UNL     1      19.661  15.229  23.371  0.00  0.00    -0.214 NA
BRANCH   4   3
ATOM      1  C   UNL     1      17.986  11.442  21.754  0.00  0.00    +0.020 A 
ATOM      2  C   UNL     1      18.397  12.572  22.555  0.00  0.00    +0.013 A 
ATOM      3  C   UNL     1      19.810  12.865  22.760  0.00  0.00    +0.019 A 
ATOM     38  C   UNL     1      20.790  11.989  22.135  0.00  0.00    +0.120 A 
ATOM     39  N   UNL     1      20.364  10.907  21.370  0.00  0.00    -0.263 NA
ATOM     40  C   UNL     1      19.007  10.614  21.167  0.00  0.00    +0.111 A 
ENDBRANCH   4   3
ENDBRANCH  10   9
BRANCH  12  13
ATOM     13  N   UNL     1      18.474  20.545  27.645  0.00  0.00    -0.281 N 
ATOM     14  C   UNL     1      17.305  21.276  27.780  0.00  0.00    +0.248 C 
ATOM     30  O   UNL     1      16.788  21.926  26.883  0.00  0.00    -0.270 OA
ATOM     31  H   UNL     1      18.898  20.214  28.511  0.00  0.00    +0.155 HD
BRANCH  14  15
ATOM     15  C   UNL     1      16.619  21.302  29.108  0.00  0.00    +0.037 A 
ATOM     16  C   UNL     1      16.429  22.555  29.841  0.00  0.00    +0.013 A 
ATOM     17  C   UNL     1      15.778  22.549  31.128  0.00  0.00    +0.005 A 
ATOM     18  C   UNL     1      15.312  21.283  31.688  0.00  0.00    -0.033 A 
ATOM     28  C   UNL     1      15.509  20.055  30.937  0.00  0.00    +0.005 A 
ATOM     29  C   UNL     1      16.147  20.057  29.676  0.00  0.00    +0.013 A 
BRANCH  18  19
ATOM     19  C   UNL     1      14.627  21.180  33.064  0.00  0.00    +0.119 C 
BRANCH  19  20
ATOM     20  N   UNL     1      13.890  19.917  33.367  0.00  0.00    -0.302 NA
ATOM     21  C   UNL     1      12.446  19.958  32.858  0.00  0.00    +0.066 C 
ATOM     22  C   UNL     1      11.696  18.621  33.164  0.00  0.00    -0.064 C 
ATOM     23  N   UNL     1      11.732  18.352  34.669  0.00  0.00    +0.379 N 
ATOM     24  C   UNL     1      10.978  17.126  34.966  0.00  0.00    -0.096 C 
ATOM     25  H   UNL     1      11.214  19.199  35.176  0.00  0.00    -0.082 HD
ATOM     26  C   UNL     1      13.163  18.312  35.184  0.00  0.00    -0.064 C 
ATOM     27  C   UNL     1      13.909  19.635  34.849  0.00  0.00    +0.066 C 
ENDBRANCH  19  20
ENDBRANCH  18  19
ENDBRANCH  14  15
ENDBRANCH  12  13
TORSDOF 6
ENDMDL
MODEL 2
REMARK VINA RESULT:      -9.2      1.909      2.778
REMARK  Name = C:\Users\Docking\Desktop\test protocol\1iep_ligandH.pdb
REMARK  8 active torsions:
REMARK  status: ('A' for Active; 'I' for Inactive)
REMARK    1  A    between atoms: _5  and  _11
REMARK    2  A    between atoms: _19  and  _21
REMARK    3  A    between atoms: _22  and  _66
REMARK    4  A    between atoms: _27  and  _30
REMARK    5  A    between atoms: _32  and  _33
REMARK    6  A    between atoms: _38  and  _43
REMARK    7  A    between atoms: _43  and  _46
REMARK    8  A    between atoms: _53  and  _55
REMARK                            x       y       z     vdW  Elec       q    Type
REMARK                         _______ _______ _______ _____ _____    ______ ____
ROOT
ATOM     10  C   UNL     1      18.476  18.825  25.167  0.00  0.00    +0.038 A 
ATOM     11  C   UNL     1      17.872  19.008  26.437  0.00  0.00    +0.047 A 
ATOM     12  C   UNL     1      18.070  20.233  27.196  0.00  0.00    +0.035 A 
ATOM     32  C   UNL     1      18.888  21.253  26.629  0.00  0.00    +0.024 A 
ATOM     33  C   UNL     1      19.511  21.084  25.340  0.00  0.00    +0.007 A 
ATOM     34  C   UNL     1      19.321  19.877  24.588  0.00  0.00    -0.029 A 
ATOM     35  C   UNL     1      20.018  19.748  23.214  0.00  0.00    +0.045 C 
ENDROOT
BRANCH  10   9
ATOM      4  C   UNL     1      19.757  14.384  23.875  0.00  0.00    +0.077 A 
ATOM      5  C   UNL     1      20.990  14.463  24.604  0.00  0.00    +0.048 A 
ATOM      6  C   UNL     1      21.260  15.667  25.293  0.00  0.00    +0.116 A 
ATOM      7  N   UNL     1      20.357  16.707  25.248  0.00  0.00    -0.223 NA
ATOM      8  C   UNL     1      19.178  16.598  24.534  0.00  0.00    +0.220 A 
ATOM      9  N   UNL     1      18.252  17.629  24.482  0.00  0.00    -0.283 N 
ATOM     36  H   UNL     1      17.397  17.512  23.938  0.00  0.00    +0.155 HD
ATOM     37  N   UNL     1      18.897  15.460  23.867  0.00  0.00    -0.214 NA
BRANCH   4   3
ATOM      1  C   UNL     1      17.577  11.734  21.997  0.00  0.00    +0.020 A 
ATOM      2  C   UNL     1      17.938  12.914  22.747  0.00  0.00    +0.013 A 
ATOM      3  C   UNL     1      19.328  13.177  23.100  0.00  0.00    +0.019 A 
ATOM     38  C   UNL     1      20.336  12.218  22.674  0.00  0.00    +0.120 A 
ATOM     39  N   UNL     1      19.958  11.089  21.953  0.00  0.00    -0.263 NA
ATOM     40  C   UNL     1      18.624  10.825  21.610  0.00  0.00    +0.111 A 
ENDBRANCH   4   3
ENDBRANCH  10   9
BRANCH  12  13
ATOM     13  N   UNL     1      17.489  20.471  28.494  0.00  0.00    -0.281 N 
ATOM     14  C   UNL     1      16.213  20.926  28.785  0.00  0.00    +0.248 C 
ATOM     30  O   UNL     1      15.445  21.403  27.963  0.00  0.00    -0.270 OA
ATOM     31  H   UNL     1      18.091  20.282  29.295  0.00  0.00    +0.155 HD
BRANCH  14  15
ATOM     15  C   UNL     1      15.726  20.854  30.196  0.00  0.00    +0.037 A 
ATOM     16  C   UNL     1      15.140  19.625  30.736  0.00  0.00    +0.013 A 
ATOM     17  C   UNL     1      14.662  19.588  32.095  0.00  0.00    +0.005 A 
ATOM     18  C   UNL     1      14.770  20.785  32.925  0.00  0.00    -0.033 A 
ATOM     28  C   UNL     1      15.360  21.989  32.366  0.00  0.00    +0.005 A 
ATOM     29  C   UNL     1      15.829  22.030  31.034  0.00  0.00    +0.013 A 
BRANCH  18  19
ATOM     19  C   UNL     1      14.267  20.842  34.380  0.00  0.00    +0.119 C 
BRANCH  19  20
ATOM     20  N   UNL     1      15.202  20.375  35.446  0.00  0.00    -0.302 NA
ATOM     21  C   UNL     1      16.235  21.444  35.813  0.00  0.00    +0.066 C 
ATOM     22  C   UNL     1      17.191  20.947  36.945  0.00  0.00    -0.064 C 
ATOM     23  N   UNL     1      17.882  19.658  36.496  0.00  0.00    +0.379 N 
ATOM     24  C   UNL     1      18.825  19.219  37.535  0.00  0.00    -0.096 C 
ATOM     25  H   UNL     1      18.473  19.893  35.580  0.00  0.00    -0.082 HD
ATOM     26  C   UNL     1      16.862  18.590  36.127  0.00  0.00    -0.064 C 
ATOM     27  C   UNL     1      15.898  19.105  35.022  0.00  0.00    +0.066 C 
ENDBRANCH  19  20
ENDBRANCH  18  19
ENDBRANCH  14  15
ENDBRANCH  12  13
TORSDOF 6
ENDMDL
MODEL 3
REMARK VINA RESULT:      -8.9      6.822     14.030
REMARK  Name = C:\Users\Docking\Desktop\test protocol\1iep_ligandH.pdb
REMARK  8 active torsions:
REMARK  status: ('A' for Active; 'I' for Inactive)
REMARK    1  A    between atoms: _5  and  _11
REMARK    2  A    between atoms: _19  and  _21
REMARK    3  A    between atoms: _22  and  _66
REMARK    4  A    between atoms: _27  and  _30
REMARK    5  A    between atoms: _32  and  _33
REMARK    6  A    between atoms: _38  and  _43
REMARK    7  A    between atoms: _43  and  _46
REMARK    8  A    between atoms: _53  and  _55
REMARK                            x       y       z     vdW  Elec       q    Type
REMARK                         _______ _______ _______ _____ _____    ______ ____
ROOT
ATOM     10  C   UNL     1      14.662  21.915  32.232  0.00  0.00    +0.038 A 
ATOM     11  C   UNL     1      15.333  22.466  31.111  0.00  0.00    +0.047 A 
ATOM     12  C   UNL     1      15.974  21.612  30.123  0.00  0.00    +0.035 A 
ATOM     32  C   UNL     1      15.910  20.200  30.308  0.00  0.00    +0.024 A 
ATOM     33  C   UNL     1      15.232  19.623  31.442  0.00  0.00    +0.007 A 
ATOM     34  C   UNL     1      14.600  20.461  32.421  0.00  0.00    -0.029 A 
ATOM     35  C   UNL     1      13.894  19.788  33.621  0.00  0.00    +0.045 C 
ENDROOT
BRANCH  10   9
ATOM      4  C   UNL     1      14.822  24.755  36.098  0.00  0.00    +0.077 A 
ATOM      5  C   UNL     1      16.209  24.466  36.326  0.00  0.00    +0.048 A 
ATOM      6  C   UNL     1      16.842  23.576  35.429  0.00  0.00    +0.116 A 
ATOM      7  N   UNL     1      16.132  23.023  34.386  0.00  0.00    -0.223 NA
ATOM      8  C   UNL     1      14.795  23.321  34.196  0.00  0.00    +0.220 A 
ATOM      9  N   UNL     1      14.063  22.782  33.149  0.00  0.00    -0.283 N 
ATOM     36  H   UNL     1      13.077  23.022  33.048  0.00  0.00    +0.155 HD
ATOM     37  N   UNL     1      14.167  24.167  35.039  0.00  0.00    -0.214 NA
BRANCH   4   3
ATOM      1  C   UNL     1      12.207  27.404  37.301  0.00  0.00    +0.020 A 
ATOM      2  C   UNL     1      12.957  26.530  36.428  0.00  0.00    +0.013 A 
ATOM      3  C   UNL     1      14.015  25.679  36.957  0.00  0.00    +0.019 A 
ATOM     38  C   UNL     1      14.291  25.735  38.385  0.00  0.00    +0.120 A 
ATOM     39  N   UNL     1      13.553  26.587  39.200  0.00  0.00    -0.263 NA
ATOM     40  C   UNL     1      12.534  27.413  38.702  0.00  0.00    +0.111 A 
ENDBRANCH   4   3
ENDBRANCH  10   9
BRANCH  12  13
ATOM     13  N   UNL     1      16.677  22.114  28.969  0.00  0.00    -0.281 N 
ATOM     14  C   UNL     1      16.262  22.104  27.647  0.00  0.00    +0.248 C 
ATOM     30  O   UNL     1      15.309  21.464  27.228  0.00  0.00    -0.270 OA
ATOM     31  H   UNL     1      17.592  22.528  29.148  0.00  0.00    +0.155 HD
BRANCH  14  15
ATOM     15  C   UNL     1      17.023  22.909  26.644  0.00  0.00    +0.037 A 
ATOM     16  C   UNL     1      18.320  23.505  26.975  0.00  0.00    +0.013 A 
ATOM     17  C   UNL     1      19.026  24.291  25.995  0.00  0.00    +0.005 A 
ATOM     18  C   UNL     1      18.436  24.484  24.672  0.00  0.00    -0.033 A 
ATOM     28  C   UNL     1      17.151  23.877  24.369  0.00  0.00    +0.005 A 
ATOM     29  C   UNL     1      16.455  23.107  25.328  0.00  0.00    +0.013 A 
BRANCH  18  19
ATOM     19  C   UNL     1      19.109  25.325  23.571  0.00  0.00    +0.119 C 
BRANCH  19  20
ATOM     20  N   UNL     1      19.170  26.803  23.781  0.00  0.00    -0.302 NA
ATOM     21  C   UNL     1      17.944  27.328  24.533  0.00  0.00    +0.066 C 
ATOM     22  C   UNL     1      18.036  28.871  24.764  0.00  0.00    -0.064 C 
ATOM     23  N   UNL     1      18.188  29.578  23.416  0.00  0.00    +0.379 N 
ATOM     24  C   UNL     1      18.216  31.033  23.625  0.00  0.00    -0.096 C 
ATOM     25  H   UNL     1      17.285  29.341  22.807  0.00  0.00    -0.082 HD
ATOM     26  C   UNL     1      19.403  29.060  22.660  0.00  0.00    -0.064 C 
ATOM     27  C   UNL     1      19.316  27.520  22.462  0.00  0.00    +0.066 C 
ENDBRANCH  19  20
ENDBRANCH  18  19
ENDBRANCH  14  15
ENDBRANCH  12  13
TORSDOF 6
ENDMDL
MODEL 4
REMARK VINA RESULT:      -8.8      2.415     12.080
REMARK  Name = C:\Users\Docking\Desktop\test protocol\1iep_ligandH.pdb
REMARK  8 active torsions:
REMARK  status: ('A' for Active; 'I' for Inactive)
REMARK    1  A    between atoms: _5  and  _11
REMARK    2  A    between atoms: _19  and  _21
REMARK    3  A    between atoms: _22  and  _66
REMARK    4  A    between atoms: _27  and  _30
REMARK    5  A    between atoms: _32  and  _33
REMARK    6  A    between atoms: _38  and  _43
REMARK    7  A    between atoms: _43  and  _46
REMARK    8  A    between atoms: _53  and  _55
REMARK                            x       y       z     vdW  Elec       q    Type
REMARK                         _______ _______ _______ _____ _____    ______ ____
ROOT
ATOM     10  C   UNL     1      16.714  19.983  26.777  0.00  0.00    +0.038 A 
ATOM     11  C   UNL     1      17.482  18.976  26.138  0.00  0.00    +0.047 A 
ATOM     12  C   UNL     1      18.366  19.295  25.028  0.00  0.00    +0.035 A 
ATOM     32  C   UNL     1      18.447  20.651  24.596  0.00  0.00    +0.024 A 
ATOM     33  C   UNL     1      17.673  21.687  25.233  0.00  0.00    +0.007 A 
ATOM     34  C   UNL     1      16.797  21.378  26.327  0.00  0.00    -0.029 A 
ATOM     35  C   UNL     1      15.987  22.529  26.969  0.00  0.00    +0.045 C 
ENDROOT
BRANCH  10   9
ATOM      4  C   UNL     1      15.545  19.988  31.432  0.00  0.00    +0.077 A 
ATOM      5  C   UNL     1      16.706  20.754  31.783  0.00  0.00    +0.048 A 
ATOM      6  C   UNL     1      17.583  21.120  30.738  0.00  0.00    +0.116 A 
ATOM      7  N   UNL     1      17.308  20.744  29.441  0.00  0.00    -0.223 NA
ATOM      8  C   UNL     1      16.181  20.004  29.136  0.00  0.00    +0.220 A 
ATOM      9  N   UNL     1      15.881  19.622  27.838  0.00  0.00    -0.283 N 
ATOM     36  H   UNL     1      15.043  19.070  27.655  0.00  0.00    +0.155 HD
ATOM     37  N   UNL     1      15.328  19.641  30.117  0.00  0.00    -0.214 NA
BRANCH   4   3
ATOM      1  C   UNL     1      13.849  18.523  34.638  0.00  0.00    +0.020 A 
ATOM      2  C   UNL     1      14.875  18.951  33.715  0.00  0.00    +0.013 A 
ATOM      3  C   UNL     1      14.522  19.528  32.424  0.00  0.00    +0.019 A 
ATOM     38  C   UNL     1      13.111  19.660  32.095  0.00  0.00    +0.120 A 
ATOM     39  N   UNL     1      12.145  19.238  33.003  0.00  0.00    -0.263 NA
ATOM     40  C   UNL     1      12.472  18.680  34.247  0.00  0.00    +0.111 A 
ENDBRANCH   4   3
ENDBRANCH  10   9
BRANCH  12  13
ATOM     13  N   UNL     1      19.163  18.313  24.335  0.00  0.00    -0.281 N 
ATOM     14  C   UNL     1      19.844  17.234  24.875  0.00  0.00    +0.248 C 
ATOM     30  O   UNL     1      20.047  17.072  26.069  0.00  0.00    -0.270 OA
ATOM     31  H   UNL     1      19.234  18.427  23.324  0.00  0.00    +0.155 HD
BRANCH  14  15
ATOM     15  C   UNL     1      20.392  16.192  23.954  0.00  0.00    +0.037 A 
ATOM     16  C   UNL     1      21.038  16.557  22.691  0.00  0.00    +0.013 A 
ATOM     17  C   UNL     1      21.542  15.531  21.813  0.00  0.00    +0.005 A 
ATOM     18  C   UNL     1      21.403  14.129  22.197  0.00  0.00    -0.033 A 
ATOM     28  C   UNL     1      20.763  13.794  23.458  0.00  0.00    +0.005 A 
ATOM     29  C   UNL     1      20.267  14.797  24.321  0.00  0.00    +0.013 A 
BRANCH  18  19
ATOM     19  C   UNL     1      21.893  12.967  21.312  0.00  0.00    +0.119 C 
BRANCH  19  20
ATOM     20  N   UNL     1      21.046  12.597  20.139  0.00  0.00    -0.302 NA
ATOM     21  C   UNL     1      21.510  13.288  18.854  0.00  0.00    +0.066 C 
ATOM     22  C   UNL     1      20.627  12.872  17.633  0.00  0.00    -0.064 C 
ATOM     23  N   UNL     1      19.164  13.204  17.929  0.00  0.00    +0.379 N 
ATOM     24  C   UNL     1      18.339  12.867  16.760  0.00  0.00    -0.096 C 
ATOM     25  H   UNL     1      19.093  14.305  18.087  0.00  0.00    -0.082 HD
ATOM     26  C   UNL     1      18.695  12.522  19.206  0.00  0.00    -0.064 C 
ATOM     27  C   UNL     1      19.597  12.920  20.408  0.00  0.00    +0.066 C 
ENDBRANCH  19  20
ENDBRANCH  18  19
ENDBRANCH  14  15
ENDBRANCH  12  13
TORSDOF 6
ENDMDL
MODEL 5
REMARK VINA RESULT:      -8.8      2.456      3.433
REMARK  Name = C:\Users\Docking\Desktop\test protocol\1iep_ligandH.pdb
REMARK  8 active torsions:
REMARK  status: ('A' for Active; 'I' for Inactive)
REMARK    1  A    between atoms: _5  and  _11
REMARK    2  A    between atoms: _19  and  _21
REMARK    3  A    between atoms: _22  and  _66
REMARK    4  A    between atoms: _27  and  _30
REMARK    5  A    between atoms: _32  and  _33
REMARK    6  A    between atoms: _38  and  _43
REMARK    7  A    between atoms: _43  and  _46
REMARK    8  A    between atoms: _53  and  _55
REMARK                            x       y       z     vdW  Elec       q    Type
REMARK                         _______ _______ _______ _____ _____    ______ ____
ROOT
ATOM     10  C   UNL     1      18.647  19.091  25.145  0.00  0.00    +0.038 A 
ATOM     11  C   UNL     1      18.064  19.235  26.430  0.00  0.00    +0.047 A 
ATOM     12  C   UNL     1      18.229  20.458  27.199  0.00  0.00    +0.035 A 
ATOM     32  C   UNL     1      18.993  21.517  26.627  0.00  0.00    +0.024 A 
ATOM     33  C   UNL     1      19.594  21.388  25.323  0.00  0.00    +0.007 A 
ATOM     34  C   UNL     1      19.437  20.182  24.561  0.00  0.00    -0.029 A 
ATOM     35  C   UNL     1      20.109  20.097  23.171  0.00  0.00    +0.045 C 
ENDROOT
BRANCH  10   9
ATOM      4  C   UNL     1      19.931  14.610  24.002  0.00  0.00    +0.077 A 
ATOM      5  C   UNL     1      21.095  14.667  24.839  0.00  0.00    +0.048 A 
ATOM      6  C   UNL     1      21.331  15.870  25.541  0.00  0.00    +0.116 A 
ATOM      7  N   UNL     1      20.462  16.930  25.409  0.00  0.00    -0.223 NA
ATOM      8  C   UNL     1      19.349  16.843  24.592  0.00  0.00    +0.220 A 
ATOM      9  N   UNL     1      18.457  17.894  24.450  0.00  0.00    -0.283 N 
ATOM     36  H   UNL     1      17.652  17.793  23.833  0.00  0.00    +0.155 HD
ATOM     37  N   UNL     1      19.102  15.705  23.910  0.00  0.00    -0.214 NA
BRANCH   4   3
ATOM      1  C   UNL     1      20.068  11.223  22.049  0.00  0.00    +0.020 A 
ATOM      2  C   UNL     1      20.493  12.366  22.825  0.00  0.00    +0.013 A 
ATOM      3  C   UNL     1      19.544  13.406  23.200  0.00  0.00    +0.019 A 
ATOM     38  C   UNL     1      18.162  13.259  22.771  0.00  0.00    +0.120 A 
ATOM     39  N   UNL     1      17.781  12.149  22.023  0.00  0.00    -0.263 NA
ATOM     40  C   UNL     1      18.686  11.142  21.655  0.00  0.00    +0.111 A 
ENDBRANCH   4   3
ENDBRANCH  10   9
BRANCH  12  13
ATOM     13  N   UNL     1      17.667  20.658  28.511  0.00  0.00    -0.281 N 
ATOM     14  C   UNL     1      16.402  20.313  28.958  0.00  0.00    +0.248 C 
ATOM     30  O   UNL     1      15.482  19.969  28.230  0.00  0.00    -0.270 OA
ATOM     31  H   UNL     1      18.275  21.110  29.194  0.00  0.00    +0.155 HD
BRANCH  14  15
ATOM     15  C   UNL     1      16.112  20.371  30.423  0.00  0.00    +0.037 A 
ATOM     16  C   UNL     1      15.063  19.543  31.023  0.00  0.00    +0.013 A 
ATOM     17  C   UNL     1      14.792  19.631  32.436  0.00  0.00    +0.005 A 
ATOM     18  C   UNL     1      15.575  20.550  33.260  0.00  0.00    -0.033 A 
ATOM     28  C   UNL     1      16.614  21.355  32.639  0.00  0.00    +0.005 A 
ATOM     29  C   UNL     1      16.881  21.272  31.254  0.00  0.00    +0.013 A 
BRANCH  18  19
ATOM     19  C   UNL     1      15.341  20.724  34.772  0.00  0.00    +0.119 C 
BRANCH  19  20
ATOM     20  N   UNL     1      15.857  21.975  35.404  0.00  0.00    -0.302 NA
ATOM     21  C   UNL     1      16.723  21.682  36.633  0.00  0.00    +0.066 C 
ATOM     22  C   UNL     1      17.273  23.001  37.268  0.00  0.00    -0.064 C 
ATOM     23  N   UNL     1      16.102  23.913  37.636  0.00  0.00    +0.379 N 
ATOM     24  C   UNL     1      16.613  25.129  38.286  0.00  0.00    -0.096 C 
ATOM     25  H   UNL     1      15.472  23.372  38.378  0.00  0.00    -0.082 HD
ATOM     26  C   UNL     1      15.234  24.207  36.420  0.00  0.00    -0.064 C 
ATOM     27  C   UNL     1      14.717  22.889  35.779  0.00  0.00    +0.066 C 
ENDBRANCH  19  20
ENDBRANCH  18  19
ENDBRANCH  14  15
ENDBRANCH  12  13
TORSDOF 6
ENDMDL
