MODEL 1
REMARK VINA RESULT:      -9.3      0.000      0.000
REMARK  Name = C:\Users\Docking\Desktop\test protocol\1iep_ligandH.pdb
REMARK  8 active torsions:
REMARK  status: ('A' for Active; 'I' for Inactive)
REMARK    1  A    between atoms: _5  and  _11
REMARK    2  A    between atoms: _19  and  _21
REMARK    3  A    between atoms: _22  and  _66
REMARK    4  A    between atoms: _27  and  _30
REMARK    5  A    between atoms: _32  and  _33
REMARK    6  A    between atoms: _38  and  _43
REMARK    7  A    between atoms: _43  and  _46
REMARK    8  A    between atoms: _53  and  _55
REMARK                            x       y       z     vdW  Elec       q    Type
REMARK                         _______ _______ _______ _____ _____    ______ ____
ROOT
ATOM     10  C   UNL     1       8.591  25.646  26.616  0.00  0.00    +0.038 A 
ATOM     11  C   UNL     1       7.235  25.420  26.963  0.00  0.00    +0.047 A 
ATOM     12  C   UNL     1       6.689  25.904  28.221  0.00  0.00    +0.035 A 
ATOM     32  C   UNL     1       7.552  26.619  29.101  0.00  0.00    +0.024 A 
ATOM     33  C   UNL     1       8.934  26.858  28.765  0.00  0.00    +0.007 A 
ATOM     34  C   UNL     1       9.479  26.380  27.527  0.00  0.00    -0.029 A 
ATOM     35  C   UNL     1      10.969  26.659  27.221  0.00  0.00    +0.045 C 
ENDROOT
BRANCH  10   9
ATOM      4  C   UNL     1       9.486  26.131  21.925  0.00  0.00    +0.077 A 
ATOM      5  C   UNL     1       8.943  27.459  21.899  0.00  0.00    +0.048 A 
ATOM      6  C   UNL     1       8.437  27.977  23.112  0.00  0.00    +0.116 A 
ATOM      7  N   UNL     1       8.477  27.216  24.260  0.00  0.00    -0.223 NA
ATOM      8  C   UNL     1       9.006  25.939  24.250  0.00  0.00    +0.220 A 
ATOM      9  N   UNL     1       9.063  25.159  25.395  0.00  0.00    -0.283 N 
ATOM     36  H   UNL     1       9.454  24.218  25.345  0.00  0.00    +0.155 HD
ATOM     37  N   UNL     1       9.494  25.420  23.104  0.00  0.00    -0.214 NA
BRANCH   4   3
ATOM      1  C   UNL     1       9.845  24.126  18.586  0.00  0.00    +0.020 A 
ATOM      2  C   UNL     1       9.239  24.772  19.727  0.00  0.00    +0.013 A 
ATOM      3  C   UNL     1      10.061  25.446  20.725  0.00  0.00    +0.019 A 
ATOM     38  C   UNL     1      11.504  25.448  20.536  0.00  0.00    +0.120 A 
ATOM     39  N   UNL     1      12.059  24.816  19.427  0.00  0.00    -0.263 NA
ATOM     40  C   UNL     1      11.278  24.163  18.462  0.00  0.00    +0.111 A 
ENDBRANCH   4   3
ENDBRANCH  10   9
BRANCH  12  13
ATOM     13  N   UNL     1       5.322  25.697  28.630  0.00  0.00    -0.281 N 
ATOM     14  C   UNL     1       4.343  24.958  27.987  0.00  0.00    +0.248 C 
ATOM     30  O   UNL     1       4.435  24.535  26.845  0.00  0.00    -0.270 OA
ATOM     31  H   UNL     1       5.042  26.151  29.500  0.00  0.00    +0.155 HD
BRANCH  14  15
ATOM     15  C   UNL     1       3.072  24.657  28.713  0.00  0.00    +0.037 A 
ATOM     16  C   UNL     1       1.984  25.637  28.780  0.00  0.00    +0.013 A 
ATOM     17  C   UNL     1       0.775  25.328  29.501  0.00  0.00    +0.005 A 
ATOM     18  C   UNL     1       0.647  24.031  30.161  0.00  0.00    -0.033 A 
ATOM     28  C   UNL     1       1.739  23.075  30.075  0.00  0.00    +0.005 A 
ATOM     29  C   UNL     1       2.926  23.375  29.370  0.00  0.00    +0.013 A 
BRANCH  18  19
ATOM     19  C   UNL     1      -0.599  23.624  30.971  0.00  0.00    +0.119 C 
BRANCH  19  20
ATOM     20  N   UNL     1      -0.483  23.643  32.459  0.00  0.00    -0.302 NA
ATOM     21  C   UNL     1       0.599  24.615  32.939  0.00  0.00    +0.066 C 
ATOM     22  C   UNL     1       0.691  24.639  34.499  0.00  0.00    -0.064 C 
ATOM     23  N   UNL     1       0.966  23.225  35.014  0.00  0.00    +0.379 N 
ATOM     24  C   UNL     1       1.111  23.254  36.476  0.00  0.00    -0.096 C 
ATOM     25  H   UNL     1       1.940  22.893  34.584  0.00  0.00    -0.082 HD
ATOM     26  C   UNL     1      -0.104  22.252  34.539  0.00  0.00    -0.064 C 
ATOM     27  C   UNL     1      -0.207  22.257  32.988  0.00  0.00    +0.066 C 
ENDBRANCH  19  20
ENDBRANCH  18  19
ENDBRANCH  14  15
ENDBRANCH  12  13
TORSDOF 6
ENDMDL
MODEL 2
REMARK VINA RESULT:      -9.2      2.290     12.243
REMARK  Name = C:\Users\Docking\Desktop\test protocol\1iep_ligandH.pdb
REMARK  8 active torsions:
REMARK  status: ('A' for Active; 'I' for Inactive)
REMARK    1  A    between atoms: _5  and  _11
REMARK    2  A    between atoms: _19  and  _21
REMARK    3  A    between atoms: _22  and  _66
REMARK    4  A    between atoms: _27  and  _30
REMARK    5  A    between atoms: _32  and  _33
REMARK    6  A    between atoms: _38  and  _43
REMARK    7  A    between atoms: _43  and  _46
REMARK    8  A    between atoms: _53  and  _55
REMARK                            x       y       z     vdW  Elec       q    Type
REMARK                         _______ _______ _______ _____ _____    ______ ____
ROOT
ATOM     10  C   UNL     1       6.549  25.951  28.345  0.00  0.00    +0.038 A 
ATOM     11  C   UNL     1       7.078  25.616  27.073  0.00  0.00    +0.047 A 
ATOM     12  C   UNL     1       8.023  26.492  26.397  0.00  0.00    +0.035 A 
ATOM     32  C   UNL     1       8.410  27.700  27.049  0.00  0.00    +0.024 A 
ATOM     33  C   UNL     1       7.880  28.056  28.342  0.00  0.00    +0.007 A 
ATOM     34  C   UNL     1       6.946  27.197  29.011  0.00  0.00    -0.029 A 
ATOM     35  C   UNL     1       6.406  27.632  30.394  0.00  0.00    +0.045 C 
ENDROOT
BRANCH  10   9
ATOM      4  C   UNL     1       2.085  24.544  29.410  0.00  0.00    +0.077 A 
ATOM      5  C   UNL     1       1.506  25.666  28.730  0.00  0.00    +0.048 A 
ATOM      6  C   UNL     1       2.391  26.587  28.126  0.00  0.00    +0.116 A 
ATOM      7  N   UNL     1       3.753  26.389  28.201  0.00  0.00    -0.223 NA
ATOM      8  C   UNL     1       4.279  25.296  28.866  0.00  0.00    +0.220 A 
ATOM      9  N   UNL     1       5.645  25.073  28.948  0.00  0.00    -0.283 N 
ATOM     36  H   UNL     1       5.993  24.259  29.454  0.00  0.00    +0.155 HD
ATOM     37  N   UNL     1       3.454  24.404  29.453  0.00  0.00    -0.214 NA
BRANCH   4   3
ATOM      1  C   UNL     1       0.875  21.100  30.816  0.00  0.00    +0.020 A 
ATOM      2  C   UNL     1       1.689  22.085  30.140  0.00  0.00    +0.013 A 
ATOM      3  C   UNL     1       1.280  23.483  30.095  0.00  0.00    +0.019 A 
ATOM     38  C   UNL     1       0.034  23.855  30.748  0.00  0.00    +0.120 A 
ATOM     39  N   UNL     1      -0.729  22.884  31.389  0.00  0.00    -0.263 NA
ATOM     40  C   UNL     1      -0.347  21.535  31.438  0.00  0.00    +0.111 A 
ENDBRANCH   4   3
ENDBRANCH  10   9
BRANCH  12  13
ATOM     13  N   UNL     1       8.588  26.209  25.101  0.00  0.00    -0.281 N 
ATOM     14  C   UNL     1       9.853  25.724  24.811  0.00  0.00    +0.248 C 
ATOM     30  O   UNL     1      10.771  25.662  25.615  0.00  0.00    -0.270 OA
ATOM     31  H   UNL     1       7.982  26.388  24.300  0.00  0.00    +0.155 HD
BRANCH  14  15
ATOM     15  C   UNL     1      10.145  25.255  23.422  0.00  0.00    +0.037 A 
ATOM     16  C   UNL     1      11.196  25.879  22.614  0.00  0.00    +0.013 A 
ATOM     17  C   UNL     1      11.445  25.418  21.271  0.00  0.00    +0.005 A 
ATOM     18  C   UNL     1      10.643  24.324  20.729  0.00  0.00    -0.033 A 
ATOM     28  C   UNL     1       9.611  23.719  21.555  0.00  0.00    +0.005 A 
ATOM     29  C   UNL     1       9.362  24.169  22.871  0.00  0.00    +0.013 A 
BRANCH  18  19
ATOM     19  C   UNL     1      10.826  23.782  19.299  0.00  0.00    +0.119 C 
BRANCH  19  20
ATOM     20  N   UNL     1       9.860  24.251  18.261  0.00  0.00    -0.302 NA
ATOM     21  C   UNL     1       9.545  25.743  18.402  0.00  0.00    +0.066 C 
ATOM     22  C   UNL     1       8.551  26.222  17.295  0.00  0.00    -0.064 C 
ATOM     23  N   UNL     1       7.271  25.389  17.367  0.00  0.00    +0.379 N 
ATOM     24  C   UNL     1       6.311  25.876  16.365  0.00  0.00    -0.096 C 
ATOM     25  H   UNL     1       6.819  25.550  18.374  0.00  0.00    -0.082 HD
ATOM     26  C   UNL     1       7.575  23.904  17.230  0.00  0.00    -0.064 C 
ATOM     27  C   UNL     1       8.586  23.445  18.318  0.00  0.00    +0.066 C 
ENDBRANCH  19  20
ENDBRANCH  18  19
ENDBRANCH  14  15
ENDBRANCH  12  13
TORSDOF 6
ENDMDL
MODEL 3
REMARK VINA RESULT:      -9.1      2.099     13.204
REMARK  Name = C:\Users\Docking\Desktop\test protocol\1iep_ligandH.pdb
REMARK  8 active torsions:
REMARK  status: ('A' for Active; 'I' for Inactive)
REMARK    1  A    between atoms: _5  and  _11
REMARK    2  A    between atoms: _19  and  _21
REMARK    3  A    between atoms: _22  and  _66
REMARK    4  A    between atoms: _27  and  _30
REMARK    5  A    between atoms: _32  and  _33
REMARK    6  A    between atoms: _38  and  _43
REMARK    7  A    between atoms: _43  and  _46
REMARK    8  A    between atoms: _53  and  _55
REMARK                            x       y       z     vdW  Elec       q    Type
REMARK                         _______ _______ _______ _____ _____    ______ ____
ROOT
ATOM     10  C   UNL     1       6.919  25.755  28.110  0.00  0.00    +0.038 A 
ATOM     11  C   UNL     1       7.423  25.358  26.845  0.00  0.00    +0.047 A 
ATOM     12  C   UNL     1       8.407  26.165  26.140  0.00  0.00    +0.035 A 
ATOM     32  C   UNL     1       8.858  27.369  26.755  0.00  0.00    +0.024 A 
ATOM     33  C   UNL     1       8.355  27.789  28.039  0.00  0.00    +0.007 A 
ATOM     34  C   UNL     1       7.382  26.998  28.738  0.00  0.00    -0.029 A 
ATOM     35  C   UNL     1       6.873  27.500  30.109  0.00  0.00    +0.045 C 
ENDROOT
BRANCH  10   9
ATOM      4  C   UNL     1       2.396  24.612  29.241  0.00  0.00    +0.077 A 
ATOM      5  C   UNL     1       1.871  25.746  28.535  0.00  0.00    +0.048 A 
ATOM      6  C   UNL     1       2.798  26.602  27.901  0.00  0.00    +0.116 A 
ATOM      7  N   UNL     1       4.148  26.335  27.973  0.00  0.00    -0.223 NA
ATOM      8  C   UNL     1       4.622  25.234  28.663  0.00  0.00    +0.220 A 
ATOM      9  N   UNL     1       5.975  24.942  28.742  0.00  0.00    -0.283 N 
ATOM     36  H   UNL     1       6.284  24.125  29.267  0.00  0.00    +0.155 HD
ATOM     37  N   UNL     1       3.757  24.402  29.279  0.00  0.00    -0.214 NA
BRANCH   4   3
ATOM      1  C   UNL     1       1.009  21.272  30.729  0.00  0.00    +0.020 A 
ATOM      2  C   UNL     1       1.866  22.194  30.022  0.00  0.00    +0.013 A 
ATOM      3  C   UNL     1       1.543  23.614  29.959  0.00  0.00    +0.019 A 
ATOM     38  C   UNL     1       0.335  24.071  30.630  0.00  0.00    +0.120 A 
ATOM     39  N   UNL     1      -0.473  23.159  31.302  0.00  0.00    -0.263 NA
ATOM     40  C   UNL     1      -0.172  21.791  31.367  0.00  0.00    +0.111 A 
ENDBRANCH   4   3
ENDBRANCH  10   9
BRANCH  12  13
ATOM     13  N   UNL     1       8.949  25.816  24.851  0.00  0.00    -0.281 N 
ATOM     14  C   UNL     1       8.901  26.554  23.679  0.00  0.00    +0.248 C 
ATOM     30  O   UNL     1       8.193  27.536  23.509  0.00  0.00    -0.270 OA
ATOM     31  H   UNL     1       9.427  24.917  24.794  0.00  0.00    +0.155 HD
BRANCH  14  15
ATOM     15  C   UNL     1       9.750  26.131  22.524  0.00  0.00    +0.037 A 
ATOM     16  C   UNL     1      10.052  24.718  22.280  0.00  0.00    +0.013 A 
ATOM     17  C   UNL     1      10.888  24.339  21.168  0.00  0.00    +0.005 A 
ATOM     18  C   UNL     1      11.426  25.376  20.291  0.00  0.00    -0.033 A 
ATOM     28  C   UNL     1      11.106  26.769  20.553  0.00  0.00    +0.005 A 
ATOM     29  C   UNL     1      10.288  27.145  21.642  0.00  0.00    +0.013 A 
BRANCH  18  19
ATOM     19  C   UNL     1      12.344  25.065  19.094  0.00  0.00    +0.119 C 
BRANCH  19  20
ATOM     20  N   UNL     1      11.988  25.681  17.781  0.00  0.00    -0.302 NA
ATOM     21  C   UNL     1      10.511  25.476  17.432  0.00  0.00    +0.066 C 
ATOM     22  C   UNL     1      10.150  26.147  16.066  0.00  0.00    -0.064 C 
ATOM     23  N   UNL     1      11.050  25.577  14.968  0.00  0.00    +0.379 N 
ATOM     24  C   UNL     1      10.675  26.162  13.673  0.00  0.00    -0.096 C 
ATOM     25  H   UNL     1      10.860  24.480  14.911  0.00  0.00    -0.082 HD
ATOM     26  C   UNL     1      12.521  25.773  15.308  0.00  0.00    -0.064 C 
ATOM     27  C   UNL     1      12.862  25.129  16.681  0.00  0.00    +0.066 C 
ENDBRANCH  19  20
ENDBRANCH  18  19
ENDBRANCH  14  15
ENDBRANCH  12  13
TORSDOF 6
ENDMDL
MODEL 4
REMARK VINA RESULT:      -9.1      2.342     12.190
REMARK  Name = C:\Users\Docking\Desktop\test protocol\1iep_ligandH.pdb
REMARK  8 active torsions:
REMARK  status: ('A' for Active; 'I' for Inactive)
REMARK    1  A    between atoms: _5  and  _11
REMARK    2  A    between atoms: _19  and  _21
REMARK    3  A    between atoms: _22  and  _66
REMARK    4  A    between atoms: _27  and  _30
REMARK    5  A    between atoms: _32  and  _33
REMARK    6  A    between atoms: _38  and  _43
REMARK    7  A    between atoms: _43  and  _46
REMARK    8  A    between atoms: _53  and  _55
REMARK                            x       y       z     vdW  Elec       q    Type
REMARK                         _______ _______ _______ _____ _____    ______ ____
ROOT
ATOM     10  C   UNL     1       5.636  26.949  29.034  0.00  0.00    +0.038 A 
ATOM     11  C   UNL     1       6.197  26.606  27.777  0.00  0.00    +0.047 A 
ATOM     12  C   UNL     1       7.005  27.557  27.029  0.00  0.00    +0.035 A 
ATOM     32  C   UNL     1       7.224  28.847  27.593  0.00  0.00    +0.024 A 
ATOM     33  C   UNL     1       6.660  29.213  28.869  0.00  0.00    +0.007 A 
ATOM     34  C   UNL     1       5.861  28.280  29.610  0.00  0.00    -0.029 A 
ATOM     35  C   UNL     1       5.276  28.728  30.969  0.00  0.00    +0.045 C 
ENDROOT
BRANCH  10   9
ATOM      4  C   UNL     1       1.457  24.798  30.007  0.00  0.00    +0.077 A 
ATOM      5  C   UNL     1       0.738  25.662  29.116  0.00  0.00    +0.048 A 
ATOM      6  C   UNL     1       1.479  26.651  28.432  0.00  0.00    +0.116 A 
ATOM      7  N   UNL     1       2.838  26.759  28.631  0.00  0.00    -0.223 NA
ATOM      8  C   UNL     1       3.501  25.911  29.499  0.00  0.00    +0.220 A 
ATOM      9  N   UNL     1       4.869  25.997  29.709  0.00  0.00    -0.283 N 
ATOM     36  H   UNL     1       5.320  25.357  30.363  0.00  0.00    +0.155 HD
ATOM     37  N   UNL     1       2.816  24.959  30.166  0.00  0.00    -0.214 NA
BRANCH   4   3
ATOM      1  C   UNL     1       0.362  21.270  31.294  0.00  0.00    +0.020 A 
ATOM      2  C   UNL     1       1.005  22.290  30.497  0.00  0.00    +0.013 A 
ATOM      3  C   UNL     1       0.815  23.702  30.800  0.00  0.00    +0.019 A 
ATOM     38  C   UNL     1      -0.038  24.053  31.925  0.00  0.00    +0.120 A 
ATOM     39  N   UNL     1      -0.646  23.050  32.674  0.00  0.00    -0.263 NA
ATOM     40  C   UNL     1      -0.472  21.687  32.391  0.00  0.00    +0.111 A 
ENDBRANCH   4   3
ENDBRANCH  10   9
BRANCH  12  13
ATOM     13  N   UNL     1       7.594  27.268  25.745  0.00  0.00    -0.281 N 
ATOM     14  C   UNL     1       8.887  26.849  25.476  0.00  0.00    +0.248 C 
ATOM     30  O   UNL     1       9.801  26.864  26.286  0.00  0.00    -0.270 OA
ATOM     31  H   UNL     1       6.984  27.387  24.937  0.00  0.00    +0.155 HD
BRANCH  14  15
ATOM     15  C   UNL     1       9.214  26.355  24.104  0.00  0.00    +0.037 A 
ATOM     16  C   UNL     1       8.984  27.189  22.921  0.00  0.00    +0.013 A 
ATOM     17  C   UNL     1       9.293  26.681  21.607  0.00  0.00    +0.005 A 
ATOM     18  C   UNL     1       9.837  25.333  21.470  0.00  0.00    -0.033 A 
ATOM     28  C   UNL     1      10.060  24.529  22.661  0.00  0.00    +0.005 A 
ATOM     29  C   UNL     1       9.758  25.022  23.950  0.00  0.00    +0.013 A 
BRANCH  18  19
ATOM     19  C   UNL     1      10.176  24.702  20.107  0.00  0.00    +0.119 C 
BRANCH  19  20
ATOM     20  N   UNL     1       9.429  23.468  19.719  0.00  0.00    -0.302 NA
ATOM     21  C   UNL     1      10.234  22.197  20.001  0.00  0.00    +0.066 C 
ATOM     22  C   UNL     1       9.429  20.915  19.611  0.00  0.00    -0.064 C 
ATOM     23  N   UNL     1       9.038  20.992  18.134  0.00  0.00    +0.379 N 
ATOM     24  C   UNL     1       8.330  19.762  17.749  0.00  0.00    -0.096 C 
ATOM     25  H   UNL     1       9.978  21.042  17.537  0.00  0.00    -0.082 HD
ATOM     26  C   UNL     1       8.239  22.255  17.844  0.00  0.00    -0.064 C 
ATOM     27  C   UNL     1       9.036  23.521  18.263  0.00  0.00    +0.066 C 
ENDBRANCH  19  20
ENDBRANCH  18  19
ENDBRANCH  14  15
ENDBRANCH  12  13
TORSDOF 6
ENDMDL
MODEL 5
REMARK VINA RESULT:      -9.0      1.239      1.640
REMARK  Name = C:\Users\Docking\Desktop\test protocol\1iep_ligandH.pdb
REMARK  8 active torsions:
REMARK  status: ('A' for Active; 'I' for Inactive)
REMARK    1  A    between atoms: _5  and  _11
REMARK    2  A    between atoms: _19  and  _21
REMARK    3  A    between atoms: _22  and  _66
REMARK    4  A    between atoms: _27  and  _30
REMARK    5  A    between atoms: _32  and  _33
REMARK    6  A    between atoms: _38  and  _43
REMARK    7  A    between atoms: _43  and  _46
REMARK    8  A    between atoms: _53  and  _55
REMARK                            x       y       z     vdW  Elec       q    Type
REMARK                         _______ _______ _______ _____ _____    ______ ____
ROOT
ATOM     10  C   UNL     1       8.629  25.569  26.439  0.00  0.00    +0.038 A 
ATOM     11  C   UNL     1       7.247  25.323  26.641  0.00  0.00    +0.047 A 
ATOM     12  C   UNL     1       6.579  25.738  27.865  0.00  0.00    +0.035 A 
ATOM     32  C   UNL     1       7.350  26.404  28.862  0.00  0.00    +0.024 A 
ATOM     33  C   UNL     1       8.756  26.662  28.673  0.00  0.00    +0.007 A 
ATOM     34  C   UNL     1       9.420  26.252  27.469  0.00  0.00    -0.029 A 
ATOM     35  C   UNL     1      10.931  26.549  27.324  0.00  0.00    +0.045 C 
ENDROOT
BRANCH  10   9
ATOM      4  C   UNL     1       9.724  26.198  21.808  0.00  0.00    +0.077 A 
ATOM      5  C   UNL     1       9.041  27.458  21.757  0.00  0.00    +0.048 A 
ATOM      6  C   UNL     1       8.414  27.905  22.942  0.00  0.00    +0.116 A 
ATOM      7  N   UNL     1       8.473  27.141  24.087  0.00  0.00    -0.223 NA
ATOM      8  C   UNL     1       9.140  25.930  24.102  0.00  0.00    +0.220 A 
ATOM      9  N   UNL     1       9.219  25.149  25.245  0.00  0.00    -0.283 N 
ATOM     36  H   UNL     1       9.713  24.257  25.213  0.00  0.00    +0.155 HD
ATOM     37  N   UNL     1       9.745  25.480  22.983  0.00  0.00    -0.214 NA
BRANCH   4   3
ATOM      1  C   UNL     1      12.529  24.975  19.372  0.00  0.00    +0.020 A 
ATOM      2  C   UNL     1      11.890  25.573  20.521  0.00  0.00    +0.013 A 
ATOM      3  C   UNL     1      10.438  25.593  20.640  0.00  0.00    +0.019 A 
ATOM     38  C   UNL     1       9.655  24.993  19.569  0.00  0.00    +0.120 A 
ATOM     39  N   UNL     1      10.298  24.426  18.474  0.00  0.00    -0.263 NA
ATOM     40  C   UNL     1      11.695  24.403  18.348  0.00  0.00    +0.111 A 
ENDBRANCH   4   3
ENDBRANCH  10   9
BRANCH  12  13
ATOM     13  N   UNL     1       5.181  25.508  28.129  0.00  0.00    -0.281 N 
ATOM     14  C   UNL     1       4.595  24.394  28.709  0.00  0.00    +0.248 C 
ATOM     30  O   UNL     1       5.168  23.331  28.895  0.00  0.00    -0.270 OA
ATOM     31  H   UNL     1       4.545  26.257  27.855  0.00  0.00    +0.155 HD
BRANCH  14  15
ATOM     15  C   UNL     1       3.163  24.468  29.130  0.00  0.00    +0.037 A 
ATOM     16  C   UNL     1       2.532  23.374  29.873  0.00  0.00    +0.013 A 
ATOM     17  C   UNL     1       1.145  23.463  30.252  0.00  0.00    +0.005 A 
ATOM     18  C   UNL     1       0.378  24.653  29.889  0.00  0.00    -0.033 A 
ATOM     28  C   UNL     1       1.030  25.725  29.156  0.00  0.00    +0.005 A 
ATOM     29  C   UNL     1       2.390  25.641  28.782  0.00  0.00    +0.013 A 
BRANCH  18  19
ATOM     19  C   UNL     1      -1.113  24.824  30.234  0.00  0.00    +0.119 C 
BRANCH  19  20
ATOM     20  N   UNL     1      -1.465  25.018  31.672  0.00  0.00    -0.302 NA
ATOM     21  C   UNL     1      -0.425  25.868  32.408  0.00  0.00    +0.066 C 
ATOM     22  C   UNL     1      -0.820  26.079  33.906  0.00  0.00    -0.064 C 
ATOM     23  N   UNL     1      -0.985  24.718  34.584  0.00  0.00    +0.379 N 
ATOM     24  C   UNL     1      -1.300  24.914  36.007  0.00  0.00    -0.096 C 
ATOM     25  H   UNL     1      -0.006  24.190  34.524  0.00  0.00    -0.082 HD
ATOM     26  C   UNL     1      -2.015  23.866  33.857  0.00  0.00    -0.064 C 
ATOM     27  C   UNL     1      -1.629  23.686  32.362  0.00  0.00    +0.066 C 
ENDBRANCH  19  20
ENDBRANCH  18  19
ENDBRANCH  14  15
ENDBRANCH  12  13
TORSDOF 6
ENDMDL
