MODEL 1
REMARK VINA RESULT:      -9.8      0.000      0.000
REMARK  Name = C:\Users\Docking\Desktop\test protocol\1iep_ligandH.pdb
REMARK  8 active torsions:
REMARK  status: ('A' for Active; 'I' for Inactive)
REMARK    1  A    between atoms: _5  and  _11
REMARK    2  A    between atoms: _19  and  _21
REMARK    3  A    between atoms: _22  and  _66
REMARK    4  A    between atoms: _27  and  _30
REMARK    5  A    between atoms: _32  and  _33
REMARK    6  A    between atoms: _38  and  _43
REMARK    7  A    between atoms: _43  and  _46
REMARK    8  A    between atoms: _53  and  _55
REMARK                            x       y       z     vdW  Elec       q    Type
REMARK                         _______ _______ _______ _____ _____    ______ ____
ROOT
ATOM     10  C   UNL     1      48.821  26.371  42.297  0.00  0.00    +0.038 A 
ATOM     11  C   UNL     1      48.105  25.902  43.428  0.00  0.00    +0.047 A 
ATOM     12  C   UNL     1      47.236  26.786  44.188  0.00  0.00    +0.035 A 
ATOM     32  C   UNL     1      47.117  28.143  43.768  0.00  0.00    +0.024 A 
ATOM     33  C   UNL     1      47.839  28.637  42.622  0.00  0.00    +0.007 A 
ATOM     34  C   UNL     1      48.700  27.770  41.869  0.00  0.00    -0.029 A 
ATOM     35  C   UNL     1      49.454  28.356  40.653  0.00  0.00    +0.045 C 
ENDROOT
BRANCH  10   9
ATOM      4  C   UNL     1      53.087  24.357  41.411  0.00  0.00    +0.077 A 
ATOM      5  C   UNL     1      53.742  25.171  42.395  0.00  0.00    +0.048 A 
ATOM      6  C   UNL     1      52.946  26.100  43.102  0.00  0.00    +0.116 A 
ATOM      7  N   UNL     1      51.598  26.200  42.837  0.00  0.00    -0.223 NA
ATOM      8  C   UNL     1      50.998  25.401  41.881  0.00  0.00    +0.220 A 
ATOM      9  N   UNL     1      49.642  25.479  41.604  0.00  0.00    -0.283 N 
ATOM     36  H   UNL     1      49.238  24.878  40.886  0.00  0.00    +0.155 HD
ATOM     37  N   UNL     1      51.736  24.507  41.191  0.00  0.00    -0.214 NA
BRANCH   4   3
ATOM      1  C   UNL     1      54.109  20.970  39.744  0.00  0.00    +0.020 A 
ATOM      2  C   UNL     1      53.396  21.924  40.561  0.00  0.00    +0.013 A 
ATOM      3  C   UNL     1      53.791  23.327  40.584  0.00  0.00    +0.019 A 
ATOM     38  C   UNL     1      54.922  23.734  39.764  0.00  0.00    +0.120 A 
ATOM     39  N   UNL     1      55.591  22.792  38.989  0.00  0.00    -0.263 NA
ATOM     40  C   UNL     1      55.220  21.439  38.959  0.00  0.00    +0.111 A 
ENDBRANCH   4   3
ENDBRANCH  10   9
BRANCH  12  13
ATOM     13  N   UNL     1      46.490  26.368  45.349  0.00  0.00    -0.281 N 
ATOM     14  C   UNL     1      45.402  25.512  45.400  0.00  0.00    +0.248 C 
ATOM     30  O   UNL     1      44.768  25.142  44.423  0.00  0.00    -0.270 OA
ATOM     31  H   UNL     1      46.802  26.749  46.243  0.00  0.00    +0.155 HD
BRANCH  14  15
ATOM     15  C   UNL     1      44.942  25.006  46.729  0.00  0.00    +0.037 A 
ATOM     16  C   UNL     1      43.754  25.559  47.383  0.00  0.00    +0.013 A 
ATOM     17  C   UNL     1      43.342  25.065  48.673  0.00  0.00    +0.005 A 
ATOM     18  C   UNL     1      44.120  24.009  49.317  0.00  0.00    -0.033 A 
ATOM     28  C   UNL     1      45.292  23.474  48.643  0.00  0.00    +0.005 A 
ATOM     29  C   UNL     1      45.699  23.957  47.379  0.00  0.00    +0.013 A 
BRANCH  18  19
ATOM     19  C   UNL     1      43.767  23.436  50.702  0.00  0.00    +0.119 C 
BRANCH  19  20
ATOM     20  N   UNL     1      44.568  22.272  51.185  0.00  0.00    -0.302 NA
ATOM     21  C   UNL     1      43.894  20.936  50.861  0.00  0.00    +0.066 C 
ATOM     22  C   UNL     1      44.757  19.729  51.354  0.00  0.00    -0.064 C 
ATOM     23  N   UNL     1      45.002  19.861  52.858  0.00  0.00    +0.379 N 
ATOM     24  C   UNL     1      45.764  18.698  53.335  0.00  0.00    -0.096 C 
ATOM     25  H   UNL     1      44.009  19.846  53.365  0.00  0.00    -0.082 HD
ATOM     26  C   UNL     1      45.670  21.188  53.190  0.00  0.00    -0.064 C 
ATOM     27  C   UNL     1      44.818  22.380  52.670  0.00  0.00    +0.066 C 
ENDBRANCH  19  20
ENDBRANCH  18  19
ENDBRANCH  14  15
ENDBRANCH  12  13
TORSDOF 6
ENDMDL
MODEL 2
REMARK VINA RESULT:      -9.2      1.707      2.386
REMARK  Name = C:\Users\Docking\Desktop\test protocol\1iep_ligandH.pdb
REMARK  8 active torsions:
REMARK  status: ('A' for Active; 'I' for Inactive)
REMARK    1  A    between atoms: _5  and  _11
REMARK    2  A    between atoms: _19  and  _21
REMARK    3  A    between atoms: _22  and  _66
REMARK    4  A    between atoms: _27  and  _30
REMARK    5  A    between atoms: _32  and  _33
REMARK    6  A    between atoms: _38  and  _43
REMARK    7  A    between atoms: _43  and  _46
REMARK    8  A    between atoms: _53  and  _55
REMARK                            x       y       z     vdW  Elec       q    Type
REMARK                         _______ _______ _______ _____ _____    ______ ____
ROOT
ATOM     10  C   UNL     1      48.085  25.357  43.002  0.00  0.00    +0.038 A 
ATOM     11  C   UNL     1      47.569  24.942  44.256  0.00  0.00    +0.047 A 
ATOM     12  C   UNL     1      46.655  25.787  45.010  0.00  0.00    +0.035 A 
ATOM     32  C   UNL     1      46.286  27.047  44.455  0.00  0.00    +0.024 A 
ATOM     33  C   UNL     1      46.802  27.484  43.182  0.00  0.00    +0.007 A 
ATOM     34  C   UNL     1      47.706  26.656  42.435  0.00  0.00    -0.029 A 
ATOM     35  C   UNL     1      48.233  27.179  41.078  0.00  0.00    +0.045 C 
ENDROOT
BRANCH  10   9
ATOM      4  C   UNL     1      52.493  23.990  41.684  0.00  0.00    +0.077 A 
ATOM      5  C   UNL     1      53.106  25.079  42.389  0.00  0.00    +0.048 A 
ATOM      6  C   UNL     1      52.251  25.973  43.072  0.00  0.00    +0.116 A 
ATOM      7  N   UNL     1      50.886  25.781  43.046  0.00  0.00    -0.223 NA
ATOM      8  C   UNL     1      50.328  24.722  42.355  0.00  0.00    +0.220 A 
ATOM      9  N   UNL     1      48.959  24.506  42.321  0.00  0.00    -0.283 N 
ATOM     36  H   UNL     1      48.586  23.717  41.794  0.00  0.00    +0.155 HD
ATOM     37  N   UNL     1      51.123  23.855  41.693  0.00  0.00    -0.214 NA
BRANCH   4   3
ATOM      1  C   UNL     1      53.613  20.618  40.048  0.00  0.00    +0.020 A 
ATOM      2  C   UNL     1      52.833  21.573  40.801  0.00  0.00    +0.013 A 
ATOM      3  C   UNL     1      53.263  22.960  40.917  0.00  0.00    +0.019 A 
ATOM     38  C   UNL     1      54.497  23.353  40.252  0.00  0.00    +0.120 A 
ATOM     39  N   UNL     1      55.228  22.411  39.535  0.00  0.00    -0.263 NA
ATOM     40  C   UNL     1      54.825  21.072  39.419  0.00  0.00    +0.111 A 
ENDBRANCH   4   3
ENDBRANCH  10   9
BRANCH  12  13
ATOM     13  N   UNL     1      46.105  25.423  46.292  0.00  0.00    -0.281 N 
ATOM     14  C   UNL     1      44.792  25.102  46.595  0.00  0.00    +0.248 C 
ATOM     30  O   UNL     1      43.844  25.288  45.846  0.00  0.00    -0.270 OA
ATOM     31  H   UNL     1      46.763  25.399  47.071  0.00  0.00    +0.155 HD
BRANCH  14  15
ATOM     15  C   UNL     1      44.485  24.501  47.929  0.00  0.00    +0.037 A 
ATOM     16  C   UNL     1      43.389  25.010  48.758  0.00  0.00    +0.013 A 
ATOM     17  C   UNL     1      43.125  24.424  50.048  0.00  0.00    +0.005 A 
ATOM     18  C   UNL     1      43.959  23.319  50.516  0.00  0.00    -0.033 A 
ATOM     28  C   UNL     1      45.035  22.830  49.671  0.00  0.00    +0.005 A 
ATOM     29  C   UNL     1      45.298  23.403  48.406  0.00  0.00    +0.013 A 
BRANCH  18  19
ATOM     19  C   UNL     1      43.762  22.646  51.888  0.00  0.00    +0.119 C 
BRANCH  19  20
ATOM     20  N   UNL     1      44.457  23.263  53.057  0.00  0.00    -0.302 NA
ATOM     21  C   UNL     1      44.152  24.758  53.183  0.00  0.00    +0.066 C 
ATOM     22  C   UNL     1      44.869  25.382  54.425  0.00  0.00    -0.064 C 
ATOM     23  N   UNL     1      46.376  25.145  54.313  0.00  0.00    +0.379 N 
ATOM     24  C   UNL     1      47.058  25.781  55.450  0.00  0.00    -0.096 C 
ATOM     25  H   UNL     1      46.729  25.646  53.382  0.00  0.00    -0.082 HD
ATOM     26  C   UNL     1      46.688  23.660  54.184  0.00  0.00    -0.064 C 
ATOM     27  C   UNL     1      45.947  23.044  52.965  0.00  0.00    +0.066 C 
ENDBRANCH  19  20
ENDBRANCH  18  19
ENDBRANCH  14  15
ENDBRANCH  12  13
TORSDOF 6
ENDMDL
MODEL 3
REMARK VINA RESULT:      -9.1      2.001      2.814
REMARK  Name = C:\Users\Docking\Desktop\test protocol\1iep_ligandH.pdb
REMARK  8 active torsions:
REMARK  status: ('A' for Active; 'I' for Inactive)
REMARK    1  A    between atoms: _5  and  _11
REMARK    2  A    between atoms: _19  and  _21
REMARK    3  A    between atoms: _22  and  _66
REMARK    4  A    between atoms: _27  and  _30
REMARK    5  A    between atoms: _32  and  _33
REMARK    6  A    between atoms: _38  and  _43
REMARK    7  A    between atoms: _43  and  _46
REMARK    8  A    between atoms: _53  and  _55
REMARK                            x       y       z     vdW  Elec       q    Type
REMARK                         _______ _______ _______ _____ _____    ______ ____
ROOT
ATOM     10  C   UNL     1      48.230  25.505  42.951  0.00  0.00    +0.038 A 
ATOM     11  C   UNL     1      47.815  25.133  44.255  0.00  0.00    +0.047 A 
ATOM     12  C   UNL     1      46.919  25.978  45.029  0.00  0.00    +0.035 A 
ATOM     32  C   UNL     1      46.462  27.194  44.442  0.00  0.00    +0.024 A 
ATOM     33  C   UNL     1      46.875  27.588  43.118  0.00  0.00    +0.007 A 
ATOM     34  C   UNL     1      47.760  26.760  42.351  0.00  0.00    -0.029 A 
ATOM     35  C   UNL     1      48.175  27.235  40.939  0.00  0.00    +0.045 C 
ENDROOT
BRANCH  10   9
ATOM      4  C   UNL     1      52.620  24.073  41.642  0.00  0.00    +0.077 A 
ATOM      5  C   UNL     1      53.250  25.122  42.391  0.00  0.00    +0.048 A 
ATOM      6  C   UNL     1      52.408  26.013  43.093  0.00  0.00    +0.116 A 
ATOM      7  N   UNL     1      51.040  25.857  43.044  0.00  0.00    -0.223 NA
ATOM      8  C   UNL     1      50.464  24.836  42.310  0.00  0.00    +0.220 A 
ATOM      9  N   UNL     1      49.091  24.655  42.253  0.00  0.00    -0.283 N 
ATOM     36  H   UNL     1      48.705  23.894  41.695  0.00  0.00    +0.155 HD
ATOM     37  N   UNL     1      51.247  23.972  41.630  0.00  0.00    -0.214 NA
BRANCH   4   3
ATOM      1  C   UNL     1      53.736  20.704  39.997  0.00  0.00    +0.020 A 
ATOM      2  C   UNL     1      52.972  21.651  40.776  0.00  0.00    +0.013 A 
ATOM      3  C   UNL     1      53.374  23.050  40.850  0.00  0.00    +0.019 A 
ATOM     38  C   UNL     1      54.563  23.462  40.118  0.00  0.00    +0.120 A 
ATOM     39  N   UNL     1      55.279  22.527  39.377  0.00  0.00    -0.263 NA
ATOM     40  C   UNL     1      54.903  21.178  39.300  0.00  0.00    +0.111 A 
ENDBRANCH   4   3
ENDBRANCH  10   9
BRANCH  12  13
ATOM     13  N   UNL     1      46.470  25.657  46.361  0.00  0.00    -0.281 N 
ATOM     14  C   UNL     1      45.707  24.574  46.765  0.00  0.00    +0.248 C 
ATOM     30  O   UNL     1      45.111  23.826  46.003  0.00  0.00    -0.270 OA
ATOM     31  H   UNL     1      46.748  26.308  47.096  0.00  0.00    +0.155 HD
BRANCH  14  15
ATOM     15  C   UNL     1      45.574  24.288  48.226  0.00  0.00    +0.037 A 
ATOM     16  C   UNL     1      45.854  25.317  49.230  0.00  0.00    +0.013 A 
ATOM     17  C   UNL     1      45.734  25.010  50.633  0.00  0.00    +0.005 A 
ATOM     18  C   UNL     1      45.332  23.666  51.040  0.00  0.00    -0.033 A 
ATOM     28  C   UNL     1      45.055  22.665  50.023  0.00  0.00    +0.005 A 
ATOM     29  C   UNL     1      45.172  22.963  48.647  0.00  0.00    +0.013 A 
BRANCH  18  19
ATOM     19  C   UNL     1      45.199  23.244  52.516  0.00  0.00    +0.119 C 
BRANCH  19  20
ATOM     20  N   UNL     1      44.059  23.816  53.291  0.00  0.00    -0.302 NA
ATOM     21  C   UNL     1      42.852  24.118  52.399  0.00  0.00    +0.066 C 
ATOM     22  C   UNL     1      41.660  24.695  53.230  0.00  0.00    -0.064 C 
ATOM     23  N   UNL     1      42.118  25.955  53.966  0.00  0.00    +0.379 N 
ATOM     24  C   UNL     1      40.984  26.533  54.702  0.00  0.00    -0.096 C 
ATOM     25  H   UNL     1      42.437  26.698  53.199  0.00  0.00    -0.082 HD
ATOM     26  C   UNL     1      43.320  25.664  54.854  0.00  0.00    -0.064 C 
ATOM     27  C   UNL     1      44.488  25.064  54.023  0.00  0.00    +0.066 C 
ENDBRANCH  19  20
ENDBRANCH  18  19
ENDBRANCH  14  15
ENDBRANCH  12  13
TORSDOF 6
ENDMDL
MODEL 4
REMARK VINA RESULT:      -9.1      8.048     11.439
REMARK  Name = C:\Users\Docking\Desktop\test protocol\1iep_ligandH.pdb
REMARK  8 active torsions:
REMARK  status: ('A' for Active; 'I' for Inactive)
REMARK    1  A    between atoms: _5  and  _11
REMARK    2  A    between atoms: _19  and  _21
REMARK    3  A    between atoms: _22  and  _66
REMARK    4  A    between atoms: _27  and  _30
REMARK    5  A    between atoms: _32  and  _33
REMARK    6  A    between atoms: _38  and  _43
REMARK    7  A    between atoms: _43  and  _46
REMARK    8  A    between atoms: _53  and  _55
REMARK                            x       y       z     vdW  Elec       q    Type
REMARK                         _______ _______ _______ _____ _____    ______ ____
ROOT
ATOM     10  C   UNL     1      45.044  23.787  51.324  0.00  0.00    +0.038 A 
ATOM     11  C   UNL     1      44.161  23.818  52.433  0.00  0.00    +0.047 A 
ATOM     12  C   UNL     1      42.724  23.951  52.248  0.00  0.00    +0.035 A 
ATOM     32  C   UNL     1      42.221  24.048  50.918  0.00  0.00    +0.024 A 
ATOM     33  C   UNL     1      43.104  24.020  49.779  0.00  0.00    +0.007 A 
ATOM     34  C   UNL     1      44.522  23.890  49.956  0.00  0.00    -0.029 A 
ATOM     35  C   UNL     1      45.423  23.872  48.698  0.00  0.00    +0.045 C 
ENDROOT
BRANCH  10   9
ATOM      4  C   UNL     1      49.367  25.635  52.291  0.00  0.00    +0.077 A 
ATOM      5  C   UNL     1      48.857  26.976  52.300  0.00  0.00    +0.048 A 
ATOM      6  C   UNL     1      47.478  27.147  52.045  0.00  0.00    +0.116 A 
ATOM      7  N   UNL     1      46.678  26.052  51.800  0.00  0.00    -0.223 NA
ATOM      8  C   UNL     1      47.202  24.773  51.796  0.00  0.00    +0.220 A 
ATOM      9  N   UNL     1      46.414  23.656  51.560  0.00  0.00    -0.283 N 
ATOM     36  H   UNL     1      46.841  22.730  51.558  0.00  0.00    +0.155 HD
ATOM     37  N   UNL     1      48.516  24.583  52.036  0.00  0.00    -0.214 NA
BRANCH   4   3
ATOM      1  C   UNL     1      52.633  23.685  53.201  0.00  0.00    +0.020 A 
ATOM      2  C   UNL     1      51.235  23.965  52.968  0.00  0.00    +0.013 A 
ATOM      3  C   UNL     1      50.801  25.291  52.546  0.00  0.00    +0.019 A 
ATOM     38  C   UNL     1      51.815  26.320  52.367  0.00  0.00    +0.120 A 
ATOM     39  N   UNL     1      53.154  26.021  52.600  0.00  0.00    -0.263 NA
ATOM     40  C   UNL     1      53.583  24.749  53.008  0.00  0.00    +0.111 A 
ENDBRANCH   4   3
ENDBRANCH  10   9
BRANCH  12  13
ATOM     13  N   UNL     1      41.780  23.997  53.336  0.00  0.00    -0.281 N 
ATOM     14  C   UNL     1      41.021  25.075  53.761  0.00  0.00    +0.248 C 
ATOM     30  O   UNL     1      41.198  26.230  53.400  0.00  0.00    -0.270 OA
ATOM     31  H   UNL     1      41.656  23.129  53.858  0.00  0.00    +0.155 HD
BRANCH  14  15
ATOM     15  C   UNL     1      39.914  24.840  54.737  0.00  0.00    +0.037 A 
ATOM     16  C   UNL     1      40.146  24.915  56.182  0.00  0.00    +0.013 A 
ATOM     17  C   UNL     1      39.065  24.667  57.102  0.00  0.00    +0.005 A 
ATOM     18  C   UNL     1      37.740  24.341  56.579  0.00  0.00    -0.033 A 
ATOM     28  C   UNL     1      37.536  24.278  55.141  0.00  0.00    +0.005 A 
ATOM     29  C   UNL     1      38.594  24.520  54.236  0.00  0.00    +0.013 A 
BRANCH  18  19
ATOM     19  C   UNL     1      36.533  24.041  57.488  0.00  0.00    +0.119 C 
BRANCH  19  20
ATOM     20  N   UNL     1      35.998  25.167  58.309  0.00  0.00    -0.302 NA
ATOM     21  C   UNL     1      34.492  25.035  58.553  0.00  0.00    +0.066 C 
ATOM     22  C   UNL     1      33.953  26.210  59.433  0.00  0.00    -0.064 C 
ATOM     23  N   UNL     1      34.276  27.542  58.754  0.00  0.00    +0.379 N 
ATOM     24  C   UNL     1      33.720  28.646  59.549  0.00  0.00    -0.096 C 
ATOM     25  H   UNL     1      33.766  27.548  57.763  0.00  0.00    -0.082 HD
ATOM     26  C   UNL     1      35.771  27.680  58.504  0.00  0.00    -0.064 C 
ATOM     27  C   UNL     1      36.302  26.492  57.654  0.00  0.00    +0.066 C 
ENDBRANCH  19  20
ENDBRANCH  18  19
ENDBRANCH  14  15
ENDBRANCH  12  13
TORSDOF 6
ENDMDL
MODEL 5
REMARK VINA RESULT:      -9.1      2.673     12.434
REMARK  Name = C:\Users\Docking\Desktop\test protocol\1iep_ligandH.pdb
REMARK  8 active torsions:
REMARK  status: ('A' for Active; 'I' for Inactive)
REMARK    1  A    between atoms: _5  and  _11
REMARK    2  A    between atoms: _19  and  _21
REMARK    3  A    between atoms: _22  and  _66
REMARK    4  A    between atoms: _27  and  _30
REMARK    5  A    between atoms: _32  and  _33
REMARK    6  A    between atoms: _38  and  _43
REMARK    7  A    between atoms: _43  and  _46
REMARK    8  A    between atoms: _53  and  _55
REMARK                            x       y       z     vdW  Elec       q    Type
REMARK                         _______ _______ _______ _____ _____    ______ ____
ROOT
ATOM     10  C   UNL     1      45.803  24.603  44.970  0.00  0.00    +0.038 A 
ATOM     11  C   UNL     1      47.030  24.656  44.261  0.00  0.00    +0.047 A 
ATOM     12  C   UNL     1      47.221  25.582  43.156  0.00  0.00    +0.035 A 
ATOM     32  C   UNL     1      46.141  26.443  42.801  0.00  0.00    +0.024 A 
ATOM     33  C   UNL     1      44.887  26.402  43.511  0.00  0.00    +0.007 A 
ATOM     34  C   UNL     1      44.692  25.488  44.600  0.00  0.00    -0.029 A 
ATOM     35  C   UNL     1      43.324  25.483  45.321  0.00  0.00    +0.045 C 
ENDROOT
BRANCH  10   9
ATOM      4  C   UNL     1      45.528  23.554  49.646  0.00  0.00    +0.077 A 
ATOM      5  C   UNL     1      45.680  24.929  50.024  0.00  0.00    +0.048 A 
ATOM      6  C   UNL     1      45.833  25.874  48.985  0.00  0.00    +0.116 A 
ATOM      7  N   UNL     1      45.833  25.464  47.670  0.00  0.00    -0.223 NA
ATOM      8  C   UNL     1      45.686  24.129  47.339  0.00  0.00    +0.220 A 
ATOM      9  N   UNL     1      45.674  23.694  46.023  0.00  0.00    -0.283 N 
ATOM     36  H   UNL     1      45.571  22.700  45.821  0.00  0.00    +0.155 HD
ATOM     37  N   UNL     1      45.539  23.207  48.313  0.00  0.00    -0.214 NA
BRANCH   4   3
ATOM      1  C   UNL     1      44.837  20.040  51.220  0.00  0.00    +0.020 A 
ATOM      2  C   UNL     1      44.993  21.082  50.231  0.00  0.00    +0.013 A 
ATOM      3  C   UNL     1      45.352  22.437  50.628  0.00  0.00    +0.019 A 
ATOM     38  C   UNL     1      45.548  22.708  52.044  0.00  0.00    +0.120 A 
ATOM     39  N   UNL     1      45.389  21.685  52.974  0.00  0.00    -0.263 NA
ATOM     40  C   UNL     1      45.042  20.377  52.604  0.00  0.00    +0.111 A 
ENDBRANCH   4   3
ENDBRANCH  10   9
BRANCH  12  13
ATOM     13  N   UNL     1      48.441  25.675  42.393  0.00  0.00    -0.281 N 
ATOM     14  C   UNL     1      49.689  25.168  42.718  0.00  0.00    +0.248 C 
ATOM     30  O   UNL     1      49.995  24.739  43.821  0.00  0.00    -0.270 OA
ATOM     31  H   UNL     1      48.378  26.176  41.507  0.00  0.00    +0.155 HD
BRANCH  14  15
ATOM     15  C   UNL     1      50.755  25.148  41.671  0.00  0.00    +0.037 A 
ATOM     16  C   UNL     1      50.868  26.222  40.680  0.00  0.00    +0.013 A 
ATOM     17  C   UNL     1      51.895  26.169  39.670  0.00  0.00    +0.005 A 
ATOM     18  C   UNL     1      52.819  25.038  39.647  0.00  0.00    -0.033 A 
ATOM     28  C   UNL     1      52.688  23.989  40.644  0.00  0.00    +0.005 A 
ATOM     29  C   UNL     1      51.682  24.037  41.635  0.00  0.00    +0.013 A 
BRANCH  18  19
ATOM     19  C   UNL     1      53.932  24.889  38.592  0.00  0.00    +0.119 C 
BRANCH  19  20
ATOM     20  N   UNL     1      53.511  24.588  37.192  0.00  0.00    -0.302 NA
ATOM     21  C   UNL     1      53.518  23.085  36.900  0.00  0.00    +0.066 C 
ATOM     22  C   UNL     1      53.053  22.787  35.437  0.00  0.00    -0.064 C 
ATOM     23  N   UNL     1      53.958  23.533  34.455  0.00  0.00    +0.379 N 
ATOM     24  C   UNL     1      53.560  23.209  33.078  0.00  0.00    -0.096 C 
ATOM     25  H   UNL     1      54.998  23.160  34.604  0.00  0.00    -0.082 HD
ATOM     26  C   UNL     1      53.958  25.029  34.740  0.00  0.00    -0.064 C 
ATOM     27  C   UNL     1      54.393  25.312  36.205  0.00  0.00    +0.066 C 
ENDBRANCH  19  20
ENDBRANCH  18  19
ENDBRANCH  14  15
ENDBRANCH  12  13
TORSDOF 6
ENDMDL
