MODEL 1
REMARK VINA RESULT:      -8.9      0.000      0.000
REMARK  Name = C:\Users\Docking\Desktop\test protocol\1iep_ligandH.pdb
REMARK  8 active torsions:
REMARK  status: ('A' for Active; 'I' for Inactive)
REMARK    1  A    between atoms: _5  and  _11
REMARK    2  A    between atoms: _19  and  _21
REMARK    3  A    between atoms: _22  and  _66
REMARK    4  A    between atoms: _27  and  _30
REMARK    5  A    between atoms: _32  and  _33
REMARK    6  A    between atoms: _38  and  _43
REMARK    7  A    between atoms: _43  and  _46
REMARK    8  A    between atoms: _53  and  _55
REMARK                            x       y       z     vdW  Elec       q    Type
REMARK                         _______ _______ _______ _____ _____    ______ ____
ROOT
ATOM     10  C   UNL     1      -0.925  33.910  15.592  0.00  0.00    +0.038 A 
ATOM     11  C   UNL     1      -0.663  32.768  16.391  0.00  0.00    +0.047 A 
ATOM     12  C   UNL     1       0.330  31.782  15.992  0.00  0.00    +0.035 A 
ATOM     32  C   UNL     1       1.040  31.993  14.774  0.00  0.00    +0.024 A 
ATOM     33  C   UNL     1       0.785  33.148  13.949  0.00  0.00    +0.007 A 
ATOM     34  C   UNL     1      -0.195  34.122  14.336  0.00  0.00    -0.029 A 
ATOM     35  C   UNL     1      -0.432  35.337  13.410  0.00  0.00    +0.045 C 
ENDROOT
BRANCH  10   9
ATOM      4  C   UNL     1      -2.683  37.004  18.813  0.00  0.00    +0.077 A 
ATOM      5  C   UNL     1      -1.604  36.758  19.726  0.00  0.00    +0.048 A 
ATOM      6  C   UNL     1      -0.621  35.823  19.332  0.00  0.00    +0.116 A 
ATOM      7  N   UNL     1      -0.720  35.187  18.113  0.00  0.00    -0.223 NA
ATOM      8  C   UNL     1      -1.774  35.446  17.257  0.00  0.00    +0.220 A 
ATOM      9  N   UNL     1      -1.889  34.824  16.023  0.00  0.00    -0.283 N 
ATOM     36  H   UNL     1      -2.686  35.037  15.424  0.00  0.00    +0.155 HD
ATOM     37  N   UNL     1      -2.727  36.334  17.611  0.00  0.00    -0.214 NA
BRANCH   4   3
ATOM      1  C   UNL     1      -6.076  38.940  18.613  0.00  0.00    +0.020 A 
ATOM      2  C   UNL     1      -5.031  37.990  18.309  0.00  0.00    +0.013 A 
ATOM      3  C   UNL     1      -3.797  37.967  19.085  0.00  0.00    +0.019 A 
ATOM     38  C   UNL     1      -3.652  38.925  20.170  0.00  0.00    +0.120 A 
ATOM     39  N   UNL     1      -4.675  39.829  20.439  0.00  0.00    -0.263 NA
ATOM     40  C   UNL     1      -5.866  39.862  19.698  0.00  0.00    +0.111 A 
ENDBRANCH   4   3
ENDBRANCH  10   9
BRANCH  12  13
ATOM     13  N   UNL     1       0.634  30.599  16.759  0.00  0.00    -0.281 N 
ATOM     14  C   UNL     1       0.691  30.469  18.137  0.00  0.00    +0.248 C 
ATOM     30  O   UNL     1       0.700  31.407  18.920  0.00  0.00    -0.270 OA
ATOM     31  H   UNL     1       0.830  29.756  16.220  0.00  0.00    +0.155 HD
BRANCH  14  15
ATOM     15  C   UNL     1       0.765  29.099  18.730  0.00  0.00    +0.037 A 
ATOM     16  C   UNL     1       1.963  28.270  18.581  0.00  0.00    +0.013 A 
ATOM     17  C   UNL     1       2.001  26.945  19.148  0.00  0.00    +0.005 A 
ATOM     18  C   UNL     1       0.836  26.442  19.872  0.00  0.00    -0.033 A 
ATOM     28  C   UNL     1      -0.338  27.288  20.009  0.00  0.00    +0.005 A 
ATOM     29  C   UNL     1      -0.379  28.586  19.454  0.00  0.00    +0.013 A 
BRANCH  18  19
ATOM     19  C   UNL     1       0.781  25.033  20.492  0.00  0.00    +0.119 C 
BRANCH  19  20
ATOM     20  N   UNL     1       1.577  24.801  21.734  0.00  0.00    -0.302 NA
ATOM     21  C   UNL     1       2.059  23.352  21.845  0.00  0.00    +0.066 C 
ATOM     22  C   UNL     1       2.909  23.132  23.138  0.00  0.00    -0.064 C 
ATOM     23  N   UNL     1       2.079  23.522  24.363  0.00  0.00    +0.379 N 
ATOM     24  C   UNL     1       2.854  23.261  25.584  0.00  0.00    -0.096 C 
ATOM     25  H   UNL     1       1.180  22.862  24.386  0.00  0.00    -0.082 HD
ATOM     26  C   UNL     1       1.593  24.960  24.260  0.00  0.00    -0.064 C 
ATOM     27  C   UNL     1       0.774  25.175  22.956  0.00  0.00    +0.066 C 
ENDBRANCH  19  20
ENDBRANCH  18  19
ENDBRANCH  14  15
ENDBRANCH  12  13
TORSDOF 6
ENDMDL
MODEL 2
REMARK VINA RESULT:      -8.9      1.876      2.713
REMARK  Name = C:\Users\Docking\Desktop\test protocol\1iep_ligandH.pdb
REMARK  8 active torsions:
REMARK  status: ('A' for Active; 'I' for Inactive)
REMARK    1  A    between atoms: _5  and  _11
REMARK    2  A    between atoms: _19  and  _21
REMARK    3  A    between atoms: _22  and  _66
REMARK    4  A    between atoms: _27  and  _30
REMARK    5  A    between atoms: _32  and  _33
REMARK    6  A    between atoms: _38  and  _43
REMARK    7  A    between atoms: _43  and  _46
REMARK    8  A    between atoms: _53  and  _55
REMARK                            x       y       z     vdW  Elec       q    Type
REMARK                         _______ _______ _______ _____ _____    ______ ____
ROOT
ATOM     10  C   UNL     1      -0.983  33.855  15.767  0.00  0.00    +0.038 A 
ATOM     11  C   UNL     1      -0.606  32.706  16.509  0.00  0.00    +0.047 A 
ATOM     12  C   UNL     1       0.452  31.824  16.044  0.00  0.00    +0.035 A 
ATOM     32  C   UNL     1       1.108  32.142  14.819  0.00  0.00    +0.024 A 
ATOM     33  C   UNL     1       0.737  33.305  14.051  0.00  0.00    +0.007 A 
ATOM     34  C   UNL     1      -0.308  34.178  14.504  0.00  0.00    -0.029 A 
ATOM     35  C   UNL     1      -0.669  35.406  13.637  0.00  0.00    +0.045 C 
ENDROOT
BRANCH  10   9
ATOM      4  C   UNL     1      -2.796  36.856  19.044  0.00  0.00    +0.077 A 
ATOM      5  C   UNL     1      -1.616  36.777  19.855  0.00  0.00    +0.048 A 
ATOM      6  C   UNL     1      -0.568  35.948  19.397  0.00  0.00    +0.116 A 
ATOM      7  N   UNL     1      -0.701  35.253  18.215  0.00  0.00    -0.223 NA
ATOM      8  C   UNL     1      -1.854  35.350  17.457  0.00  0.00    +0.220 A 
ATOM      9  N   UNL     1      -2.006  34.667  16.260  0.00  0.00    -0.283 N 
ATOM     36  H   UNL     1      -2.875  34.759  15.734  0.00  0.00    +0.155 HD
ATOM     37  N   UNL     1      -2.869  36.135  17.873  0.00  0.00    -0.214 NA
BRANCH   4   3
ATOM      1  C   UNL     1      -5.165  39.441  20.779  0.00  0.00    +0.020 A 
ATOM      2  C   UNL     1      -3.987  38.658  20.485  0.00  0.00    +0.013 A 
ATOM      3  C   UNL     1      -3.988  37.693  19.392  0.00  0.00    +0.019 A 
ATOM     38  C   UNL     1      -5.206  37.544  18.610  0.00  0.00    +0.120 A 
ATOM     39  N   UNL     1      -6.326  38.311  18.918  0.00  0.00    -0.263 NA
ATOM     40  C   UNL     1      -6.337  39.242  19.968  0.00  0.00    +0.111 A 
ENDBRANCH   4   3
ENDBRANCH  10   9
BRANCH  12  13
ATOM     13  N   UNL     1       0.873  30.639  16.751  0.00  0.00    -0.281 N 
ATOM     14  C   UNL     1       0.881  30.422  18.119  0.00  0.00    +0.248 C 
ATOM     30  O   UNL     1       0.727  31.296  18.958  0.00  0.00    -0.270 OA
ATOM     31  H   UNL     1       1.204  29.867  16.172  0.00  0.00    +0.155 HD
BRANCH  14  15
ATOM     15  C   UNL     1       1.106  29.035  18.628  0.00  0.00    +0.037 A 
ATOM     16  C   UNL     1       0.357  28.515  19.775  0.00  0.00    +0.013 A 
ATOM     17  C   UNL     1       0.606  27.180  20.257  0.00  0.00    +0.005 A 
ATOM     18  C   UNL     1       1.609  26.354  19.590  0.00  0.00    -0.033 A 
ATOM     28  C   UNL     1       2.335  26.892  18.451  0.00  0.00    +0.005 A 
ATOM     29  C   UNL     1       2.094  28.201  17.977  0.00  0.00    +0.013 A 
BRANCH  18  19
ATOM     19  C   UNL     1       1.956  24.925  20.049  0.00  0.00    +0.119 C 
BRANCH  19  20
ATOM     20  N   UNL     1       1.244  23.798  19.375  0.00  0.00    -0.302 NA
ATOM     21  C   UNL     1      -0.219  23.697  19.815  0.00  0.00    +0.066 C 
ATOM     22  C   UNL     1      -0.954  22.528  19.083  0.00  0.00    -0.064 C 
ATOM     23  N   UNL     1      -0.215  21.216  19.353  0.00  0.00    +0.379 N 
ATOM     24  C   UNL     1      -0.937  20.106  18.714  0.00  0.00    -0.096 C 
ATOM     25  H   UNL     1      -0.230  21.040  20.454  0.00  0.00    -0.082 HD
ATOM     26  C   UNL     1       1.241  21.309  18.920  0.00  0.00    -0.064 C 
ATOM     27  C   UNL     1       1.955  22.492  19.632  0.00  0.00    +0.066 C 
ENDBRANCH  19  20
ENDBRANCH  18  19
ENDBRANCH  14  15
ENDBRANCH  12  13
TORSDOF 6
ENDMDL
MODEL 3
REMARK VINA RESULT:      -8.8      2.693     13.920
REMARK  Name = C:\Users\Docking\Desktop\test protocol\1iep_ligandH.pdb
REMARK  8 active torsions:
REMARK  status: ('A' for Active; 'I' for Inactive)
REMARK    1  A    between atoms: _5  and  _11
REMARK    2  A    between atoms: _19  and  _21
REMARK    3  A    between atoms: _22  and  _66
REMARK    4  A    between atoms: _27  and  _30
REMARK    5  A    between atoms: _32  and  _33
REMARK    6  A    between atoms: _38  and  _43
REMARK    7  A    between atoms: _43  and  _46
REMARK    8  A    between atoms: _53  and  _55
REMARK                            x       y       z     vdW  Elec       q    Type
REMARK                         _______ _______ _______ _____ _____    ______ ____
ROOT
ATOM     10  C   UNL     1       1.513  23.293  22.358  0.00  0.00    +0.038 A 
ATOM     11  C   UNL     1       1.778  24.502  21.665  0.00  0.00    +0.047 A 
ATOM     12  C   UNL     1       0.719  25.222  20.975  0.00  0.00    +0.035 A 
ATOM     32  C   UNL     1      -0.600  24.682  21.012  0.00  0.00    +0.024 A 
ATOM     33  C   UNL     1      -0.887  23.454  21.710  0.00  0.00    +0.007 A 
ATOM     34  C   UNL     1       0.154  22.739  22.391  0.00  0.00    -0.029 A 
ATOM     35  C   UNL     1      -0.210  21.423  23.118  0.00  0.00    +0.045 C 
ENDROOT
BRANCH  10   9
ATOM      4  C   UNL     1       4.364  22.596  26.155  0.00  0.00    +0.077 A 
ATOM      5  C   UNL     1       3.716  23.632  26.907  0.00  0.00    +0.048 A 
ATOM      6  C   UNL     1       2.657  24.325  26.277  0.00  0.00    +0.116 A 
ATOM      7  N   UNL     1       2.284  23.998  24.992  0.00  0.00    -0.223 NA
ATOM      8  C   UNL     1       2.932  22.995  24.294  0.00  0.00    +0.220 A 
ATOM      9  N   UNL     1       2.568  22.644  23.003  0.00  0.00    -0.283 N 
ATOM     36  H   UNL     1       3.075  21.903  22.520  0.00  0.00    +0.155 HD
ATOM     37  N   UNL     1       3.946  22.319  24.873  0.00  0.00    -0.214 NA
BRANCH   4   3
ATOM      1  C   UNL     1       7.809  20.778  26.514  0.00  0.00    +0.020 A 
ATOM      2  C   UNL     1       6.746  21.584  25.958  0.00  0.00    +0.013 A 
ATOM      3  C   UNL     1       5.497  21.772  26.685  0.00  0.00    +0.019 A 
ATOM     38  C   UNL     1       5.354  21.128  27.981  0.00  0.00    +0.120 A 
ATOM     39  N   UNL     1       6.394  20.357  28.491  0.00  0.00    -0.263 NA
ATOM     40  C   UNL     1       7.600  20.167  27.801  0.00  0.00    +0.111 A 
ENDBRANCH   4   3
ENDBRANCH  10   9
BRANCH  12  13
ATOM     13  N   UNL     1       0.930  26.450  20.249  0.00  0.00    -0.281 N 
ATOM     14  C   UNL     1       1.765  26.665  19.164  0.00  0.00    +0.248 C 
ATOM     30  O   UNL     1       2.623  25.881  18.786  0.00  0.00    -0.270 OA
ATOM     31  H   UNL     1       0.400  27.258  20.574  0.00  0.00    +0.155 HD
BRANCH  14  15
ATOM     15  C   UNL     1       1.638  27.942  18.398  0.00  0.00    +0.037 A 
ATOM     16  C   UNL     1       2.655  28.348  17.424  0.00  0.00    +0.013 A 
ATOM     17  C   UNL     1       2.517  29.593  16.711  0.00  0.00    +0.005 A 
ATOM     18  C   UNL     1       1.356  30.441  16.969  0.00  0.00    -0.033 A 
ATOM     28  C   UNL     1       0.360  30.012  17.937  0.00  0.00    +0.005 A 
ATOM     29  C   UNL     1       0.493  28.793  18.639  0.00  0.00    +0.013 A 
BRANCH  18  19
ATOM     19  C   UNL     1       1.138  31.796  16.270  0.00  0.00    +0.119 C 
BRANCH  19  20
ATOM     20  N   UNL     1       0.018  32.650  16.767  0.00  0.00    -0.302 NA
ATOM     21  C   UNL     1      -0.594  33.501  15.651  0.00  0.00    +0.066 C 
ATOM     22  C   UNL     1      -1.780  34.371  16.183  0.00  0.00    -0.064 C 
ATOM     23  N   UNL     1      -1.285  35.255  17.329  0.00  0.00    +0.379 N 
ATOM     24  C   UNL     1      -2.383  36.116  17.794  0.00  0.00    -0.096 C 
ATOM     25  H   UNL     1      -0.484  35.916  16.924  0.00  0.00    -0.082 HD
ATOM     26  C   UNL     1      -0.672  34.416  18.442  0.00  0.00    -0.064 C 
ATOM     27  C   UNL     1       0.485  33.534  17.896  0.00  0.00    +0.066 C 
ENDBRANCH  19  20
ENDBRANCH  18  19
ENDBRANCH  14  15
ENDBRANCH  12  13
TORSDOF 6
ENDMDL
MODEL 4
REMARK VINA RESULT:      -8.8     20.622     25.666
REMARK  Name = C:\Users\Docking\Desktop\test protocol\1iep_ligandH.pdb
REMARK  8 active torsions:
REMARK  status: ('A' for Active; 'I' for Inactive)
REMARK    1  A    between atoms: _5  and  _11
REMARK    2  A    between atoms: _19  and  _21
REMARK    3  A    between atoms: _22  and  _66
REMARK    4  A    between atoms: _27  and  _30
REMARK    5  A    between atoms: _32  and  _33
REMARK    6  A    between atoms: _38  and  _43
REMARK    7  A    between atoms: _43  and  _46
REMARK    8  A    between atoms: _53  and  _55
REMARK                            x       y       z     vdW  Elec       q    Type
REMARK                         _______ _______ _______ _____ _____    ______ ____
ROOT
ATOM     10  C   UNL     1      10.642  31.007  -2.043  0.00  0.00    +0.038 A 
ATOM     11  C   UNL     1      11.201  31.562  -0.864  0.00  0.00    +0.047 A 
ATOM     12  C   UNL     1      10.941  32.943  -0.487  0.00  0.00    +0.035 A 
ATOM     32  C   UNL     1      10.105  33.729  -1.333  0.00  0.00    +0.024 A 
ATOM     33  C   UNL     1       9.530  33.180  -2.536  0.00  0.00    +0.007 A 
ATOM     34  C   UNL     1       9.785  31.820  -2.914  0.00  0.00    -0.029 A 
ATOM     35  C   UNL     1       9.147  31.287  -4.218  0.00  0.00    +0.045 C 
ENDROOT
BRANCH  10   9
ATOM      4  C   UNL     1      13.340  27.632  -4.134  0.00  0.00    +0.077 A 
ATOM      5  C   UNL     1      14.248  28.605  -4.668  0.00  0.00    +0.048 A 
ATOM      6  C   UNL     1      13.982  29.964  -4.388  0.00  0.00    +0.116 A 
ATOM      7  N   UNL     1      12.886  30.312  -3.628  0.00  0.00    -0.223 NA
ATOM      8  C   UNL     1      12.028  29.348  -3.130  0.00  0.00    +0.220 A 
ATOM      9  N   UNL     1      10.925  29.675  -2.358  0.00  0.00    -0.283 N 
ATOM     36  H   UNL     1      10.312  28.936  -2.015  0.00  0.00    +0.155 HD
ATOM     37  N   UNL     1      12.260  28.044  -3.385  0.00  0.00    -0.214 NA
BRANCH   4   3
ATOM      1  C   UNL     1      13.671  23.787  -3.494  0.00  0.00    +0.020 A 
ATOM      2  C   UNL     1      13.526  25.202  -3.240  0.00  0.00    +0.013 A 
ATOM      3  C   UNL     1      13.488  26.156  -4.341  0.00  0.00    +0.019 A 
ATOM     38  C   UNL     1      13.600  25.642  -5.698  0.00  0.00    +0.120 A 
ATOM     39  N   UNL     1      13.740  24.275  -5.912  0.00  0.00    -0.263 NA
ATOM     40  C   UNL     1      13.779  23.347  -4.860  0.00  0.00    +0.111 A 
ENDBRANCH   4   3
ENDBRANCH  10   9
BRANCH  12  13
ATOM     13  N   UNL     1      11.487  33.564   0.695  0.00  0.00    -0.281 N 
ATOM     14  C   UNL     1      12.284  34.694   0.772  0.00  0.00    +0.248 C 
ATOM     30  O   UNL     1      12.828  35.223  -0.187  0.00  0.00    -0.270 OA
ATOM     31  H   UNL     1      11.258  33.116   1.582  0.00  0.00    +0.155 HD
BRANCH  14  15
ATOM     15  C   UNL     1      12.523  35.319   2.108  0.00  0.00    +0.037 A 
ATOM     16  C   UNL     1      12.181  34.617   3.348  0.00  0.00    +0.013 A 
ATOM     17  C   UNL     1      12.407  35.250   4.623  0.00  0.00    +0.005 A 
ATOM     18  C   UNL     1      12.980  36.593   4.665  0.00  0.00    -0.033 A 
ATOM     28  C   UNL     1      13.315  37.265   3.420  0.00  0.00    +0.005 A 
ATOM     29  C   UNL     1      13.094  36.648   2.168  0.00  0.00    +0.013 A 
BRANCH  18  19
ATOM     19  C   UNL     1      13.235  37.353   5.980  0.00  0.00    +0.119 C 
BRANCH  19  20
ATOM     20  N   UNL     1      13.549  38.810   5.878  0.00  0.00    -0.302 NA
ATOM     21  C   UNL     1      15.018  39.104   6.193  0.00  0.00    +0.066 C 
ATOM     22  C   UNL     1      15.334  40.629   6.060  0.00  0.00    -0.064 C 
ATOM     23  N   UNL     1      14.412  41.421   6.988  0.00  0.00    +0.379 N 
ATOM     24  C   UNL     1      14.746  42.851   6.909  0.00  0.00    -0.096 C 
ATOM     25  H   UNL     1      14.613  41.084   8.032  0.00  0.00    -0.082 HD
ATOM     26  C   UNL     1      12.949  41.132   6.684  0.00  0.00    -0.064 C 
ATOM     27  C   UNL     1      12.652  39.610   6.790  0.00  0.00    +0.066 C 
ENDBRANCH  19  20
ENDBRANCH  18  19
ENDBRANCH  14  15
ENDBRANCH  12  13
TORSDOF 6
ENDMDL
MODEL 5
REMARK VINA RESULT:      -8.5      1.691      2.277
REMARK  Name = C:\Users\Docking\Desktop\test protocol\1iep_ligandH.pdb
REMARK  8 active torsions:
REMARK  status: ('A' for Active; 'I' for Inactive)
REMARK    1  A    between atoms: _5  and  _11
REMARK    2  A    between atoms: _19  and  _21
REMARK    3  A    between atoms: _22  and  _66
REMARK    4  A    between atoms: _27  and  _30
REMARK    5  A    between atoms: _32  and  _33
REMARK    6  A    between atoms: _38  and  _43
REMARK    7  A    between atoms: _43  and  _46
REMARK    8  A    between atoms: _53  and  _55
REMARK                            x       y       z     vdW  Elec       q    Type
REMARK                         _______ _______ _______ _____ _____    ______ ____
ROOT
ATOM     10  C   UNL     1      -1.043  34.355  15.292  0.00  0.00    +0.038 A 
ATOM     11  C   UNL     1      -0.948  33.385  16.322  0.00  0.00    +0.047 A 
ATOM     12  C   UNL     1       0.003  32.287  16.236  0.00  0.00    +0.035 A 
ATOM     32  C   UNL     1       0.843  32.209  15.087  0.00  0.00    +0.024 A 
ATOM     33  C   UNL     1       0.759  33.186  14.030  0.00  0.00    +0.007 A 
ATOM     34  C   UNL     1      -0.178  34.270  14.108  0.00  0.00    -0.029 A 
ATOM     35  C   UNL     1      -0.230  35.285  12.943  0.00  0.00    +0.045 C 
ENDROOT
BRANCH  10   9
ATOM      4  C   UNL     1      -3.148  37.854  17.814  0.00  0.00    +0.077 A 
ATOM      5  C   UNL     1      -2.345  37.583  18.972  0.00  0.00    +0.048 A 
ATOM      6  C   UNL     1      -1.407  36.531  18.879  0.00  0.00    +0.116 A 
ATOM      7  N   UNL     1      -1.289  35.809  17.711  0.00  0.00    -0.223 NA
ATOM      8  C   UNL     1      -2.080  36.095  16.613  0.00  0.00    +0.220 A 
ATOM      9  N   UNL     1      -1.973  35.388  15.426  0.00  0.00    -0.283 N 
ATOM     36  H   UNL     1      -2.580  35.625  14.642  0.00  0.00    +0.155 HD
ATOM     37  N   UNL     1      -2.985  37.094  16.677  0.00  0.00    -0.214 NA
BRANCH   4   3
ATOM      1  C   UNL     1      -5.697  40.514  16.501  0.00  0.00    +0.020 A 
ATOM      2  C   UNL     1      -4.700  39.469  16.502  0.00  0.00    +0.013 A 
ATOM      3  C   UNL     1      -4.181  38.936  17.756  0.00  0.00    +0.019 A 
ATOM     38  C   UNL     1      -4.697  39.486  19.000  0.00  0.00    +0.120 A 
ATOM     39  N   UNL     1      -5.657  40.493  18.968  0.00  0.00    -0.263 NA
ATOM     40  C   UNL     1      -6.162  41.015  17.768  0.00  0.00    +0.111 A 
ENDBRANCH   4   3
ENDBRANCH  10   9
BRANCH  12  13
ATOM     13  N   UNL     1       0.139  31.268  17.247  0.00  0.00    -0.281 N 
ATOM     14  C   UNL     1      -0.826  30.383  17.700  0.00  0.00    +0.248 C 
ATOM     30  O   UNL     1      -2.019  30.477  17.454  0.00  0.00    -0.270 OA
ATOM     31  H   UNL     1       1.059  31.189  17.681  0.00  0.00    +0.155 HD
BRANCH  14  15
ATOM     15  C   UNL     1      -0.407  29.237  18.563  0.00  0.00    +0.037 A 
ATOM     16  C   UNL     1       1.002  28.852  18.684  0.00  0.00    +0.013 A 
ATOM     17  C   UNL     1       1.377  27.732  19.509  0.00  0.00    +0.005 A 
ATOM     18  C   UNL     1       0.340  26.989  20.223  0.00  0.00    -0.033 A 
ATOM     28  C   UNL     1      -1.049  27.396  20.089  0.00  0.00    +0.005 A 
ATOM     29  C   UNL     1      -1.420  28.493  19.280  0.00  0.00    +0.013 A 
BRANCH  18  19
ATOM     19  C   UNL     1       0.647  25.768  21.110  0.00  0.00    +0.119 C 
BRANCH  19  20
ATOM     20  N   UNL     1       0.885  24.465  20.420  0.00  0.00    -0.302 NA
ATOM     21  C   UNL     1       1.074  23.315  21.413  0.00  0.00    +0.066 C 
ATOM     22  C   UNL     1       1.299  21.955  20.675  0.00  0.00    -0.064 C 
ATOM     23  N   UNL     1       2.511  22.076  19.749  0.00  0.00    +0.379 N 
ATOM     24  C   UNL     1       2.760  20.782  19.097  0.00  0.00    -0.096 C 
ATOM     25  H   UNL     1       3.398  22.312  20.382  0.00  0.00    -0.082 HD
ATOM     26  C   UNL     1       2.333  23.219  18.759  0.00  0.00    -0.064 C 
ATOM     27  C   UNL     1       2.080  24.560  19.503  0.00  0.00    +0.066 C 
ENDBRANCH  19  20
ENDBRANCH  18  19
ENDBRANCH  14  15
ENDBRANCH  12  13
TORSDOF 6
ENDMDL
