MODEL 1
REMARK VINA RESULT:     -10.8      0.000      0.000
REMARK  Name = C:\Users\Docking\Desktop\test protocol\1iep_ligandH.pdb
REMARK  8 active torsions:
REMARK  status: ('A' for Active; 'I' for Inactive)
REMARK    1  A    between atoms: _5  and  _11
REMARK    2  A    between atoms: _19  and  _21
REMARK    3  A    between atoms: _22  and  _66
REMARK    4  A    between atoms: _27  and  _30
REMARK    5  A    between atoms: _32  and  _33
REMARK    6  A    between atoms: _38  and  _43
REMARK    7  A    between atoms: _43  and  _46
REMARK    8  A    between atoms: _53  and  _55
REMARK                            x       y       z     vdW  Elec       q    Type
REMARK                         _______ _______ _______ _____ _____    ______ ____
ROOT
ATOM     10  C   UNL     1       2.239  -4.658   5.786  0.00  0.00    +0.038 A 
ATOM     11  C   UNL     1       3.483  -4.857   6.438  0.00  0.00    +0.047 A 
ATOM     12  C   UNL     1       3.995  -6.195   6.691  0.00  0.00    +0.035 A 
ATOM     32  C   UNL     1       3.214  -7.308   6.264  0.00  0.00    +0.024 A 
ATOM     33  C   UNL     1       1.947  -7.125   5.602  0.00  0.00    +0.007 A 
ATOM     34  C   UNL     1       1.436  -5.807   5.351  0.00  0.00    -0.029 A 
ATOM     35  C   UNL     1       0.069  -5.670   4.643  0.00  0.00    +0.045 C 
ENDROOT
BRANCH  10   9
ATOM      4  C   UNL     1       1.056  -1.017   2.891  0.00  0.00    +0.077 A 
ATOM      5  C   UNL     1       1.373  -1.773   1.713  0.00  0.00    +0.048 A 
ATOM      6  C   UNL     1       1.844  -3.092   1.896  0.00  0.00    +0.116 A 
ATOM      7  N   UNL     1       1.984  -3.607   3.167  0.00  0.00    -0.223 NA
ATOM      8  C   UNL     1       1.671  -2.851   4.281  0.00  0.00    +0.220 A 
ATOM      9  N   UNL     1       1.796  -3.352   5.568  0.00  0.00    -0.283 N 
ATOM     36  H   UNL     1       1.562  -2.759   6.365  0.00  0.00    +0.155 HD
ATOM     37  N   UNL     1       1.220  -1.588   4.133  0.00  0.00    -0.214 NA
BRANCH   4   3
ATOM      1  C   UNL     1      -1.204   2.121   2.305  0.00  0.00    +0.020 A 
ATOM      2  C   UNL     1      -0.756   0.748   2.309  0.00  0.00    +0.013 A 
ATOM      3  C   UNL     1       0.544   0.389   2.861  0.00  0.00    +0.019 A 
ATOM     38  C   UNL     1       1.373   1.453   3.408  0.00  0.00    +0.120 A 
ATOM     39  N   UNL     1       0.917   2.767   3.389  0.00  0.00    -0.263 NA
ATOM     40  C   UNL     1      -0.332   3.124   2.858  0.00  0.00    +0.111 A 
ENDBRANCH   4   3
ENDBRANCH  10   9
BRANCH  12  13
ATOM     13  N   UNL     1       5.247  -6.458   7.355  0.00  0.00    -0.281 N 
ATOM     14  C   UNL     1       5.445  -6.956   8.633  0.00  0.00    +0.248 C 
ATOM     30  O   UNL     1       4.571  -7.051   9.481  0.00  0.00    -0.270 OA
ATOM     31  H   UNL     1       6.090  -6.252   6.819  0.00  0.00    +0.155 HD
BRANCH  14  15
ATOM     15  C   UNL     1       6.816  -7.400   9.030  0.00  0.00    +0.037 A 
ATOM     16  C   UNL     1       7.908  -7.462   8.055  0.00  0.00    +0.013 A 
ATOM     17  C   UNL     1       9.216  -7.910   8.461  0.00  0.00    +0.005 A 
ATOM     18  C   UNL     1       9.440  -8.299   9.851  0.00  0.00    -0.033 A 
ATOM     28  C   UNL     1       8.341  -8.223  10.799  0.00  0.00    +0.005 A 
ATOM     29  C   UNL     1       7.057  -7.785  10.404  0.00  0.00    +0.013 A 
BRANCH  18  19
ATOM     19  C   UNL     1      10.798  -8.809  10.368  0.00  0.00    +0.119 C 
BRANCH  19  20
ATOM     20  N   UNL     1      11.704  -9.466   9.378  0.00  0.00    -0.302 NA
ATOM     21  C   UNL     1      11.098 -10.754   8.812  0.00  0.00    +0.066 C 
ATOM     22  C   UNL     1      12.048 -11.416   7.762  0.00  0.00    -0.064 C 
ATOM     23  N   UNL     1      13.405 -11.695   8.411  0.00  0.00    +0.379 N 
ATOM     24  C   UNL     1      14.282 -12.371   7.443  0.00  0.00    -0.096 C 
ATOM     25  H   UNL     1      13.235 -12.397   9.261  0.00  0.00    -0.082 HD
ATOM     26  C   UNL     1      14.013 -10.421   8.979  0.00  0.00    -0.064 C 
ATOM     27  C   UNL     1      13.048  -9.755   9.999  0.00  0.00    +0.066 C 
ENDBRANCH  19  20
ENDBRANCH  18  19
ENDBRANCH  14  15
ENDBRANCH  12  13
TORSDOF 6
ENDMDL
MODEL 2
REMARK VINA RESULT:     -10.7      2.410      3.798
REMARK  Name = C:\Users\Docking\Desktop\test protocol\1iep_ligandH.pdb
REMARK  8 active torsions:
REMARK  status: ('A' for Active; 'I' for Inactive)
REMARK    1  A    between atoms: _5  and  _11
REMARK    2  A    between atoms: _19  and  _21
REMARK    3  A    between atoms: _22  and  _66
REMARK    4  A    between atoms: _27  and  _30
REMARK    5  A    between atoms: _32  and  _33
REMARK    6  A    between atoms: _38  and  _43
REMARK    7  A    between atoms: _43  and  _46
REMARK    8  A    between atoms: _53  and  _55
REMARK                            x       y       z     vdW  Elec       q    Type
REMARK                         _______ _______ _______ _____ _____    ______ ____
ROOT
ATOM     10  C   UNL     1       3.405  -6.049   6.493  0.00  0.00    +0.038 A 
ATOM     11  C   UNL     1       4.766  -6.398   6.688  0.00  0.00    +0.047 A 
ATOM     12  C   UNL     1       5.317  -6.558   8.025  0.00  0.00    +0.035 A 
ATOM     32  C   UNL     1       4.452  -6.356   9.141  0.00  0.00    +0.024 A 
ATOM     33  C   UNL     1       3.067  -6.000   8.960  0.00  0.00    +0.007 A 
ATOM     34  C   UNL     1       2.519  -5.839   7.644  0.00  0.00    -0.029 A 
ATOM     35  C   UNL     1       1.028  -5.450   7.509  0.00  0.00    +0.045 C 
ENDROOT
BRANCH  10   9
ATOM      4  C   UNL     1       1.752  -3.394   2.851  0.00  0.00    +0.077 A 
ATOM      5  C   UNL     1       1.818  -2.187   3.624  0.00  0.00    +0.048 A 
ATOM      6  C   UNL     1       2.276  -2.294   4.956  0.00  0.00    +0.116 A 
ATOM      7  N   UNL     1       2.639  -3.521   5.468  0.00  0.00    -0.223 NA
ATOM      8  C   UNL     1       2.561  -4.666   4.696  0.00  0.00    +0.220 A 
ATOM      9  N   UNL     1       2.929  -5.910   5.187  0.00  0.00    -0.283 N 
ATOM     36  H   UNL     1       2.850  -6.731   4.588  0.00  0.00    +0.155 HD
ATOM     37  N   UNL     1       2.126  -4.591   3.421  0.00  0.00    -0.214 NA
BRANCH   4   3
ATOM      1  C   UNL     1       1.090  -4.574  -0.819  0.00  0.00    +0.020 A 
ATOM      2  C   UNL     1       1.557  -4.576   0.548  0.00  0.00    +0.013 A 
ATOM      3  C   UNL     1       1.292  -3.444   1.428  0.00  0.00    +0.019 A 
ATOM     38  C   UNL     1       0.545  -2.318   0.888  0.00  0.00    +0.120 A 
ATOM     39  N   UNL     1       0.109  -2.343  -0.433  0.00  0.00    -0.263 NA
ATOM     40  C   UNL     1       0.360  -3.426  -1.289  0.00  0.00    +0.111 A 
ENDBRANCH   4   3
ENDBRANCH  10   9
BRANCH  12  13
ATOM     13  N   UNL     1       6.692  -6.903   8.286  0.00  0.00    -0.281 N 
ATOM     14  C   UNL     1       7.204  -7.608   9.363  0.00  0.00    +0.248 C 
ATOM     30  O   UNL     1       6.577  -7.866  10.380  0.00  0.00    -0.270 OA
ATOM     31  H   UNL     1       7.371  -6.590   7.592  0.00  0.00    +0.155 HD
BRANCH  14  15
ATOM     15  C   UNL     1       8.620  -8.083   9.308  0.00  0.00    +0.037 A 
ATOM     16  C   UNL     1       9.343  -8.458  10.526  0.00  0.00    +0.013 A 
ATOM     17  C   UNL     1      10.714  -8.896  10.447  0.00  0.00    +0.005 A 
ATOM     18  C   UNL     1      11.370  -8.964   9.143  0.00  0.00    -0.033 A 
ATOM     28  C   UNL     1      10.627  -8.592   7.950  0.00  0.00    +0.005 A 
ATOM     29  C   UNL     1       9.284  -8.161   8.024  0.00  0.00    +0.013 A 
BRANCH  18  19
ATOM     19  C   UNL     1      12.837  -9.401   8.966  0.00  0.00    +0.119 C 
BRANCH  19  20
ATOM     20  N   UNL     1      13.553  -9.898  10.179  0.00  0.00    -0.302 NA
ATOM     21  C   UNL     1      13.999  -8.754  11.093  0.00  0.00    +0.066 C 
ATOM     22  C   UNL     1      14.726  -9.294  12.367  0.00  0.00    -0.064 C 
ATOM     23  N   UNL     1      15.923 -10.147  11.944  0.00  0.00    +0.379 N 
ATOM     24  C   UNL     1      16.643 -10.609  13.140  0.00  0.00    -0.096 C 
ATOM     25  H   UNL     1      16.615  -9.495  11.363  0.00  0.00    -0.082 HD
ATOM     26  C   UNL     1      15.489 -11.286  11.033  0.00  0.00    -0.064 C 
ATOM     27  C   UNL     1      14.741 -10.741   9.784  0.00  0.00    +0.066 C 
ENDBRANCH  19  20
ENDBRANCH  18  19
ENDBRANCH  14  15
ENDBRANCH  12  13
TORSDOF 6
ENDMDL
MODEL 3
REMARK VINA RESULT:     -10.3      3.294     13.010
REMARK  Name = C:\Users\Docking\Desktop\test protocol\1iep_ligandH.pdb
REMARK  8 active torsions:
REMARK  status: ('A' for Active; 'I' for Inactive)
REMARK    1  A    between atoms: _5  and  _11
REMARK    2  A    between atoms: _19  and  _21
REMARK    3  A    between atoms: _22  and  _66
REMARK    4  A    between atoms: _27  and  _30
REMARK    5  A    between atoms: _32  and  _33
REMARK    6  A    between atoms: _38  and  _43
REMARK    7  A    between atoms: _43  and  _46
REMARK    8  A    between atoms: _53  and  _55
REMARK                            x       y       z     vdW  Elec       q    Type
REMARK                         _______ _______ _______ _____ _____    ______ ____
ROOT
ATOM     10  C   UNL     1       2.699  -4.970   4.794  0.00  0.00    +0.038 A 
ATOM     11  C   UNL     1       2.714  -3.613   4.380  0.00  0.00    +0.047 A 
ATOM     12  C   UNL     1       1.527  -2.985   3.819  0.00  0.00    +0.035 A 
ATOM     32  C   UNL     1       0.342  -3.768   3.697  0.00  0.00    +0.024 A 
ATOM     33  C   UNL     1       0.311  -5.149   4.112  0.00  0.00    +0.007 A 
ATOM     34  C   UNL     1       1.478  -5.774   4.664  0.00  0.00    -0.029 A 
ATOM     35  C   UNL     1       1.389  -7.259   5.086  0.00  0.00    +0.045 C 
ENDROOT
BRANCH  10   9
ATOM      4  C   UNL     1       5.311  -6.612   8.471  0.00  0.00    +0.077 A 
ATOM      5  C   UNL     1       4.272  -6.321   9.416  0.00  0.00    +0.048 A 
ATOM      6  C   UNL     1       3.084  -5.743   8.917  0.00  0.00    +0.116 A 
ATOM      7  N   UNL     1       2.956  -5.479   7.570  0.00  0.00    -0.223 NA
ATOM      8  C   UNL     1       3.978  -5.771   6.686  0.00  0.00    +0.220 A 
ATOM      9  N   UNL     1       3.867  -5.522   5.326  0.00  0.00    -0.283 N 
ATOM     36  H   UNL     1       4.647  -5.745   4.708  0.00  0.00    +0.155 HD
ATOM     37  N   UNL     1       5.123  -6.323   7.138  0.00  0.00    -0.214 NA
BRANCH   4   3
ATOM      1  C   UNL     1       8.198  -8.312  10.492  0.00  0.00    +0.020 A 
ATOM      2  C   UNL     1       6.914  -7.726  10.183  0.00  0.00    +0.013 A 
ATOM      3  C   UNL     1       6.624  -7.228   8.844  0.00  0.00    +0.019 A 
ATOM     38  C   UNL     1       7.664  -7.340   7.832  0.00  0.00    +0.120 A 
ATOM     39  N   UNL     1       8.891  -7.907   8.159  0.00  0.00    -0.263 NA
ATOM     40  C   UNL     1       9.182  -8.388   9.444  0.00  0.00    +0.111 A 
ENDBRANCH   4   3
ENDBRANCH  10   9
BRANCH  12  13
ATOM     13  N   UNL     1       1.484  -1.615   3.374  0.00  0.00    -0.281 N 
ATOM     14  C   UNL     1       1.528  -0.466   4.148  0.00  0.00    +0.248 C 
ATOM     30  O   UNL     1       1.395  -0.446   5.363  0.00  0.00    -0.270 OA
ATOM     31  H   UNL     1       1.413  -1.474   2.367  0.00  0.00    +0.155 HD
BRANCH  14  15
ATOM     15  C   UNL     1       1.735   0.851   3.473  0.00  0.00    +0.037 A 
ATOM     16  C   UNL     1       2.796   1.039   2.481  0.00  0.00    +0.013 A 
ATOM     17  C   UNL     1       2.985   2.325   1.858  0.00  0.00    +0.005 A 
ATOM     18  C   UNL     1       2.108   3.434   2.225  0.00  0.00    -0.033 A 
ATOM     28  C   UNL     1       1.060   3.219   3.208  0.00  0.00    +0.005 A 
ATOM     29  C   UNL     1       0.872   1.960   3.822  0.00  0.00    +0.013 A 
BRANCH  18  19
ATOM     19  C   UNL     1       2.250   4.846   1.626  0.00  0.00    +0.119 C 
BRANCH  19  20
ATOM     20  N   UNL     1       2.835   5.904   2.503  0.00  0.00    -0.302 NA
ATOM     21  C   UNL     1       3.260   7.141   1.705  0.00  0.00    +0.066 C 
ATOM     22  C   UNL     1       3.848   8.247   2.640  0.00  0.00    -0.064 C 
ATOM     23  N   UNL     1       5.032   7.673   3.422  0.00  0.00    +0.379 N 
ATOM     24  C   UNL     1       5.624   8.727   4.259  0.00  0.00    -0.096 C 
ATOM     25  H   UNL     1       5.803   7.355   2.682  0.00  0.00    -0.082 HD
ATOM     26  C   UNL     1       4.619   6.442   4.215  0.00  0.00    -0.064 C 
ATOM     27  C   UNL     1       4.008   5.361   3.281  0.00  0.00    +0.066 C 
ENDBRANCH  19  20
ENDBRANCH  18  19
ENDBRANCH  14  15
ENDBRANCH  12  13
TORSDOF 6
ENDMDL
MODEL 4
REMARK VINA RESULT:     -10.1      3.981     15.181
REMARK  Name = C:\Users\Docking\Desktop\test protocol\1iep_ligandH.pdb
REMARK  8 active torsions:
REMARK  status: ('A' for Active; 'I' for Inactive)
REMARK    1  A    between atoms: _5  and  _11
REMARK    2  A    between atoms: _19  and  _21
REMARK    3  A    between atoms: _22  and  _66
REMARK    4  A    between atoms: _27  and  _30
REMARK    5  A    between atoms: _32  and  _33
REMARK    6  A    between atoms: _38  and  _43
REMARK    7  A    between atoms: _43  and  _46
REMARK    8  A    between atoms: _53  and  _55
REMARK                            x       y       z     vdW  Elec       q    Type
REMARK                         _______ _______ _______ _____ _____    ______ ____
ROOT
ATOM     10  C   UNL     1      13.986 -10.297   9.389  0.00  0.00    +0.038 A 
ATOM     11  C   UNL     1      12.825  -9.499   9.544  0.00  0.00    +0.047 A 
ATOM     12  C   UNL     1      11.520  -9.978   9.115  0.00  0.00    +0.035 A 
ATOM     32  C   UNL     1      11.434 -11.277   8.536  0.00  0.00    +0.024 A 
ATOM     33  C   UNL     1      12.605 -12.102   8.370  0.00  0.00    +0.007 A 
ATOM     34  C   UNL     1      13.895 -11.634   8.788  0.00  0.00    -0.029 A 
ATOM     35  C   UNL     1      15.118 -12.558   8.581  0.00  0.00    +0.045 C 
ENDROOT
BRANCH  10   9
ATOM      4  C   UNL     1      17.463  -9.830  12.665  0.00  0.00    +0.077 A 
ATOM      5  C   UNL     1      16.762 -10.648  13.612  0.00  0.00    +0.048 A 
ATOM      6  C   UNL     1      15.507 -11.165  13.220  0.00  0.00    +0.116 A 
ATOM      7  N   UNL     1      15.000 -10.877  11.971  0.00  0.00    -0.223 NA
ATOM      8  C   UNL     1      15.701 -10.083  11.083  0.00  0.00    +0.220 A 
ATOM      9  N   UNL     1      15.214  -9.788   9.819  0.00  0.00    -0.283 N 
ATOM     36  H   UNL     1      15.758  -9.192   9.195  0.00  0.00    +0.155 HD
ATOM     37  N   UNL     1      16.901  -9.577  11.434  0.00  0.00    -0.214 NA
BRANCH   4   3
ATOM      1  C   UNL     1      20.887  -8.910  14.317  0.00  0.00    +0.020 A 
ATOM      2  C   UNL     1      19.601  -9.533  14.108  0.00  0.00    +0.013 A 
ATOM      3  C   UNL     1      18.801  -9.214  12.931  0.00  0.00    +0.019 A 
ATOM     38  C   UNL     1      19.338  -8.254  11.978  0.00  0.00    +0.120 A 
ATOM     39  N   UNL     1      20.579  -7.669  12.207  0.00  0.00    -0.263 NA
ATOM     40  C   UNL     1      21.357  -7.967  13.337  0.00  0.00    +0.111 A 
ENDBRANCH   4   3
ENDBRANCH  10   9
BRANCH  12  13
ATOM     13  N   UNL     1      10.306  -9.209   9.239  0.00  0.00    -0.281 N 
ATOM     14  C   UNL     1       9.669  -8.460   8.264  0.00  0.00    +0.248 C 
ATOM     30  O   UNL     1      10.165  -8.164   7.187  0.00  0.00    -0.270 OA
ATOM     31  H   UNL     1       9.863  -9.218  10.158  0.00  0.00    +0.155 HD
BRANCH  14  15
ATOM     15  C   UNL     1       8.288  -7.955   8.528  0.00  0.00    +0.037 A 
ATOM     16  C   UNL     1       7.612  -8.222   9.801  0.00  0.00    +0.013 A 
ATOM     17  C   UNL     1       6.272  -7.738  10.023  0.00  0.00    +0.005 A 
ATOM     18  C   UNL     1       5.600  -6.980   8.970  0.00  0.00    -0.033 A 
ATOM     28  C   UNL     1       6.296  -6.726   7.720  0.00  0.00    +0.005 A 
ATOM     29  C   UNL     1       7.608  -7.199   7.497  0.00  0.00    +0.013 A 
BRANCH  18  19
ATOM     19  C   UNL     1       4.164  -6.443   9.113  0.00  0.00    +0.119 C 
BRANCH  19  20
ATOM     20  N   UNL     1       3.466  -6.017   7.863  0.00  0.00    -0.302 NA
ATOM     21  C   UNL     1       2.061  -5.477   8.146  0.00  0.00    +0.066 C 
ATOM     22  C   UNL     1       1.354  -5.015   6.830  0.00  0.00    -0.064 C 
ATOM     23  N   UNL     1       1.297  -6.185   5.847  0.00  0.00    +0.379 N 
ATOM     24  C   UNL     1       0.581  -5.770   4.631  0.00  0.00    -0.096 C 
ATOM     25  H   UNL     1       0.707  -7.000   6.325  0.00  0.00    -0.082 HD
ATOM     26  C   UNL     1       2.690  -6.729   5.562  0.00  0.00    -0.064 C 
ATOM     27  C   UNL     1       3.395  -7.159   6.879  0.00  0.00    +0.066 C 
ENDBRANCH  19  20
ENDBRANCH  18  19
ENDBRANCH  14  15
ENDBRANCH  12  13
TORSDOF 6
ENDMDL
MODEL 5
REMARK VINA RESULT:      -9.8      4.056     14.470
REMARK  Name = C:\Users\Docking\Desktop\test protocol\1iep_ligandH.pdb
REMARK  8 active torsions:
REMARK  status: ('A' for Active; 'I' for Inactive)
REMARK    1  A    between atoms: _5  and  _11
REMARK    2  A    between atoms: _19  and  _21
REMARK    3  A    between atoms: _22  and  _66
REMARK    4  A    between atoms: _27  and  _30
REMARK    5  A    between atoms: _32  and  _33
REMARK    6  A    between atoms: _38  and  _43
REMARK    7  A    between atoms: _43  and  _46
REMARK    8  A    between atoms: _53  and  _55
REMARK                            x       y       z     vdW  Elec       q    Type
REMARK                         _______ _______ _______ _____ _____    ______ ____
ROOT
ATOM     10  C   UNL     1       2.313  -3.493   2.993  0.00  0.00    +0.038 A 
ATOM     11  C   UNL     1       1.800  -2.194   3.240  0.00  0.00    +0.047 A 
ATOM     12  C   UNL     1       0.837  -1.582   2.338  0.00  0.00    +0.035 A 
ATOM     32  C   UNL     1       0.416  -2.322   1.195  0.00  0.00    +0.024 A 
ATOM     33  C   UNL     1       0.929  -3.643   0.928  0.00  0.00    +0.007 A 
ATOM     34  C   UNL     1       1.881  -4.251   1.813  0.00  0.00    -0.029 A 
ATOM     35  C   UNL     1       2.402  -5.667   1.475  0.00  0.00    +0.045 C 
ENDROOT
BRANCH  10   9
ATOM      4  C   UNL     1       3.411  -5.812   7.050  0.00  0.00    +0.077 A 
ATOM      5  C   UNL     1       2.031  -5.935   7.422  0.00  0.00    +0.048 A 
ATOM      6  C   UNL     1       1.070  -5.382   6.546  0.00  0.00    +0.116 A 
ATOM      7  N   UNL     1       1.471  -4.755   5.386  0.00  0.00    -0.223 NA
ATOM      8  C   UNL     1       2.810  -4.652   5.058  0.00  0.00    +0.220 A 
ATOM      9  N   UNL     1       3.236  -4.032   3.893  0.00  0.00    -0.283 N 
ATOM     36  H   UNL     1       4.233  -3.970   3.690  0.00  0.00    +0.155 HD
ATOM     37  N   UNL     1       3.747  -5.170   5.879  0.00  0.00    -0.214 NA
BRANCH   4   3
ATOM      1  C   UNL     1       6.924  -7.130   8.154  0.00  0.00    +0.020 A 
ATOM      2  C   UNL     1       5.865  -6.613   7.318  0.00  0.00    +0.013 A 
ATOM      3  C   UNL     1       4.543  -6.347   7.870  0.00  0.00    +0.019 A 
ATOM     38  C   UNL     1       4.323  -6.617   9.283  0.00  0.00    +0.120 A 
ATOM     39  N   UNL     1       5.362  -7.116  10.063  0.00  0.00    -0.263 NA
ATOM     40  C   UNL     1       6.638  -7.377   9.543  0.00  0.00    +0.111 A 
ENDBRANCH   4   3
ENDBRANCH  10   9
BRANCH  12  13
ATOM     13  N   UNL     1       0.287  -0.263   2.532  0.00  0.00    -0.281 N 
ATOM     14  C   UNL     1       0.958   0.896   2.884  0.00  0.00    +0.248 C 
ATOM     30  O   UNL     1       2.108   0.931   3.295  0.00  0.00    -0.270 OA
ATOM     31  H   UNL     1      -0.720  -0.174   2.394  0.00  0.00    +0.155 HD
BRANCH  14  15
ATOM     15  C   UNL     1       0.244   2.205   2.777  0.00  0.00    +0.037 A 
ATOM     16  C   UNL     1      -0.767   2.602   3.761  0.00  0.00    +0.013 A 
ATOM     17  C   UNL     1      -1.453   3.862   3.624  0.00  0.00    +0.005 A 
ATOM     18  C   UNL     1      -1.129   4.736   2.499  0.00  0.00    -0.033 A 
ATOM     28  C   UNL     1      -0.119   4.320   1.540  0.00  0.00    +0.005 A 
ATOM     29  C   UNL     1       0.555   3.085   1.670  0.00  0.00    +0.013 A 
BRANCH  18  19
ATOM     19  C   UNL     1      -1.826   6.089   2.263  0.00  0.00    +0.119 C 
BRANCH  19  20
ATOM     20  N   UNL     1      -0.966   7.310   2.259  0.00  0.00    -0.302 NA
ATOM     21  C   UNL     1       0.008   7.330   3.440  0.00  0.00    +0.066 C 
ATOM     22  C   UNL     1       0.915   8.603   3.408  0.00  0.00    -0.064 C 
ATOM     23  N   UNL     1       0.034   9.854   3.410  0.00  0.00    +0.379 N 
ATOM     24  C   UNL     1       0.885  11.053   3.438  0.00  0.00    -0.096 C 
ATOM     25  H   UNL     1      -0.566   9.843   4.349  0.00  0.00    -0.082 HD
ATOM     26  C   UNL     1      -0.939   9.840   2.240  0.00  0.00    -0.064 C 
ATOM     27  C   UNL     1      -1.816   8.557   2.265  0.00  0.00    +0.066 C 
ENDBRANCH  19  20
ENDBRANCH  18  19
ENDBRANCH  14  15
ENDBRANCH  12  13
TORSDOF 6
ENDMDL
