MODEL 1
REMARK VINA RESULT:      -9.1      0.000      0.000
REMARK  Name = C:\Users\Docking\Desktop\test protocol\1iep_ligandH.pdb
REMARK  8 active torsions:
REMARK  status: ('A' for Active; 'I' for Inactive)
REMARK    1  A    between atoms: _5  and  _11
REMARK    2  A    between atoms: _19  and  _21
REMARK    3  A    between atoms: _22  and  _66
REMARK    4  A    between atoms: _27  and  _30
REMARK    5  A    between atoms: _32  and  _33
REMARK    6  A    between atoms: _38  and  _43
REMARK    7  A    between atoms: _43  and  _46
REMARK    8  A    between atoms: _53  and  _55
REMARK                            x       y       z     vdW  Elec       q    Type
REMARK                         _______ _______ _______ _____ _____    ______ ____
ROOT
ATOM     10  C   UNL     1      15.506  65.245  16.686  0.00  0.00    +0.038 A 
ATOM     11  C   UNL     1      15.116  64.034  17.313  0.00  0.00    +0.047 A 
ATOM     12  C   UNL     1      15.420  63.780  18.713  0.00  0.00    +0.035 A 
ATOM     32  C   UNL     1      16.120  64.782  19.446  0.00  0.00    +0.024 A 
ATOM     33  C   UNL     1      16.524  66.019  18.824  0.00  0.00    +0.007 A 
ATOM     34  C   UNL     1      16.230  66.274  17.443  0.00  0.00    -0.029 A 
ATOM     35  C   UNL     1      16.694  67.614  16.826  0.00  0.00    +0.045 C 
ENDROOT
BRANCH  10   9
ATOM      4  C   UNL     1      12.904  67.271  13.198  0.00  0.00    +0.077 A 
ATOM      5  C   UNL     1      12.092  67.987  14.139  0.00  0.00    +0.048 A 
ATOM      6  C   UNL     1      12.371  67.801  15.512  0.00  0.00    +0.116 A 
ATOM      7  N   UNL     1      13.390  66.959  15.903  0.00  0.00    -0.223 NA
ATOM      8  C   UNL     1      14.153  66.282  14.969  0.00  0.00    +0.220 A 
ATOM      9  N   UNL     1      15.188  65.437  15.340  0.00  0.00    -0.283 N 
ATOM     36  H   UNL     1      15.723  64.950  14.621  0.00  0.00    +0.155 HD
ATOM     37  N   UNL     1      13.905  66.442  13.653  0.00  0.00    -0.214 NA
BRANCH   4   3
ATOM      1  C   UNL     1      13.508  66.975   9.345  0.00  0.00    +0.020 A 
ATOM      2  C   UNL     1      13.722  66.859  10.769  0.00  0.00    +0.013 A 
ATOM      3  C   UNL     1      12.734  67.365  11.714  0.00  0.00    +0.019 A 
ATOM     38  C   UNL     1      11.531  67.988  11.181  0.00  0.00    +0.120 A 
ATOM     39  N   UNL     1      11.354  68.087   9.804  0.00  0.00    -0.263 NA
ATOM     40  C   UNL     1      12.298  67.605   8.885  0.00  0.00    +0.111 A 
ENDBRANCH   4   3
ENDBRANCH  10   9
BRANCH  12  13
ATOM     13  N   UNL     1      15.056  62.566  19.401  0.00  0.00    -0.281 N 
ATOM     14  C   UNL     1      13.849  61.888  19.352  0.00  0.00    +0.248 C 
ATOM     30  O   UNL     1      12.821  62.342  18.873  0.00  0.00    -0.270 OA
ATOM     31  H   UNL     1      15.776  62.157  19.997  0.00  0.00    +0.155 HD
BRANCH  14  15
ATOM     15  C   UNL     1      13.769  60.513  19.933  0.00  0.00    +0.037 A 
ATOM     16  C   UNL     1      14.095  60.261  21.339  0.00  0.00    +0.013 A 
ATOM     17  C   UNL     1      14.026  58.923  21.869  0.00  0.00    +0.005 A 
ATOM     18  C   UNL     1      13.628  57.825  20.991  0.00  0.00    -0.033 A 
ATOM     28  C   UNL     1      13.306  58.103  19.602  0.00  0.00    +0.005 A 
ATOM     29  C   UNL     1      13.373  59.414  19.078  0.00  0.00    +0.013 A 
BRANCH  18  19
ATOM     19  C   UNL     1      13.548  56.362  21.466  0.00  0.00    +0.119 C 
BRANCH  19  20
ATOM     20  N   UNL     1      14.811  55.731  21.956  0.00  0.00    -0.302 NA
ATOM     21  C   UNL     1      15.388  54.739  20.942  0.00  0.00    +0.066 C 
ATOM     22  C   UNL     1      16.720  54.106  21.461  0.00  0.00    -0.064 C 
ATOM     23  N   UNL     1      16.467  53.422  22.805  0.00  0.00    +0.379 N 
ATOM     24  C   UNL     1      17.704  52.776  23.267  0.00  0.00    -0.096 C 
ATOM     25  H   UNL     1      15.709  52.621  22.639  0.00  0.00    -0.082 HD
ATOM     26  C   UNL     1      15.890  54.401  23.818  0.00  0.00    -0.064 C 
ATOM     27  C   UNL     1      14.582  55.046  23.280  0.00  0.00    +0.066 C 
ENDBRANCH  19  20
ENDBRANCH  18  19
ENDBRANCH  14  15
ENDBRANCH  12  13
TORSDOF 6
ENDMDL
MODEL 2
REMARK VINA RESULT:      -9.0      4.573     13.984
REMARK  Name = C:\Users\Docking\Desktop\test protocol\1iep_ligandH.pdb
REMARK  8 active torsions:
REMARK  status: ('A' for Active; 'I' for Inactive)
REMARK    1  A    between atoms: _5  and  _11
REMARK    2  A    between atoms: _19  and  _21
REMARK    3  A    between atoms: _22  and  _66
REMARK    4  A    between atoms: _27  and  _30
REMARK    5  A    between atoms: _32  and  _33
REMARK    6  A    between atoms: _38  and  _43
REMARK    7  A    between atoms: _43  and  _46
REMARK    8  A    between atoms: _53  and  _55
REMARK                            x       y       z     vdW  Elec       q    Type
REMARK                         _______ _______ _______ _____ _____    ______ ____
ROOT
ATOM     10  C   UNL     1      14.715  55.241  21.561  0.00  0.00    +0.038 A 
ATOM     11  C   UNL     1      14.956  56.576  21.150  0.00  0.00    +0.047 A 
ATOM     12  C   UNL     1      14.074  57.244  20.206  0.00  0.00    +0.035 A 
ATOM     32  C   UNL     1      12.952  56.522  19.703  0.00  0.00    +0.024 A 
ATOM     33  C   UNL     1      12.692  55.164  20.110  0.00  0.00    +0.007 A 
ATOM     34  C   UNL     1      13.561  54.499  21.039  0.00  0.00    -0.029 A 
ATOM     35  C   UNL     1      13.238  53.039  21.435  0.00  0.00    +0.045 C 
ENDROOT
BRANCH  10   9
ATOM      4  C   UNL     1      18.825  53.002  22.628  0.00  0.00    +0.077 A 
ATOM      5  C   UNL     1      19.242  52.988  21.255  0.00  0.00    +0.048 A 
ATOM      6  C   UNL     1      18.367  53.560  20.305  0.00  0.00    +0.116 A 
ATOM      7  N   UNL     1      17.167  54.104  20.709  0.00  0.00    -0.223 NA
ATOM      8  C   UNL     1      16.794  54.100  22.040  0.00  0.00    +0.220 A 
ATOM      9  N   UNL     1      15.595  54.648  22.470  0.00  0.00    -0.283 N 
ATOM     36  H   UNL     1      15.354  54.619  23.460  0.00  0.00    +0.155 HD
ATOM     37  N   UNL     1      17.612  53.558  22.967  0.00  0.00    -0.214 NA
BRANCH   4   3
ATOM      1  C   UNL     1      21.122  52.680  25.777  0.00  0.00    +0.020 A 
ATOM      2  C   UNL     1      20.347  53.274  24.713  0.00  0.00    +0.013 A 
ATOM      3  C   UNL     1      19.642  52.439  23.749  0.00  0.00    +0.019 A 
ATOM     38  C   UNL     1      19.741  50.994  23.892  0.00  0.00    +0.120 A 
ATOM     39  N   UNL     1      20.496  50.450  24.926  0.00  0.00    -0.263 NA
ATOM     40  C   UNL     1      21.180  51.244  25.859  0.00  0.00    +0.111 A 
ENDBRANCH   4   3
ENDBRANCH  10   9
BRANCH  12  13
ATOM     13  N   UNL     1      14.273  58.596  19.745  0.00  0.00    -0.281 N 
ATOM     14  C   UNL     1      13.462  59.698  19.962  0.00  0.00    +0.248 C 
ATOM     30  O   UNL     1      12.325  59.642  20.409  0.00  0.00    -0.270 OA
ATOM     31  H   UNL     1      15.114  58.760  19.192  0.00  0.00    +0.155 HD
BRANCH  14  15
ATOM     15  C   UNL     1      13.983  61.056  19.621  0.00  0.00    +0.037 A 
ATOM     16  C   UNL     1      14.734  61.850  20.597  0.00  0.00    +0.013 A 
ATOM     17  C   UNL     1      15.210  63.164  20.248  0.00  0.00    +0.005 A 
ATOM     18  C   UNL     1      14.938  63.693  18.913  0.00  0.00    -0.033 A 
ATOM     28  C   UNL     1      14.195  62.883  17.962  0.00  0.00    +0.005 A 
ATOM     29  C   UNL     1      13.726  61.594  18.302  0.00  0.00    +0.013 A 
BRANCH  18  19
ATOM     19  C   UNL     1      15.390  65.094  18.461  0.00  0.00    +0.119 C 
BRANCH  19  20
ATOM     20  N   UNL     1      16.641  65.639  19.069  0.00  0.00    -0.302 NA
ATOM     21  C   UNL     1      16.346  66.599  20.226  0.00  0.00    +0.066 C 
ATOM     22  C   UNL     1      17.665  67.141  20.865  0.00  0.00    -0.064 C 
ATOM     23  N   UNL     1      18.504  67.832  19.789  0.00  0.00    +0.379 N 
ATOM     24  C   UNL     1      19.718  68.394  20.398  0.00  0.00    -0.096 C 
ATOM     25  H   UNL     1      17.904  68.681  19.385  0.00  0.00    -0.082 HD
ATOM     26  C   UNL     1      18.799  66.886  18.634  0.00  0.00    -0.064 C 
ATOM     27  C   UNL     1      17.482  66.329  18.024  0.00  0.00    +0.066 C 
ENDBRANCH  19  20
ENDBRANCH  18  19
ENDBRANCH  14  15
ENDBRANCH  12  13
TORSDOF 6
ENDMDL
MODEL 3
REMARK VINA RESULT:      -8.9      2.512     14.247
REMARK  Name = C:\Users\Docking\Desktop\test protocol\1iep_ligandH.pdb
REMARK  8 active torsions:
REMARK  status: ('A' for Active; 'I' for Inactive)
REMARK    1  A    between atoms: _5  and  _11
REMARK    2  A    between atoms: _19  and  _21
REMARK    3  A    between atoms: _22  and  _66
REMARK    4  A    between atoms: _27  and  _30
REMARK    5  A    between atoms: _32  and  _33
REMARK    6  A    between atoms: _38  and  _43
REMARK    7  A    between atoms: _43  and  _46
REMARK    8  A    between atoms: _53  and  _55
REMARK                            x       y       z     vdW  Elec       q    Type
REMARK                         _______ _______ _______ _____ _____    ______ ____
ROOT
ATOM     10  C   UNL     1      14.611  55.388  21.707  0.00  0.00    +0.038 A 
ATOM     11  C   UNL     1      14.856  56.706  21.245  0.00  0.00    +0.047 A 
ATOM     12  C   UNL     1      13.991  57.332  20.258  0.00  0.00    +0.035 A 
ATOM     32  C   UNL     1      12.881  56.586  19.764  0.00  0.00    +0.024 A 
ATOM     33  C   UNL     1      12.617  55.244  20.221  0.00  0.00    +0.007 A 
ATOM     34  C   UNL     1      13.469  54.621  21.193  0.00  0.00    -0.029 A 
ATOM     35  C   UNL     1      13.142  53.178  21.642  0.00  0.00    +0.045 C 
ENDROOT
BRANCH  10   9
ATOM      4  C   UNL     1      18.650  53.103  22.932  0.00  0.00    +0.077 A 
ATOM      5  C   UNL     1      19.062  52.973  21.564  0.00  0.00    +0.048 A 
ATOM      6  C   UNL     1      18.202  53.501  20.575  0.00  0.00    +0.116 A 
ATOM      7  N   UNL     1      17.021  54.112  20.938  0.00  0.00    -0.223 NA
ATOM      8  C   UNL     1      16.653  54.219  22.267  0.00  0.00    +0.220 A 
ATOM      9  N   UNL     1      15.474  54.836  22.656  0.00  0.00    -0.283 N 
ATOM     36  H   UNL     1      15.235  54.888  23.646  0.00  0.00    +0.155 HD
ATOM     37  N   UNL     1      17.456  53.721  23.230  0.00  0.00    -0.214 NA
BRANCH   4   3
ATOM      1  C   UNL     1      21.260  52.839  25.834  0.00  0.00    +0.020 A 
ATOM      2  C   UNL     1      20.516  53.373  24.716  0.00  0.00    +0.013 A 
ATOM      3  C   UNL     1      19.452  52.598  24.091  0.00  0.00    +0.019 A 
ATOM     38  C   UNL     1      19.162  51.276  24.627  0.00  0.00    +0.120 A 
ATOM     39  N   UNL     1      19.896  50.787  25.703  0.00  0.00    -0.263 NA
ATOM     40  C   UNL     1      20.924  51.524  26.311  0.00  0.00    +0.111 A 
ENDBRANCH   4   3
ENDBRANCH  10   9
BRANCH  12  13
ATOM     13  N   UNL     1      14.195  58.664  19.747  0.00  0.00    -0.281 N 
ATOM     14  C   UNL     1      13.455  59.803  20.018  0.00  0.00    +0.248 C 
ATOM     30  O   UNL     1      12.370  59.805  20.579  0.00  0.00    -0.270 OA
ATOM     31  H   UNL     1      14.981  58.782  19.106  0.00  0.00    +0.155 HD
BRANCH  14  15
ATOM     15  C   UNL     1      13.993  61.132  19.592  0.00  0.00    +0.037 A 
ATOM     16  C   UNL     1      13.736  61.660  18.250  0.00  0.00    +0.013 A 
ATOM     17  C   UNL     1      14.280  62.936  17.859  0.00  0.00    +0.005 A 
ATOM     18  C   UNL     1      15.086  63.694  18.813  0.00  0.00    -0.033 A 
ATOM     28  C   UNL     1      15.321  63.149  20.140  0.00  0.00    +0.005 A 
ATOM     29  C   UNL     1      14.790  61.898  20.526  0.00  0.00    +0.013 A 
BRANCH  18  19
ATOM     19  C   UNL     1      15.724  65.054  18.475  0.00  0.00    +0.119 C 
BRANCH  19  20
ATOM     20  N   UNL     1      15.037  65.896  17.450  0.00  0.00    -0.302 NA
ATOM     21  C   UNL     1      15.365  65.445  16.023  0.00  0.00    +0.066 C 
ATOM     22  C   UNL     1      14.620  66.321  14.964  0.00  0.00    -0.064 C 
ATOM     23  N   UNL     1      14.995  67.790  15.168  0.00  0.00    +0.379 N 
ATOM     24  C   UNL     1      14.342  68.610  14.137  0.00  0.00    -0.096 C 
ATOM     25  H   UNL     1      16.097  67.881  15.025  0.00  0.00    -0.082 HD
ATOM     26  C   UNL     1      14.675  68.246  16.584  0.00  0.00    -0.064 C 
ATOM     27  C   UNL     1      15.396  67.350  17.630  0.00  0.00    +0.066 C 
ENDBRANCH  19  20
ENDBRANCH  18  19
ENDBRANCH  14  15
ENDBRANCH  12  13
TORSDOF 6
ENDMDL
MODEL 4
REMARK VINA RESULT:      -8.7      1.532      2.203
REMARK  Name = C:\Users\Docking\Desktop\test protocol\1iep_ligandH.pdb
REMARK  8 active torsions:
REMARK  status: ('A' for Active; 'I' for Inactive)
REMARK    1  A    between atoms: _5  and  _11
REMARK    2  A    between atoms: _19  and  _21
REMARK    3  A    between atoms: _22  and  _66
REMARK    4  A    between atoms: _27  and  _30
REMARK    5  A    between atoms: _32  and  _33
REMARK    6  A    between atoms: _38  and  _43
REMARK    7  A    between atoms: _43  and  _46
REMARK    8  A    between atoms: _53  and  _55
REMARK                            x       y       z     vdW  Elec       q    Type
REMARK                         _______ _______ _______ _____ _____    ______ ____
ROOT
ATOM     10  C   UNL     1      15.460  65.348  16.714  0.00  0.00    +0.038 A 
ATOM     11  C   UNL     1      15.039  64.170  17.381  0.00  0.00    +0.047 A 
ATOM     12  C   UNL     1      15.365  63.940  18.780  0.00  0.00    +0.035 A 
ATOM     32  C   UNL     1      16.120  64.933  19.470  0.00  0.00    +0.024 A 
ATOM     33  C   UNL     1      16.557  66.136  18.806  0.00  0.00    +0.007 A 
ATOM     34  C   UNL     1      16.241  66.367  17.426  0.00  0.00    -0.029 A 
ATOM     35  C   UNL     1      16.741  67.672  16.764  0.00  0.00    +0.045 C 
ENDROOT
BRANCH  10   9
ATOM      4  C   UNL     1      12.836  67.358  13.233  0.00  0.00    +0.077 A 
ATOM      5  C   UNL     1      12.061  68.115  14.174  0.00  0.00    +0.048 A 
ATOM      6  C   UNL     1      12.365  67.953  15.544  0.00  0.00    +0.116 A 
ATOM      7  N   UNL     1      13.371  67.096  15.934  0.00  0.00    -0.223 NA
ATOM      8  C   UNL     1      14.098  66.379  15.001  0.00  0.00    +0.220 A 
ATOM      9  N   UNL     1      15.119  65.517  15.370  0.00  0.00    -0.283 N 
ATOM     36  H   UNL     1      15.627  65.001  14.652  0.00  0.00    +0.155 HD
ATOM     37  N   UNL     1      13.827  66.515  13.686  0.00  0.00    -0.214 NA
BRANCH   4   3
ATOM      1  C   UNL     1      13.366  66.985   9.376  0.00  0.00    +0.020 A 
ATOM      2  C   UNL     1      13.607  66.898  10.798  0.00  0.00    +0.013 A 
ATOM      3  C   UNL     1      12.637  67.423  11.751  0.00  0.00    +0.019 A 
ATOM     38  C   UNL     1      11.425  68.035  11.229  0.00  0.00    +0.120 A 
ATOM     39  N   UNL     1      11.221  68.106   9.854  0.00  0.00    -0.263 NA
ATOM     40  C   UNL     1      12.147  67.606   8.927  0.00  0.00    +0.111 A 
ENDBRANCH   4   3
ENDBRANCH  10   9
BRANCH  12  13
ATOM     13  N   UNL     1      14.972  62.759  19.508  0.00  0.00    -0.281 N 
ATOM     14  C   UNL     1      13.768  62.077  19.439  0.00  0.00    +0.248 C 
ATOM     30  O   UNL     1      12.762  62.506  18.894  0.00  0.00    -0.270 OA
ATOM     31  H   UNL     1      15.665  62.380  20.153  0.00  0.00    +0.155 HD
BRANCH  14  15
ATOM     15  C   UNL     1      13.663  60.731  20.080  0.00  0.00    +0.037 A 
ATOM     16  C   UNL     1      13.813  60.565  21.527  0.00  0.00    +0.013 A 
ATOM     17  C   UNL     1      13.723  59.253  22.118  0.00  0.00    +0.005 A 
ATOM     18  C   UNL     1      13.481  58.096  21.259  0.00  0.00    -0.033 A 
ATOM     28  C   UNL     1      13.331  58.290  19.826  0.00  0.00    +0.005 A 
ATOM     29  C   UNL     1      13.419  59.575  19.244  0.00  0.00    +0.013 A 
BRANCH  18  19
ATOM     19  C   UNL     1      13.392  56.657  21.800  0.00  0.00    +0.119 C 
BRANCH  19  20
ATOM     20  N   UNL     1      12.784  55.627  20.906  0.00  0.00    -0.302 NA
ATOM     21  C   UNL     1      11.404  55.181  21.398  0.00  0.00    +0.066 C 
ATOM     22  C   UNL     1      10.773  54.120  20.439  0.00  0.00    -0.064 C 
ATOM     23  N   UNL     1      11.716  52.923  20.316  0.00  0.00    +0.379 N 
ATOM     24  C   UNL     1      11.100  51.898  19.461  0.00  0.00    -0.096 C 
ATOM     25  H   UNL     1      11.840  52.484  21.334  0.00  0.00    -0.082 HD
ATOM     26  C   UNL     1      13.092  53.357  19.830  0.00  0.00    -0.064 C 
ATOM     27  C   UNL     1      13.698  54.433  20.774  0.00  0.00    +0.066 C 
ENDBRANCH  19  20
ENDBRANCH  18  19
ENDBRANCH  14  15
ENDBRANCH  12  13
TORSDOF 6
ENDMDL
MODEL 5
REMARK VINA RESULT:      -8.7      4.292      7.418
REMARK  Name = C:\Users\Docking\Desktop\test protocol\1iep_ligandH.pdb
REMARK  8 active torsions:
REMARK  status: ('A' for Active; 'I' for Inactive)
REMARK    1  A    between atoms: _5  and  _11
REMARK    2  A    between atoms: _19  and  _21
REMARK    3  A    between atoms: _22  and  _66
REMARK    4  A    between atoms: _27  and  _30
REMARK    5  A    between atoms: _32  and  _33
REMARK    6  A    between atoms: _38  and  _43
REMARK    7  A    between atoms: _43  and  _46
REMARK    8  A    between atoms: _53  and  _55
REMARK                            x       y       z     vdW  Elec       q    Type
REMARK                         _______ _______ _______ _____ _____    ______ ____
ROOT
ATOM     10  C   UNL     1      15.710  65.268  19.542  0.00  0.00    +0.038 A 
ATOM     11  C   UNL     1      15.519  63.899  19.859  0.00  0.00    +0.047 A 
ATOM     12  C   UNL     1      14.967  62.970  18.885  0.00  0.00    +0.035 A 
ATOM     32  C   UNL     1      14.624  63.470  17.595  0.00  0.00    +0.024 A 
ATOM     33  C   UNL     1      14.810  64.859  17.255  0.00  0.00    +0.007 A 
ATOM     34  C   UNL     1      15.351  65.780  18.213  0.00  0.00    -0.029 A 
ATOM     35  C   UNL     1      15.524  67.259  17.797  0.00  0.00    +0.045 C 
ENDROOT
BRANCH  10   9
ATOM      4  C   UNL     1      19.214  68.058  21.266  0.00  0.00    +0.077 A 
ATOM      5  C   UNL     1      20.065  67.783  20.144  0.00  0.00    +0.048 A 
ATOM      6  C   UNL     1      19.567  66.913  19.149  0.00  0.00    +0.116 A 
ATOM      7  N   UNL     1      18.309  66.365  19.276  0.00  0.00    -0.223 NA
ATOM      8  C   UNL     1      17.514  66.649  20.371  0.00  0.00    +0.220 A 
ATOM      9  N   UNL     1      16.243  66.115  20.516  0.00  0.00    -0.283 N 
ATOM     36  H   UNL     1      15.691  66.344  21.342  0.00  0.00    +0.155 HD
ATOM     37  N   UNL     1      17.968  67.476  21.336  0.00  0.00    -0.214 NA
BRANCH   4   3
ATOM      1  C   UNL     1      20.439  69.375  24.739  0.00  0.00    +0.020 A 
ATOM      2  C   UNL     1      20.081  68.462  23.679  0.00  0.00    +0.013 A 
ATOM      3  C   UNL     1      19.598  68.960  22.398  0.00  0.00    +0.019 A 
ATOM     38  C   UNL     1      19.488  70.400  22.219  0.00  0.00    +0.120 A 
ATOM     39  N   UNL     1      19.839  71.256  23.259  0.00  0.00    -0.263 NA
ATOM     40  C   UNL     1      20.304  70.788  24.497  0.00  0.00    +0.111 A 
ENDBRANCH   4   3
ENDBRANCH  10   9
BRANCH  12  13
ATOM     13  N   UNL     1      14.743  61.571  19.153  0.00  0.00    -0.281 N 
ATOM     14  C   UNL     1      13.533  60.922  19.331  0.00  0.00    +0.248 C 
ATOM     30  O   UNL     1      12.463  61.488  19.500  0.00  0.00    -0.270 OA
ATOM     31  H   UNL     1      15.578  60.989  19.219  0.00  0.00    +0.155 HD
BRANCH  14  15
ATOM     15  C   UNL     1      13.509  59.427  19.337  0.00  0.00    +0.037 A 
ATOM     16  C   UNL     1      14.212  58.652  18.312  0.00  0.00    +0.013 A 
ATOM     17  C   UNL     1      14.159  57.212  18.331  0.00  0.00    +0.005 A 
ATOM     18  C   UNL     1      13.401  56.537  19.382  0.00  0.00    -0.033 A 
ATOM     28  C   UNL     1      12.718  57.330  20.390  0.00  0.00    +0.005 A 
ATOM     29  C   UNL     1      12.767  58.742  20.374  0.00  0.00    +0.013 A 
BRANCH  18  19
ATOM     19  C   UNL     1      13.273  55.004  19.468  0.00  0.00    +0.119 C 
BRANCH  19  20
ATOM     20  N   UNL     1      13.266  54.394  20.831  0.00  0.00    -0.302 NA
ATOM     21  C   UNL     1      14.669  54.336  21.442  0.00  0.00    +0.066 C 
ATOM     22  C   UNL     1      14.640  53.716  22.876  0.00  0.00    -0.064 C 
ATOM     23  N   UNL     1      14.019  52.320  22.813  0.00  0.00    +0.379 N 
ATOM     24  C   UNL     1      14.043  51.711  24.151  0.00  0.00    -0.096 C 
ATOM     25  H   UNL     1      14.657  51.696  22.145  0.00  0.00    -0.082 HD
ATOM     26  C   UNL     1      12.624  52.368  22.205  0.00  0.00    -0.064 C 
ATOM     27  C   UNL     1      12.660  53.013  20.791  0.00  0.00    +0.066 C 
ENDBRANCH  19  20
ENDBRANCH  18  19
ENDBRANCH  14  15
ENDBRANCH  12  13
TORSDOF 6
ENDMDL
