MODEL 1
REMARK VINA RESULT:      -8.0      0.000      0.000
REMARK  Name = C:\Users\Docking\Desktop\test protocol\1iep_ligandH.pdb
REMARK  8 active torsions:
REMARK  status: ('A' for Active; 'I' for Inactive)
REMARK    1  A    between atoms: _5  and  _11
REMARK    2  A    between atoms: _19  and  _21
REMARK    3  A    between atoms: _22  and  _66
REMARK    4  A    between atoms: _27  and  _30
REMARK    5  A    between atoms: _32  and  _33
REMARK    6  A    between atoms: _38  and  _43
REMARK    7  A    between atoms: _43  and  _46
REMARK    8  A    between atoms: _53  and  _55
REMARK                            x       y       z     vdW  Elec       q    Type
REMARK                         _______ _______ _______ _____ _____    ______ ____
ROOT
ATOM     10  C   UNL     1      19.762  26.085   3.694  0.00  0.00    +0.038 A 
ATOM     11  C   UNL     1      18.430  26.012   4.176  0.00  0.00    +0.047 A 
ATOM     12  C   UNL     1      17.685  24.764   4.142  0.00  0.00    +0.035 A 
ATOM     32  C   UNL     1      18.329  23.607   3.613  0.00  0.00    +0.024 A 
ATOM     33  C   UNL     1      19.682  23.663   3.118  0.00  0.00    +0.007 A 
ATOM     34  C   UNL     1      20.421  24.893   3.147  0.00  0.00    -0.029 A 
ATOM     35  C   UNL     1      21.866  24.897   2.596  0.00  0.00    +0.045 C 
ENDROOT
BRANCH  10   9
ATOM      4  C   UNL     1      21.142  30.248   1.743  0.00  0.00    +0.077 A 
ATOM      5  C   UNL     1      20.499  29.945   0.497  0.00  0.00    +0.048 A 
ATOM      6  C   UNL     1      19.830  28.705   0.397  0.00  0.00    +0.116 A 
ATOM      7  N   UNL     1      19.811  27.840   1.469  0.00  0.00    -0.223 NA
ATOM      8  C   UNL     1      20.443  28.162   2.656  0.00  0.00    +0.220 A 
ATOM      9  N   UNL     1      20.431  27.310   3.750  0.00  0.00    -0.283 N 
ATOM     36  H   UNL     1      20.915  27.581   4.606  0.00  0.00    +0.155 HD
ATOM     37  N   UNL     1      21.090  29.340   2.777  0.00  0.00    -0.214 NA
BRANCH   4   3
ATOM      1  C   UNL     1      23.449  33.378   1.319  0.00  0.00    +0.020 A 
ATOM      2  C   UNL     1      22.753  32.149   1.016  0.00  0.00    +0.013 A 
ATOM      3  C   UNL     1      21.886  31.520   2.005  0.00  0.00    +0.019 A 
ATOM     38  C   UNL     1      21.744  32.166   3.301  0.00  0.00    +0.120 A 
ATOM     39  N   UNL     1      22.428  33.349   3.565  0.00  0.00    -0.263 NA
ATOM     40  C   UNL     1      23.266  33.962   2.622  0.00  0.00    +0.111 A 
ENDBRANCH   4   3
ENDBRANCH  10   9
BRANCH  12  13
ATOM     13  N   UNL     1      16.328  24.631   4.610  0.00  0.00    -0.281 N 
ATOM     14  C   UNL     1      15.182  24.436   3.856  0.00  0.00    +0.248 C 
ATOM     30  O   UNL     1      15.125  24.560   2.641  0.00  0.00    -0.270 OA
ATOM     31  H   UNL     1      16.195  24.688   5.620  0.00  0.00    +0.155 HD
BRANCH  14  15
ATOM     15  C   UNL     1      13.913  24.064   4.552  0.00  0.00    +0.037 A 
ATOM     16  C   UNL     1      12.611  24.238   3.904  0.00  0.00    +0.013 A 
ATOM     17  C   UNL     1      11.402  23.886   4.605  0.00  0.00    +0.005 A 
ATOM     18  C   UNL     1      11.489  23.355   5.963  0.00  0.00    -0.033 A 
ATOM     28  C   UNL     1      12.795  23.187   6.580  0.00  0.00    +0.005 A 
ATOM     29  C   UNL     1      13.982  23.532   5.897  0.00  0.00    +0.013 A 
BRANCH  18  19
ATOM     19  C   UNL     1      10.250  22.973   6.794  0.00  0.00    +0.119 C 
BRANCH  19  20
ATOM     20  N   UNL     1      10.485  22.261   8.085  0.00  0.00    -0.302 NA
ATOM     21  C   UNL     1       9.992  20.812   8.040  0.00  0.00    +0.066 C 
ATOM     22  C   UNL     1      10.266  20.075   9.391  0.00  0.00    -0.064 C 
ATOM     23  N   UNL     1       9.594  20.841  10.532  0.00  0.00    +0.379 N 
ATOM     24  C   UNL     1       9.801  20.119  11.796  0.00  0.00    -0.096 C 
ATOM     25  H   UNL     1       8.498  20.858  10.328  0.00  0.00    -0.082 HD
ATOM     26  C   UNL     1      10.076  22.284  10.582  0.00  0.00    -0.064 C 
ATOM     27  C   UNL     1       9.826  22.998   9.225  0.00  0.00    +0.066 C 
ENDBRANCH  19  20
ENDBRANCH  18  19
ENDBRANCH  14  15
ENDBRANCH  12  13
TORSDOF 6
ENDMDL
MODEL 2
REMARK VINA RESULT:      -8.0      2.342      3.233
REMARK  Name = C:\Users\Docking\Desktop\test protocol\1iep_ligandH.pdb
REMARK  8 active torsions:
REMARK  status: ('A' for Active; 'I' for Inactive)
REMARK    1  A    between atoms: _5  and  _11
REMARK    2  A    between atoms: _19  and  _21
REMARK    3  A    between atoms: _22  and  _66
REMARK    4  A    between atoms: _27  and  _30
REMARK    5  A    between atoms: _32  and  _33
REMARK    6  A    between atoms: _38  and  _43
REMARK    7  A    between atoms: _43  and  _46
REMARK    8  A    between atoms: _53  and  _55
REMARK                            x       y       z     vdW  Elec       q    Type
REMARK                         _______ _______ _______ _____ _____    ______ ____
ROOT
ATOM     10  C   UNL     1      19.758  25.575   4.129  0.00  0.00    +0.038 A 
ATOM     11  C   UNL     1      18.408  25.453   4.547  0.00  0.00    +0.047 A 
ATOM     12  C   UNL     1      17.744  24.160   4.577  0.00  0.00    +0.035 A 
ATOM     32  C   UNL     1      18.485  23.010   4.177  0.00  0.00    +0.024 A 
ATOM     33  C   UNL     1      19.857  23.115   3.748  0.00  0.00    +0.007 A 
ATOM     34  C   UNL     1      20.517  24.389   3.714  0.00  0.00    -0.029 A 
ATOM     35  C   UNL     1      21.988  24.443   3.239  0.00  0.00    +0.045 C 
ENDROOT
BRANCH  10   9
ATOM      4  C   UNL     1      20.819  29.733   1.980  0.00  0.00    +0.077 A 
ATOM      5  C   UNL     1      20.168  29.339   0.764  0.00  0.00    +0.048 A 
ATOM      6  C   UNL     1      19.579  28.055   0.730  0.00  0.00    +0.116 A 
ATOM      7  N   UNL     1      19.642  27.235   1.836  0.00  0.00    -0.223 NA
ATOM      8  C   UNL     1      20.279  27.646   2.992  0.00  0.00    +0.220 A 
ATOM      9  N   UNL     1      20.347  26.841   4.119  0.00  0.00    -0.283 N 
ATOM     36  H   UNL     1      20.832  27.177   4.950  0.00  0.00    +0.155 HD
ATOM     37  N   UNL     1      20.850  28.867   3.049  0.00  0.00    -0.214 NA
BRANCH   4   3
ATOM      1  C   UNL     1      22.143  33.049   3.577  0.00  0.00    +0.020 A 
ATOM      2  C   UNL     1      21.484  31.770   3.444  0.00  0.00    +0.013 A 
ATOM      3  C   UNL     1      21.485  31.060   2.172  0.00  0.00    +0.019 A 
ATOM     38  C   UNL     1      22.168  31.676   1.044  0.00  0.00    +0.120 A 
ATOM     39  N   UNL     1      22.792  32.909   1.200  0.00  0.00    -0.263 NA
ATOM     40  C   UNL     1      22.797  33.603   2.420  0.00  0.00    +0.111 A 
ENDBRANCH   4   3
ENDBRANCH  10   9
BRANCH  12  13
ATOM     13  N   UNL     1      16.373  23.976   4.985  0.00  0.00    -0.281 N 
ATOM     14  C   UNL     1      15.901  23.366   6.135  0.00  0.00    +0.248 C 
ATOM     30  O   UNL     1      16.586  22.692   6.891  0.00  0.00    -0.270 OA
ATOM     31  H   UNL     1      15.664  24.339   4.347  0.00  0.00    +0.155 HD
BRANCH  14  15
ATOM     15  C   UNL     1      14.457  23.513   6.491  0.00  0.00    +0.037 A 
ATOM     16  C   UNL     1      13.900  22.878   7.688  0.00  0.00    +0.013 A 
ATOM     17  C   UNL     1      12.499  23.022   7.998  0.00  0.00    +0.005 A 
ATOM     18  C   UNL     1      11.646  23.807   7.109  0.00  0.00    -0.033 A 
ATOM     28  C   UNL     1      12.226  24.431   5.931  0.00  0.00    +0.005 A 
ATOM     29  C   UNL     1      13.598  24.291   5.623  0.00  0.00    +0.013 A 
BRANCH  18  19
ATOM     19  C   UNL     1      10.137  23.997   7.351  0.00  0.00    +0.119 C 
BRANCH  19  20
ATOM     20  N   UNL     1       9.641  25.396   7.514  0.00  0.00    -0.302 NA
ATOM     21  C   UNL     1      10.374  26.138   8.635  0.00  0.00    +0.066 C 
ATOM     22  C   UNL     1       9.858  27.607   8.776  0.00  0.00    -0.064 C 
ATOM     23  N   UNL     1       8.350  27.593   9.032  0.00  0.00    +0.379 N 
ATOM     24  C   UNL     1       7.871  28.970   9.223  0.00  0.00    -0.096 C 
ATOM     25  H   UNL     1       8.173  27.038   9.982  0.00  0.00    -0.082 HD
ATOM     26  C   UNL     1       7.614  26.854   7.923  0.00  0.00    -0.064 C 
ATOM     27  C   UNL     1       8.154  25.405   7.771  0.00  0.00    +0.066 C 
ENDBRANCH  19  20
ENDBRANCH  18  19
ENDBRANCH  14  15
ENDBRANCH  12  13
TORSDOF 6
ENDMDL
MODEL 3
REMARK VINA RESULT:      -7.8      8.261     12.751
REMARK  Name = C:\Users\Docking\Desktop\test protocol\1iep_ligandH.pdb
REMARK  8 active torsions:
REMARK  status: ('A' for Active; 'I' for Inactive)
REMARK    1  A    between atoms: _5  and  _11
REMARK    2  A    between atoms: _19  and  _21
REMARK    3  A    between atoms: _22  and  _66
REMARK    4  A    between atoms: _27  and  _30
REMARK    5  A    between atoms: _32  and  _33
REMARK    6  A    between atoms: _38  and  _43
REMARK    7  A    between atoms: _43  and  _46
REMARK    8  A    between atoms: _53  and  _55
REMARK                            x       y       z     vdW  Elec       q    Type
REMARK                         _______ _______ _______ _____ _____    ______ ____
ROOT
ATOM     10  C   UNL     1      14.163  21.123   8.417  0.00  0.00    +0.038 A 
ATOM     11  C   UNL     1      15.452  21.325   8.973  0.00  0.00    +0.047 A 
ATOM     12  C   UNL     1      16.304  20.200   9.325  0.00  0.00    +0.035 A 
ATOM     32  C   UNL     1      15.813  18.882   9.094  0.00  0.00    +0.024 A 
ATOM     33  C   UNL     1      14.505  18.659   8.531  0.00  0.00    +0.007 A 
ATOM     34  C   UNL     1      13.658  19.764   8.184  0.00  0.00    -0.029 A 
ATOM     35  C   UNL     1      12.262  19.465   7.589  0.00  0.00    +0.045 C 
ENDROOT
BRANCH  10   9
ATOM      4  C   UNL     1      10.812  24.392   9.477  0.00  0.00    +0.077 A 
ATOM      5  C   UNL     1      10.567  23.810  10.765  0.00  0.00    +0.048 A 
ATOM      6  C   UNL     1      11.320  22.666  11.114  0.00  0.00    +0.116 A 
ATOM      7  N   UNL     1      12.246  22.151  10.232  0.00  0.00    -0.223 NA
ATOM      8  C   UNL     1      12.455  22.736   8.997  0.00  0.00    +0.220 A 
ATOM      9  N   UNL     1      13.386  22.239   8.097  0.00  0.00    -0.283 N 
ATOM     36  H   UNL     1      13.506  22.695   7.193  0.00  0.00    +0.155 HD
ATOM     37  N   UNL     1      11.748  23.828   8.639  0.00  0.00    -0.214 NA
BRANCH   4   3
ATOM      1  C   UNL     1       8.547  27.573   9.252  0.00  0.00    +0.020 A 
ATOM      2  C   UNL     1       9.212  26.411   9.795  0.00  0.00    +0.013 A 
ATOM      3  C   UNL     1      10.098  25.604   8.965  0.00  0.00    +0.019 A 
ATOM     38  C   UNL     1      10.293  26.005   7.580  0.00  0.00    +0.120 A 
ATOM     39  N   UNL     1       9.638  27.128   7.084  0.00  0.00    -0.263 NA
ATOM     40  C   UNL     1       8.781  27.911   7.873  0.00  0.00    +0.111 A 
ENDBRANCH   4   3
ENDBRANCH  10   9
BRANCH  12  13
ATOM     13  N   UNL     1      17.619  20.344   9.900  0.00  0.00    -0.281 N 
ATOM     14  C   UNL     1      18.819  20.551   9.240  0.00  0.00    +0.248 C 
ATOM     30  O   UNL     1      18.974  20.431   8.034  0.00  0.00    -0.270 OA
ATOM     31  H   UNL     1      17.671  20.285  10.917  0.00  0.00    +0.155 HD
BRANCH  14  15
ATOM     15  C   UNL     1      20.024  20.933  10.037  0.00  0.00    +0.037 A 
ATOM     16  C   UNL     1      20.509  20.090  11.133  0.00  0.00    +0.013 A 
ATOM     17  C   UNL     1      21.664  20.491  11.897  0.00  0.00    +0.005 A 
ATOM     18  C   UNL     1      22.344  21.740  11.565  0.00  0.00    -0.033 A 
ATOM     28  C   UNL     1      21.845  22.554  10.469  0.00  0.00    +0.005 A 
ATOM     29  C   UNL     1      20.713  22.166   9.719  0.00  0.00    +0.013 A 
BRANCH  18  19
ATOM     19  C   UNL     1      23.571  22.256  12.340  0.00  0.00    +0.119 C 
BRANCH  19  20
ATOM     20  N   UNL     1      23.671  21.890  13.784  0.00  0.00    -0.302 NA
ATOM     21  C   UNL     1      22.808  22.796  14.667  0.00  0.00    +0.066 C 
ATOM     22  C   UNL     1      22.907  22.384  16.173  0.00  0.00    -0.064 C 
ATOM     23  N   UNL     1      24.371  22.430  16.616  0.00  0.00    +0.379 N 
ATOM     24  C   UNL     1      24.461  22.100  18.046  0.00  0.00    -0.096 C 
ATOM     25  H   UNL     1      24.730  23.478  16.487  0.00  0.00    -0.082 HD
ATOM     26  C   UNL     1      25.236  21.535  15.741  0.00  0.00    -0.064 C 
ATOM     27  C   UNL     1      25.108  21.933  14.244  0.00  0.00    +0.066 C 
ENDBRANCH  19  20
ENDBRANCH  18  19
ENDBRANCH  14  15
ENDBRANCH  12  13
TORSDOF 6
ENDMDL
MODEL 4
REMARK VINA RESULT:      -7.6     13.475     16.506
REMARK  Name = C:\Users\Docking\Desktop\test protocol\1iep_ligandH.pdb
REMARK  8 active torsions:
REMARK  status: ('A' for Active; 'I' for Inactive)
REMARK    1  A    between atoms: _5  and  _11
REMARK    2  A    between atoms: _19  and  _21
REMARK    3  A    between atoms: _22  and  _66
REMARK    4  A    between atoms: _27  and  _30
REMARK    5  A    between atoms: _32  and  _33
REMARK    6  A    between atoms: _38  and  _43
REMARK    7  A    between atoms: _43  and  _46
REMARK    8  A    between atoms: _53  and  _55
REMARK                            x       y       z     vdW  Elec       q    Type
REMARK                         _______ _______ _______ _____ _____    ______ ____
ROOT
ATOM     10  C   UNL     1      27.254  31.773  -4.094  0.00  0.00    +0.038 A 
ATOM     11  C   UNL     1      26.815  32.413  -2.908  0.00  0.00    +0.047 A 
ATOM     12  C   UNL     1      27.107  33.816  -2.656  0.00  0.00    +0.035 A 
ATOM     32  C   UNL     1      27.847  34.538  -3.637  0.00  0.00    +0.024 A 
ATOM     33  C   UNL     1      28.303  33.902  -4.849  0.00  0.00    +0.007 A 
ATOM     34  C   UNL     1      28.020  32.518  -5.101  0.00  0.00    -0.029 A 
ATOM     35  C   UNL     1      28.539  31.888  -6.414  0.00  0.00    +0.045 C 
ENDROOT
BRANCH  10   9
ATOM      4  C   UNL     1      28.179  27.098  -3.522  0.00  0.00    +0.077 A 
ATOM      5  C   UNL     1      29.394  27.365  -2.808  0.00  0.00    +0.048 A 
ATOM      6  C   UNL     1      29.749  28.719  -2.615  0.00  0.00    +0.116 A 
ATOM      7  N   UNL     1      28.942  29.723  -3.104  0.00  0.00    -0.223 NA
ATOM      8  C   UNL     1      27.777  29.431  -3.790  0.00  0.00    +0.220 A 
ATOM      9  N   UNL     1      26.946  30.424  -4.284  0.00  0.00    -0.283 N 
ATOM     36  H   UNL     1      26.099  30.167  -4.791  0.00  0.00    +0.155 HD
ATOM     37  N   UNL     1      27.417  28.146  -3.989  0.00  0.00    -0.214 NA
BRANCH   4   3
ATOM      1  C   UNL     1      27.917  23.390  -4.738  0.00  0.00    +0.020 A 
ATOM      2  C   UNL     1      28.458  24.707  -4.492  0.00  0.00    +0.013 A 
ATOM      3  C   UNL     1      27.668  25.719  -3.803  0.00  0.00    +0.019 A 
ATOM     38  C   UNL     1      26.325  25.364  -3.371  0.00  0.00    +0.120 A 
ATOM     39  N   UNL     1      25.830  24.088  -3.623  0.00  0.00    -0.263 NA
ATOM     40  C   UNL     1      26.580  23.106  -4.287  0.00  0.00    +0.111 A 
ENDBRANCH   4   3
ENDBRANCH  10   9
BRANCH  12  13
ATOM     13  N   UNL     1      26.694  34.517  -1.466  0.00  0.00    -0.281 N 
ATOM     14  C   UNL     1      25.403  34.792  -1.045  0.00  0.00    +0.248 C 
ATOM     30  O   UNL     1      24.406  34.662  -1.740  0.00  0.00    -0.270 OA
ATOM     31  H   UNL     1      27.444  34.851  -0.861  0.00  0.00    +0.155 HD
BRANCH  14  15
ATOM     15  C   UNL     1      25.190  35.298   0.345  0.00  0.00    +0.037 A 
ATOM     16  C   UNL     1      24.302  34.601   1.280  0.00  0.00    +0.013 A 
ATOM     17  C   UNL     1      24.101  35.121   2.610  0.00  0.00    +0.005 A 
ATOM     18  C   UNL     1      24.791  36.343   3.013  0.00  0.00    -0.033 A 
ATOM     28  C   UNL     1      25.670  37.011   2.068  0.00  0.00    +0.005 A 
ATOM     29  C   UNL     1      25.869  36.506   0.763  0.00  0.00    +0.013 A 
BRANCH  18  19
ATOM     19  C   UNL     1      24.619  36.981   4.405  0.00  0.00    +0.119 C 
BRANCH  19  20
ATOM     20  N   UNL     1      24.920  38.438   4.531  0.00  0.00    -0.302 NA
ATOM     21  C   UNL     1      24.626  38.965   5.939  0.00  0.00    +0.066 C 
ATOM     22  C   UNL     1      24.968  40.486   6.060  0.00  0.00    -0.064 C 
ATOM     23  N   UNL     1      24.174  41.269   5.012  0.00  0.00    +0.379 N 
ATOM     24  C   UNL     1      24.449  42.705   5.161  0.00  0.00    -0.096 C 
ATOM     25  H   UNL     1      23.091  41.108   5.219  0.00  0.00    -0.082 HD
ATOM     26  C   UNL     1      24.458  40.749   3.610  0.00  0.00    -0.064 C 
ATOM     27  C   UNL     1      24.143  39.231   3.508  0.00  0.00    +0.066 C 
ENDBRANCH  19  20
ENDBRANCH  18  19
ENDBRANCH  14  15
ENDBRANCH  12  13
TORSDOF 6
ENDMDL
MODEL 5
REMARK VINA RESULT:      -7.5      3.192     12.523
REMARK  Name = C:\Users\Docking\Desktop\test protocol\1iep_ligandH.pdb
REMARK  8 active torsions:
REMARK  status: ('A' for Active; 'I' for Inactive)
REMARK    1  A    between atoms: _5  and  _11
REMARK    2  A    between atoms: _19  and  _21
REMARK    3  A    between atoms: _22  and  _66
REMARK    4  A    between atoms: _27  and  _30
REMARK    5  A    between atoms: _32  and  _33
REMARK    6  A    between atoms: _38  and  _43
REMARK    7  A    between atoms: _43  and  _46
REMARK    8  A    between atoms: _53  and  _55
REMARK                            x       y       z     vdW  Elec       q    Type
REMARK                         _______ _______ _______ _____ _____    ______ ____
ROOT
ATOM     10  C   UNL     1      12.497  22.971   7.887  0.00  0.00    +0.038 A 
ATOM     11  C   UNL     1      13.647  23.427   7.192  0.00  0.00    +0.047 A 
ATOM     12  C   UNL     1      14.986  23.096   7.654  0.00  0.00    +0.035 A 
ATOM     32  C   UNL     1      15.117  22.295   8.825  0.00  0.00    +0.024 A 
ATOM     33  C   UNL     1      13.960  21.824   9.544  0.00  0.00    +0.007 A 
ATOM     34  C   UNL     1      12.637  22.150   9.095  0.00  0.00    -0.029 A 
ATOM     35  C   UNL     1      11.432  21.623   9.909  0.00  0.00    +0.045 C 
ENDROOT
BRANCH  10   9
ATOM      4  C   UNL     1       8.864  26.065   7.373  0.00  0.00    +0.077 A 
ATOM      5  C   UNL     1       9.523  27.062   8.166  0.00  0.00    +0.048 A 
ATOM      6  C   UNL     1      10.793  26.737   8.694  0.00  0.00    +0.116 A 
ATOM      7  N   UNL     1      11.352  25.503   8.440  0.00  0.00    -0.223 NA
ATOM      8  C   UNL     1      10.689  24.563   7.673  0.00  0.00    +0.220 A 
ATOM      9  N   UNL     1      11.236  23.319   7.399  0.00  0.00    -0.283 N 
ATOM     36  H   UNL     1      10.711  22.651   6.835  0.00  0.00    +0.155 HD
ATOM     37  N   UNL     1       9.474  24.849   7.159  0.00  0.00    -0.214 NA
BRANCH   4   3
ATOM      1  C   UNL     1       5.333  27.491   6.477  0.00  0.00    +0.020 A 
ATOM      2  C   UNL     1       6.621  27.346   7.116  0.00  0.00    +0.013 A 
ATOM      3  C   UNL     1       7.519  26.260   6.744  0.00  0.00    +0.019 A 
ATOM     38  C   UNL     1       7.081  25.330   5.715  0.00  0.00    +0.120 A 
ATOM     39  N   UNL     1       5.834  25.493   5.118  0.00  0.00    -0.263 NA
ATOM     40  C   UNL     1       4.961  26.534   5.469  0.00  0.00    +0.111 A 
ENDBRANCH   4   3
ENDBRANCH  10   9
BRANCH  12  13
ATOM     13  N   UNL     1      16.190  23.537   6.994  0.00  0.00    -0.281 N 
ATOM     14  C   UNL     1      16.982  22.829   6.104  0.00  0.00    +0.248 C 
ATOM     30  O   UNL     1      16.891  21.627   5.903  0.00  0.00    -0.270 OA
ATOM     31  H   UNL     1      16.496  24.486   7.210  0.00  0.00    +0.155 HD
BRANCH  14  15
ATOM     15  C   UNL     1      18.036  23.560   5.337  0.00  0.00    +0.037 A 
ATOM     16  C   UNL     1      19.351  22.963   5.095  0.00  0.00    +0.013 A 
ATOM     17  C   UNL     1      20.356  23.696   4.367  0.00  0.00    +0.005 A 
ATOM     18  C   UNL     1      20.048  25.037   3.874  0.00  0.00    -0.033 A 
ATOM     28  C   UNL     1      18.733  25.604   4.124  0.00  0.00    +0.005 A 
ATOM     29  C   UNL     1      17.746  24.888   4.839  0.00  0.00    +0.013 A 
BRANCH  18  19
ATOM     19  C   UNL     1      21.066  25.900   3.106  0.00  0.00    +0.119 C 
BRANCH  19  20
ATOM     20  N   UNL     1      20.551  26.708   1.960  0.00  0.00    -0.302 NA
ATOM     21  C   UNL     1      21.236  26.338   0.642  0.00  0.00    +0.066 C 
ATOM     22  C   UNL     1      20.670  27.176  -0.549  0.00  0.00    -0.064 C 
ATOM     23  N   UNL     1      20.843  28.666  -0.249  0.00  0.00    +0.379 N 
ATOM     24  C   UNL     1      20.364  29.456  -1.392  0.00  0.00    -0.096 C 
ATOM     25  H   UNL     1      21.935  28.863  -0.134  0.00  0.00    -0.082 HD
ATOM     26  C   UNL     1      20.167  29.042   1.062  0.00  0.00    -0.064 C 
ATOM     27  C   UNL     1      20.716  28.183   2.235  0.00  0.00    +0.066 C 
ENDBRANCH  19  20
ENDBRANCH  18  19
ENDBRANCH  14  15
ENDBRANCH  12  13
TORSDOF 6
ENDMDL
