MODEL 1
REMARK VINA RESULT:      -8.6      0.000      0.000
REMARK  Name = C:\Users\Docking\Desktop\test protocol\1iep_ligandH.pdb
REMARK  8 active torsions:
REMARK  status: ('A' for Active; 'I' for Inactive)
REMARK    1  A    between atoms: _5  and  _11
REMARK    2  A    between atoms: _19  and  _21
REMARK    3  A    between atoms: _22  and  _66
REMARK    4  A    between atoms: _27  and  _30
REMARK    5  A    between atoms: _32  and  _33
REMARK    6  A    between atoms: _38  and  _43
REMARK    7  A    between atoms: _43  and  _46
REMARK    8  A    between atoms: _53  and  _55
REMARK                            x       y       z     vdW  Elec       q    Type
REMARK                         _______ _______ _______ _____ _____    ______ ____
ROOT
ATOM     10  C   UNL     1       5.393  -0.729  22.037  0.00  0.00    +0.038 A 
ATOM     11  C   UNL     1       4.887  -0.825  20.715  0.00  0.00    +0.047 A 
ATOM     12  C   UNL     1       5.458  -1.758  19.757  0.00  0.00    +0.035 A 
ATOM     32  C   UNL     1       6.542  -2.581  20.179  0.00  0.00    +0.024 A 
ATOM     33  C   UNL     1       7.070  -2.496  21.518  0.00  0.00    +0.007 A 
ATOM     34  C   UNL     1       6.512  -1.575  22.467  0.00  0.00    -0.029 A 
ATOM     35  C   UNL     1       7.122  -1.522  23.887  0.00  0.00    +0.045 C 
ENDROOT
BRANCH  10   9
ATOM      4  C   UNL     1       5.460   3.347  24.571  0.00  0.00    +0.077 A 
ATOM      5  C   UNL     1       6.786   3.670  24.127  0.00  0.00    +0.048 A 
ATOM      6  C   UNL     1       7.418   2.758  23.253  0.00  0.00    +0.116 A 
ATOM      7  N   UNL     1       6.764   1.611  22.858  0.00  0.00    -0.223 NA
ATOM      8  C   UNL     1       5.487   1.329  23.306  0.00  0.00    +0.220 A 
ATOM      9  N   UNL     1       4.807   0.185  22.916  0.00  0.00    -0.283 N 
ATOM     36  H   UNL     1       3.869   0.009  23.274  0.00  0.00    +0.155 HD
ATOM     37  N   UNL     1       4.862   2.183  24.142  0.00  0.00    -0.214 NA
BRANCH   4   3
ATOM      1  C   UNL     1       4.356   5.525  27.626  0.00  0.00    +0.020 A 
ATOM      2  C   UNL     1       5.169   4.691  26.773  0.00  0.00    +0.013 A 
ATOM      3  C   UNL     1       4.660   4.213  25.493  0.00  0.00    +0.019 A 
ATOM     38  C   UNL     1       3.313   4.601  25.104  0.00  0.00    +0.120 A 
ATOM     39  N   UNL     1       2.552   5.405  25.947  0.00  0.00    -0.263 NA
ATOM     40  C   UNL     1       3.031   5.869  27.182  0.00  0.00    +0.111 A 
ENDBRANCH   4   3
ENDBRANCH  10   9
BRANCH  12  13
ATOM     13  N   UNL     1       4.991  -1.894  18.399  0.00  0.00    -0.281 N 
ATOM     14  C   UNL     1       4.413  -3.003  17.805  0.00  0.00    +0.248 C 
ATOM     30  O   UNL     1       4.404  -4.124  18.293  0.00  0.00    -0.270 OA
ATOM     31  H   UNL     1       5.101  -1.073  17.804  0.00  0.00    +0.155 HD
BRANCH  14  15
ATOM     15  C   UNL     1       3.763  -2.850  16.467  0.00  0.00    +0.037 A 
ATOM     16  C   UNL     1       4.413  -2.101  15.388  0.00  0.00    +0.013 A 
ATOM     17  C   UNL     1       3.756  -1.954  14.113  0.00  0.00    +0.005 A 
ATOM     18  C   UNL     1       2.442  -2.557  13.911  0.00  0.00    -0.033 A 
ATOM     28  C   UNL     1       1.822  -3.299  14.997  0.00  0.00    +0.005 A 
ATOM     29  C   UNL     1       2.462  -3.445  16.248  0.00  0.00    +0.013 A 
BRANCH  18  19
ATOM     19  C   UNL     1       1.659  -2.433  12.590  0.00  0.00    +0.119 C 
BRANCH  19  20
ATOM     20  N   UNL     1       1.335  -3.697  11.865  0.00  0.00    -0.302 NA
ATOM     21  C   UNL     1       2.574  -4.319  11.215  0.00  0.00    +0.066 C 
ATOM     22  C   UNL     1       2.222  -5.653  10.479  0.00  0.00    -0.064 C 
ATOM     23  N   UNL     1       1.139  -5.385   9.433  0.00  0.00    +0.379 N 
ATOM     24  C   UNL     1       0.847  -6.625   8.700  0.00  0.00    -0.096 C 
ATOM     25  H   UNL     1       1.549  -4.649   8.703  0.00  0.00    -0.082 HD
ATOM     26  C   UNL     1      -0.096  -4.764  10.071  0.00  0.00    -0.064 C 
ATOM     27  C   UNL     1       0.270  -3.454  10.824  0.00  0.00    +0.066 C 
ENDBRANCH  19  20
ENDBRANCH  18  19
ENDBRANCH  14  15
ENDBRANCH  12  13
TORSDOF 6
ENDMDL
MODEL 2
REMARK VINA RESULT:      -8.2      1.812     13.115
REMARK  Name = C:\Users\Docking\Desktop\test protocol\1iep_ligandH.pdb
REMARK  8 active torsions:
REMARK  status: ('A' for Active; 'I' for Inactive)
REMARK    1  A    between atoms: _5  and  _11
REMARK    2  A    between atoms: _19  and  _21
REMARK    3  A    between atoms: _22  and  _66
REMARK    4  A    between atoms: _27  and  _30
REMARK    5  A    between atoms: _32  and  _33
REMARK    6  A    between atoms: _38  and  _43
REMARK    7  A    between atoms: _43  and  _46
REMARK    8  A    between atoms: _53  and  _55
REMARK                            x       y       z     vdW  Elec       q    Type
REMARK                         _______ _______ _______ _____ _____    ______ ____
ROOT
ATOM     10  C   UNL     1       4.631  -3.662  17.225  0.00  0.00    +0.038 A 
ATOM     11  C   UNL     1       4.471  -2.636  18.191  0.00  0.00    +0.047 A 
ATOM     12  C   UNL     1       5.504  -2.365  19.179  0.00  0.00    +0.035 A 
ATOM     32  C   UNL     1       6.689  -3.157  19.152  0.00  0.00    +0.024 A 
ATOM     33  C   UNL     1       6.867  -4.205  18.178  0.00  0.00    +0.007 A 
ATOM     34  C   UNL     1       5.851  -4.478  17.203  0.00  0.00    -0.029 A 
ATOM     35  C   UNL     1       6.093  -5.618  16.186  0.00  0.00    +0.045 C 
ENDROOT
BRANCH  10   9
ATOM      4  C   UNL     1       2.595  -2.990  12.930  0.00  0.00    +0.077 A 
ATOM      5  C   UNL     1       3.646  -2.112  12.504  0.00  0.00    +0.048 A 
ATOM      6  C   UNL     1       4.689  -1.854  13.422  0.00  0.00    +0.116 A 
ATOM      7  N   UNL     1       4.671  -2.435  14.671  0.00  0.00    -0.223 NA
ATOM      8  C   UNL     1       3.641  -3.276  15.051  0.00  0.00    +0.220 A 
ATOM      9  N   UNL     1       3.607  -3.879  16.300  0.00  0.00    -0.283 N 
ATOM     36  H   UNL     1       2.827  -4.487  16.545  0.00  0.00    +0.155 HD
ATOM     37  N   UNL     1       2.634  -3.538  14.193  0.00  0.00    -0.214 NA
BRANCH   4   3
ATOM      1  C   UNL     1      -0.871  -2.944  11.119  0.00  0.00    +0.020 A 
ATOM      2  C   UNL     1       0.230  -2.539  11.962  0.00  0.00    +0.013 A 
ATOM      3  C   UNL     1       1.426  -3.363  12.073  0.00  0.00    +0.019 A 
ATOM     38  C   UNL     1       1.478  -4.602  11.310  0.00  0.00    +0.120 A 
ATOM     39  N   UNL     1       0.402  -4.968  10.508  0.00  0.00    -0.263 NA
ATOM     40  C   UNL     1      -0.756  -4.183  10.395  0.00  0.00    +0.111 A 
ENDBRANCH   4   3
ENDBRANCH  10   9
BRANCH  12  13
ATOM     13  N   UNL     1       5.394  -1.342  20.189  0.00  0.00    -0.281 N 
ATOM     14  C   UNL     1       5.748  -1.424  21.526  0.00  0.00    +0.248 C 
ATOM     30  O   UNL     1       6.016  -2.465  22.107  0.00  0.00    -0.270 OA
ATOM     31  H   UNL     1       5.009  -0.449  19.881  0.00  0.00    +0.155 HD
BRANCH  14  15
ATOM     15  C   UNL     1       5.797  -0.170  22.338  0.00  0.00    +0.037 A 
ATOM     16  C   UNL     1       6.326  -0.169  23.704  0.00  0.00    +0.013 A 
ATOM     17  C   UNL     1       6.346   1.051  24.471  0.00  0.00    +0.005 A 
ATOM     18  C   UNL     1       5.837   2.282  23.872  0.00  0.00    -0.033 A 
ATOM     28  C   UNL     1       5.323   2.254  22.513  0.00  0.00    +0.005 A 
ATOM     29  C   UNL     1       5.300   1.060  21.758  0.00  0.00    +0.013 A 
BRANCH  18  19
ATOM     19  C   UNL     1       5.800   3.625  24.625  0.00  0.00    +0.119 C 
BRANCH  19  20
ATOM     20  N   UNL     1       4.677   3.840  25.586  0.00  0.00    -0.302 NA
ATOM     21  C   UNL     1       3.489   4.551  24.931  0.00  0.00    +0.066 C 
ATOM     22  C   UNL     1       2.315   4.748  25.944  0.00  0.00    -0.064 C 
ATOM     23  N   UNL     1       2.817   5.536  27.156  0.00  0.00    +0.379 N 
ATOM     24  C   UNL     1       1.701   5.772  28.084  0.00  0.00    -0.096 C 
ATOM     25  H   UNL     1       3.170   6.528  26.791  0.00  0.00    -0.082 HD
ATOM     26  C   UNL     1       4.000   4.837  27.811  0.00  0.00    -0.064 C 
ATOM     27  C   UNL     1       5.150   4.620  26.788  0.00  0.00    +0.066 C 
ENDBRANCH  19  20
ENDBRANCH  18  19
ENDBRANCH  14  15
ENDBRANCH  12  13
TORSDOF 6
ENDMDL
MODEL 3
REMARK VINA RESULT:      -8.2     12.662     15.406
REMARK  Name = C:\Users\Docking\Desktop\test protocol\1iep_ligandH.pdb
REMARK  8 active torsions:
REMARK  status: ('A' for Active; 'I' for Inactive)
REMARK    1  A    between atoms: _5  and  _11
REMARK    2  A    between atoms: _19  and  _21
REMARK    3  A    between atoms: _22  and  _66
REMARK    4  A    between atoms: _27  and  _30
REMARK    5  A    between atoms: _32  and  _33
REMARK    6  A    between atoms: _38  and  _43
REMARK    7  A    between atoms: _43  and  _46
REMARK    8  A    between atoms: _53  and  _55
REMARK                            x       y       z     vdW  Elec       q    Type
REMARK                         _______ _______ _______ _____ _____    ______ ____
ROOT
ATOM     10  C   UNL     1       4.334   8.399  31.849  0.00  0.00    +0.038 A 
ATOM     11  C   UNL     1       5.144   7.292  31.490  0.00  0.00    +0.047 A 
ATOM     12  C   UNL     1       6.568   7.274  31.788  0.00  0.00    +0.035 A 
ATOM     32  C   UNL     1       7.133   8.400  32.454  0.00  0.00    +0.024 A 
ATOM     33  C   UNL     1       6.324   9.535  32.825  0.00  0.00    +0.007 A 
ATOM     34  C   UNL     1       4.920   9.559  32.532  0.00  0.00    -0.029 A 
ATOM     35  C   UNL     1       4.102  10.804  32.947  0.00  0.00    +0.045 C 
ENDROOT
BRANCH  10   9
ATOM      4  C   UNL     1       0.631   6.848  29.218  0.00  0.00    +0.077 A 
ATOM      5  C   UNL     1       1.484   6.064  28.372  0.00  0.00    +0.048 A 
ATOM      6  C   UNL     1       2.871   6.092  28.643  0.00  0.00    +0.116 A 
ATOM      7  N   UNL     1       3.356   6.852  29.685  0.00  0.00    -0.223 NA
ATOM      8  C   UNL     1       2.506   7.598  30.481  0.00  0.00    +0.220 A 
ATOM      9  N   UNL     1       2.972   8.363  31.539  0.00  0.00    -0.283 N 
ATOM     36  H   UNL     1       2.314   8.906  32.098  0.00  0.00    +0.155 HD
ATOM     37  N   UNL     1       1.179   7.589  30.241  0.00  0.00    -0.214 NA
BRANCH   4   3
ATOM      1  C   UNL     1      -3.034   6.160  28.039  0.00  0.00    +0.020 A 
ATOM      2  C   UNL     1      -1.598   6.052  28.153  0.00  0.00    +0.013 A 
ATOM      3  C   UNL     1      -0.856   6.918  29.060  0.00  0.00    +0.019 A 
ATOM     38  C   UNL     1      -1.603   7.891  29.844  0.00  0.00    +0.120 A 
ATOM     39  N   UNL     1      -2.986   7.973  29.711  0.00  0.00    -0.263 NA
ATOM     40  C   UNL     1      -3.710   7.145  28.840  0.00  0.00    +0.111 A 
ENDBRANCH   4   3
ENDBRANCH  10   9
BRANCH  12  13
ATOM     13  N   UNL     1       7.443   6.181  31.441  0.00  0.00    -0.281 N 
ATOM     14  C   UNL     1       8.114   5.974  30.247  0.00  0.00    +0.248 C 
ATOM     30  O   UNL     1       7.895   6.590  29.214  0.00  0.00    -0.270 OA
ATOM     31  H   UNL     1       7.584   5.475  32.163  0.00  0.00    +0.155 HD
BRANCH  14  15
ATOM     15  C   UNL     1       9.173   4.920  30.187  0.00  0.00    +0.037 A 
ATOM     16  C   UNL     1      10.329   5.055  29.298  0.00  0.00    +0.013 A 
ATOM     17  C   UNL     1      11.327   4.016  29.247  0.00  0.00    +0.005 A 
ATOM     18  C   UNL     1      11.173   2.833  30.091  0.00  0.00    -0.033 A 
ATOM     28  C   UNL     1      10.018   2.728  30.968  0.00  0.00    +0.005 A 
ATOM     29  C   UNL     1       9.038   3.744  31.019  0.00  0.00    +0.013 A 
BRANCH  18  19
ATOM     19  C   UNL     1      12.177   1.665  30.086  0.00  0.00    +0.119 C 
BRANCH  19  20
ATOM     20  N   UNL     1      11.742   0.392  29.439  0.00  0.00    -0.302 NA
ATOM     21  C   UNL     1      12.484  -0.823  30.006  0.00  0.00    +0.066 C 
ATOM     22  C   UNL     1      12.000  -2.149  29.334  0.00  0.00    -0.064 C 
ATOM     23  N   UNL     1      12.197  -2.052  27.820  0.00  0.00    +0.379 N 
ATOM     24  C   UNL     1      11.798  -3.319  27.191  0.00  0.00    -0.096 C 
ATOM     25  H   UNL     1      13.286  -1.908  27.630  0.00  0.00    -0.082 HD
ATOM     26  C   UNL     1      11.466  -0.846  27.249  0.00  0.00    -0.064 C 
ATOM     27  C   UNL     1      11.932   0.464  27.944  0.00  0.00    +0.066 C 
ENDBRANCH  19  20
ENDBRANCH  18  19
ENDBRANCH  14  15
ENDBRANCH  12  13
TORSDOF 6
ENDMDL
MODEL 4
REMARK VINA RESULT:      -8.1      4.240     12.644
REMARK  Name = C:\Users\Docking\Desktop\test protocol\1iep_ligandH.pdb
REMARK  8 active torsions:
REMARK  status: ('A' for Active; 'I' for Inactive)
REMARK    1  A    between atoms: _5  and  _11
REMARK    2  A    between atoms: _19  and  _21
REMARK    3  A    between atoms: _22  and  _66
REMARK    4  A    between atoms: _27  and  _30
REMARK    5  A    between atoms: _32  and  _33
REMARK    6  A    between atoms: _38  and  _43
REMARK    7  A    between atoms: _43  and  _46
REMARK    8  A    between atoms: _53  and  _55
REMARK                            x       y       z     vdW  Elec       q    Type
REMARK                         _______ _______ _______ _____ _____    ______ ____
ROOT
ATOM     10  C   UNL     1       2.139  -1.502  12.304  0.00  0.00    +0.038 A 
ATOM     11  C   UNL     1       2.772  -1.549  13.573  0.00  0.00    +0.047 A 
ATOM     12  C   UNL     1       2.382  -2.532  14.572  0.00  0.00    +0.035 A 
ATOM     32  C   UNL     1       1.346  -3.455  14.244  0.00  0.00    +0.024 A 
ATOM     33  C   UNL     1       0.692  -3.420  12.960  0.00  0.00    +0.007 A 
ATOM     34  C   UNL     1       1.070  -2.451  11.971  0.00  0.00    -0.029 A 
ATOM     35  C   UNL     1       0.330  -2.456  10.614  0.00  0.00    +0.045 C 
ENDROOT
BRANCH  10   9
ATOM      4  C   UNL     1       1.672   2.753  10.134  0.00  0.00    +0.077 A 
ATOM      5  C   UNL     1       0.488   3.070  10.879  0.00  0.00    +0.048 A 
ATOM      6  C   UNL     1       0.028   2.108  11.806  0.00  0.00    +0.116 A 
ATOM      7  N   UNL     1       0.709   0.921  11.968  0.00  0.00    -0.223 NA
ATOM      8  C   UNL     1       1.847   0.646  11.231  0.00  0.00    +0.220 A 
ATOM      9  N   UNL     1       2.553  -0.537  11.383  0.00  0.00    -0.283 N 
ATOM     36  H   UNL     1       3.383  -0.705  10.816  0.00  0.00    +0.155 HD
ATOM     37  N   UNL     1       2.306   1.548  10.339  0.00  0.00    -0.214 NA
BRANCH   4   3
ATOM      1  C   UNL     1       2.137   5.260   7.167  0.00  0.00    +0.020 A 
ATOM      2  C   UNL     1       1.497   4.387   8.124  0.00  0.00    +0.013 A 
ATOM      3  C   UNL     1       2.283   3.669   9.119  0.00  0.00    +0.019 A 
ATOM     38  C   UNL     1       3.726   3.858   9.119  0.00  0.00    +0.120 A 
ATOM     39  N   UNL     1       4.314   4.704   8.185  0.00  0.00    -0.263 NA
ATOM     40  C   UNL     1       3.568   5.399   7.221  0.00  0.00    +0.111 A 
ENDBRANCH   4   3
ENDBRANCH  10   9
BRANCH  12  13
ATOM     13  N   UNL     1       2.983  -2.623  15.880  0.00  0.00    -0.281 N 
ATOM     14  C   UNL     1       3.863  -3.584  16.348  0.00  0.00    +0.248 C 
ATOM     30  O   UNL     1       4.103  -4.638  15.777  0.00  0.00    -0.270 OA
ATOM     31  H   UNL     1       2.728  -1.889  16.541  0.00  0.00    +0.155 HD
BRANCH  14  15
ATOM     15  C   UNL     1       4.568  -3.348  17.645  0.00  0.00    +0.037 A 
ATOM     16  C   UNL     1       4.839  -4.448  18.574  0.00  0.00    +0.013 A 
ATOM     17  C   UNL     1       5.505  -4.189  19.826  0.00  0.00    +0.005 A 
ATOM     18  C   UNL     1       5.907  -2.824  20.154  0.00  0.00    -0.033 A 
ATOM     28  C   UNL     1       5.631  -1.752  19.212  0.00  0.00    +0.005 A 
ATOM     29  C   UNL     1       4.977  -2.002  17.984  0.00  0.00    +0.013 A 
BRANCH  18  19
ATOM     19  C   UNL     1       6.605  -2.453  21.477  0.00  0.00    +0.119 C 
BRANCH  19  20
ATOM     20  N   UNL     1       6.707  -1.001  21.812  0.00  0.00    -0.302 NA
ATOM     21  C   UNL     1       8.007  -0.672  22.550  0.00  0.00    +0.066 C 
ATOM     22  C   UNL     1       8.109   0.854  22.873  0.00  0.00    -0.064 C 
ATOM     23  N   UNL     1       6.894   1.280  23.699  0.00  0.00    +0.379 N 
ATOM     24  C   UNL     1       7.015   2.701  24.054  0.00  0.00    -0.096 C 
ATOM     25  H   UNL     1       6.907   0.692  24.647  0.00  0.00    -0.082 HD
ATOM     26  C   UNL     1       5.596   0.954  22.973  0.00  0.00    -0.064 C 
ATOM     27  C   UNL     1       5.519  -0.560  22.631  0.00  0.00    +0.066 C 
ENDBRANCH  19  20
ENDBRANCH  18  19
ENDBRANCH  14  15
ENDBRANCH  12  13
TORSDOF 6
ENDMDL
MODEL 5
REMARK VINA RESULT:      -8.1      1.798      2.923
REMARK  Name = C:\Users\Docking\Desktop\test protocol\1iep_ligandH.pdb
REMARK  8 active torsions:
REMARK  status: ('A' for Active; 'I' for Inactive)
REMARK    1  A    between atoms: _5  and  _11
REMARK    2  A    between atoms: _19  and  _21
REMARK    3  A    between atoms: _22  and  _66
REMARK    4  A    between atoms: _27  and  _30
REMARK    5  A    between atoms: _32  and  _33
REMARK    6  A    between atoms: _38  and  _43
REMARK    7  A    between atoms: _43  and  _46
REMARK    8  A    between atoms: _53  and  _55
REMARK                            x       y       z     vdW  Elec       q    Type
REMARK                         _______ _______ _______ _____ _____    ______ ____
ROOT
ATOM     10  C   UNL     1       5.391  -0.939  21.769  0.00  0.00    +0.038 A 
ATOM     11  C   UNL     1       5.003  -0.997  20.406  0.00  0.00    +0.047 A 
ATOM     12  C   UNL     1       5.592  -1.968  19.497  0.00  0.00    +0.035 A 
ATOM     32  C   UNL     1       6.571  -2.867  20.011  0.00  0.00    +0.024 A 
ATOM     33  C   UNL     1       6.978  -2.821  21.393  0.00  0.00    +0.007 A 
ATOM     34  C   UNL     1       6.403  -1.864  22.294  0.00  0.00    -0.029 A 
ATOM     35  C   UNL     1       6.882  -1.855  23.765  0.00  0.00    +0.045 C 
ENDROOT
BRANCH  10   9
ATOM      4  C   UNL     1       5.489   3.163  24.261  0.00  0.00    +0.077 A 
ATOM      5  C   UNL     1       6.855   3.416  23.904  0.00  0.00    +0.048 A 
ATOM      6  C   UNL     1       7.499   2.462  23.083  0.00  0.00    +0.116 A 
ATOM      7  N   UNL     1       6.817   1.343  22.657  0.00  0.00    -0.223 NA
ATOM      8  C   UNL     1       5.500   1.128  23.021  0.00  0.00    +0.220 A 
ATOM      9  N   UNL     1       4.793   0.014  22.598  0.00  0.00    -0.283 N 
ATOM     36  H   UNL     1       3.826  -0.112  22.894  0.00  0.00    +0.155 HD
ATOM     37  N   UNL     1       4.864   2.023  23.805  0.00  0.00    -0.214 NA
BRANCH   4   3
ATOM      1  C   UNL     1       2.551   5.330  25.666  0.00  0.00    +0.020 A 
ATOM      2  C   UNL     1       3.296   4.442  24.803  0.00  0.00    +0.013 A 
ATOM      3  C   UNL     1       4.672   4.078  25.119  0.00  0.00    +0.019 A 
ATOM     38  C   UNL     1       5.269   4.634  26.324  0.00  0.00    +0.120 A 
ATOM     39  N   UNL     1       4.528   5.488  27.135  0.00  0.00    -0.263 NA
ATOM     40  C   UNL     1       3.203   5.846  26.840  0.00  0.00    +0.111 A 
ENDBRANCH   4   3
ENDBRANCH  10   9
BRANCH  12  13
ATOM     13  N   UNL     1       5.243  -2.069  18.102  0.00  0.00    -0.281 N 
ATOM     14  C   UNL     1       4.761  -3.176  17.422  0.00  0.00    +0.248 C 
ATOM     30  O   UNL     1       4.759  -4.314  17.869  0.00  0.00    -0.270 OA
ATOM     31  H   UNL     1       5.367  -1.222  17.548  0.00  0.00    +0.155 HD
BRANCH  14  15
ATOM     15  C   UNL     1       4.217  -2.996  16.042  0.00  0.00    +0.037 A 
ATOM     16  C   UNL     1       2.773  -2.981  15.791  0.00  0.00    +0.013 A 
ATOM     17  C   UNL     1       2.275  -2.822  14.447  0.00  0.00    +0.005 A 
ATOM     18  C   UNL     1       3.222  -2.676  13.345  0.00  0.00    -0.033 A 
ATOM     28  C   UNL     1       4.649  -2.688  13.623  0.00  0.00    +0.005 A 
ATOM     29  C   UNL     1       5.141  -2.845  14.939  0.00  0.00    +0.013 A 
BRANCH  18  19
ATOM     19  C   UNL     1       2.780  -2.522  11.877  0.00  0.00    +0.119 C 
BRANCH  19  20
ATOM     20  N   UNL     1       2.344  -1.165  11.433  0.00  0.00    -0.302 NA
ATOM     21  C   UNL     1       2.910  -0.058  12.327  0.00  0.00    +0.066 C 
ATOM     22  C   UNL     1       2.462   1.356  11.834  0.00  0.00    -0.064 C 
ATOM     23  N   UNL     1       0.935   1.420  11.795  0.00  0.00    +0.379 N 
ATOM     24  C   UNL     1       0.510   2.767  11.387  0.00  0.00    -0.096 C 
ATOM     25  H   UNL     1       0.562   1.247  12.831  0.00  0.00    -0.082 HD
ATOM     26  C   UNL     1       0.364   0.321  10.910  0.00  0.00    -0.064 C 
ATOM     27  C   UNL     1       0.838  -1.079  11.391  0.00  0.00    +0.066 C 
ENDBRANCH  19  20
ENDBRANCH  18  19
ENDBRANCH  14  15
ENDBRANCH  12  13
TORSDOF 6
ENDMDL
