MODEL 1
REMARK VINA RESULT:      -8.6      0.000      0.000
REMARK  Name = C:\Users\Docking\Desktop\test protocol\1iep_ligandH.pdb
REMARK  8 active torsions:
REMARK  status: ('A' for Active; 'I' for Inactive)
REMARK    1  A    between atoms: _5  and  _11
REMARK    2  A    between atoms: _19  and  _21
REMARK    3  A    between atoms: _22  and  _66
REMARK    4  A    between atoms: _27  and  _30
REMARK    5  A    between atoms: _32  and  _33
REMARK    6  A    between atoms: _38  and  _43
REMARK    7  A    between atoms: _43  and  _46
REMARK    8  A    between atoms: _53  and  _55
REMARK                            x       y       z     vdW  Elec       q    Type
REMARK                         _______ _______ _______ _____ _____    ______ ____
ROOT
ATOM     10  C   UNL     1       5.527  -0.700  22.414  0.00  0.00    +0.038 A 
ATOM     11  C   UNL     1       5.068  -0.843  21.080  0.00  0.00    +0.047 A 
ATOM     12  C   UNL     1       5.715  -1.759  20.154  0.00  0.00    +0.035 A 
ATOM     32  C   UNL     1       6.828  -2.518  20.623  0.00  0.00    +0.024 A 
ATOM     33  C   UNL     1       7.309  -2.385  21.975  0.00  0.00    +0.007 A 
ATOM     34  C   UNL     1       6.675  -1.480  22.892  0.00  0.00    -0.029 A 
ATOM     35  C   UNL     1       7.237  -1.374  24.328  0.00  0.00    +0.045 C 
ENDROOT
BRANCH  10   9
ATOM      4  C   UNL     1       5.271   3.446  24.817  0.00  0.00    +0.077 A 
ATOM      5  C   UNL     1       6.572   3.853  24.372  0.00  0.00    +0.048 A 
ATOM      6  C   UNL     1       7.278   2.964  23.531  0.00  0.00    +0.116 A 
ATOM      7  N   UNL     1       6.714   1.759  23.169  0.00  0.00    -0.223 NA
ATOM      8  C   UNL     1       5.457   1.397  23.618  0.00  0.00    +0.220 A 
ATOM      9  N   UNL     1       4.867   0.194  23.260  0.00  0.00    -0.283 N 
ATOM     36  H   UNL     1       3.942  -0.040  23.618  0.00  0.00    +0.155 HD
ATOM     37  N   UNL     1       4.764   2.228  24.423  0.00  0.00    -0.214 NA
BRANCH   4   3
ATOM      1  C   UNL     1       4.001   5.687  27.761  0.00  0.00    +0.020 A 
ATOM      2  C   UNL     1       4.882   4.892  26.938  0.00  0.00    +0.013 A 
ATOM      3  C   UNL     1       4.400   4.279  25.707  0.00  0.00    +0.019 A 
ATOM     38  C   UNL     1       3.010   4.492  25.334  0.00  0.00    +0.120 A 
ATOM     39  N   UNL     1       2.184   5.262  26.147  0.00  0.00    -0.263 NA
ATOM     40  C   UNL     1       2.637   5.855  27.335  0.00  0.00    +0.111 A 
ENDBRANCH   4   3
ENDBRANCH  10   9
BRANCH  12  13
ATOM     13  N   UNL     1       5.298  -1.940  18.786  0.00  0.00    -0.281 N 
ATOM     14  C   UNL     1       4.647  -3.029  18.231  0.00  0.00    +0.248 C 
ATOM     30  O   UNL     1       4.513  -4.110  18.785  0.00  0.00    -0.270 OA
ATOM     31  H   UNL     1       5.509  -1.171  18.149  0.00  0.00    +0.155 HD
BRANCH  14  15
ATOM     15  C   UNL     1       4.073  -2.904  16.856  0.00  0.00    +0.037 A 
ATOM     16  C   UNL     1       4.665  -2.002  15.865  0.00  0.00    +0.013 A 
ATOM     17  C   UNL     1       4.082  -1.887  14.552  0.00  0.00    +0.005 A 
ATOM     18  C   UNL     1       2.900  -2.679  14.222  0.00  0.00    -0.033 A 
ATOM     28  C   UNL     1       2.336  -3.570  15.223  0.00  0.00    +0.005 A 
ATOM     29  C   UNL     1       2.904  -3.684  16.511  0.00  0.00    +0.013 A 
BRANCH  18  19
ATOM     19  C   UNL     1       2.199  -2.605  12.853  0.00  0.00    +0.119 C 
BRANCH  19  20
ATOM     20  N   UNL     1       1.797  -3.896  12.219  0.00  0.00    -0.302 NA
ATOM     21  C   UNL     1       2.977  -4.590  11.531  0.00  0.00    +0.066 C 
ATOM     22  C   UNL     1       2.544  -5.950  10.893  0.00  0.00    -0.064 C 
ATOM     23  N   UNL     1       1.406  -5.705   9.901  0.00  0.00    +0.379 N 
ATOM     24  C   UNL     1       1.036  -6.974   9.256  0.00  0.00    -0.096 C 
ATOM     25  H   UNL     1       1.790  -5.022   9.108  0.00  0.00    -0.082 HD
ATOM     26  C   UNL     1       0.230  -5.013  10.576  0.00  0.00    -0.064 C 
ATOM     27  C   UNL     1       0.677  -3.677  11.232  0.00  0.00    +0.066 C 
ENDBRANCH  19  20
ENDBRANCH  18  19
ENDBRANCH  14  15
ENDBRANCH  12  13
TORSDOF 6
ENDMDL
MODEL 2
REMARK VINA RESULT:      -8.5      2.009      2.939
REMARK  Name = C:\Users\Docking\Desktop\test protocol\1iep_ligandH.pdb
REMARK  8 active torsions:
REMARK  status: ('A' for Active; 'I' for Inactive)
REMARK    1  A    between atoms: _5  and  _11
REMARK    2  A    between atoms: _19  and  _21
REMARK    3  A    between atoms: _22  and  _66
REMARK    4  A    between atoms: _27  and  _30
REMARK    5  A    between atoms: _32  and  _33
REMARK    6  A    between atoms: _38  and  _43
REMARK    7  A    between atoms: _43  and  _46
REMARK    8  A    between atoms: _53  and  _55
REMARK                            x       y       z     vdW  Elec       q    Type
REMARK                         _______ _______ _______ _____ _____    ______ ____
ROOT
ATOM     10  C   UNL     1       5.622  -0.712  22.631  0.00  0.00    +0.038 A 
ATOM     11  C   UNL     1       5.237  -0.778  21.268  0.00  0.00    +0.047 A 
ATOM     12  C   UNL     1       5.887  -1.696  20.346  0.00  0.00    +0.035 A 
ATOM     32  C   UNL     1       6.924  -2.535  20.847  0.00  0.00    +0.024 A 
ATOM     33  C   UNL     1       7.329  -2.480  22.230  0.00  0.00    +0.007 A 
ATOM     34  C   UNL     1       6.694  -1.575  23.143  0.00  0.00    -0.029 A 
ATOM     35  C   UNL     1       7.173  -1.554  24.613  0.00  0.00    +0.045 C 
ENDROOT
BRANCH  10   9
ATOM      4  C   UNL     1       5.323   3.493  24.926  0.00  0.00    +0.077 A 
ATOM      5  C   UNL     1       6.598   3.922  24.429  0.00  0.00    +0.048 A 
ATOM      6  C   UNL     1       7.302   3.029  23.591  0.00  0.00    +0.116 A 
ATOM      7  N   UNL     1       6.762   1.800  23.280  0.00  0.00    -0.223 NA
ATOM      8  C   UNL     1       5.530   1.416  23.778  0.00  0.00    +0.220 A 
ATOM      9  N   UNL     1       4.964   0.188  23.473  0.00  0.00    -0.283 N 
ATOM     36  H   UNL     1       4.057  -0.061  23.866  0.00  0.00    +0.155 HD
ATOM     37  N   UNL     1       4.839   2.251  24.582  0.00  0.00    -0.214 NA
BRANCH   4   3
ATOM      1  C   UNL     1       4.055   5.695  27.900  0.00  0.00    +0.020 A 
ATOM      2  C   UNL     1       4.932   4.897  27.074  0.00  0.00    +0.013 A 
ATOM      3  C   UNL     1       4.458   4.326  25.820  0.00  0.00    +0.019 A 
ATOM     38  C   UNL     1       3.081   4.584  25.427  0.00  0.00    +0.120 A 
ATOM     39  N   UNL     1       2.259   5.355  26.243  0.00  0.00    -0.263 NA
ATOM     40  C   UNL     1       2.704   5.908  27.453  0.00  0.00    +0.111 A 
ENDBRANCH   4   3
ENDBRANCH  10   9
BRANCH  12  13
ATOM     13  N   UNL     1       5.543  -1.802  18.949  0.00  0.00    -0.281 N 
ATOM     14  C   UNL     1       4.773  -2.774  18.333  0.00  0.00    +0.248 C 
ATOM     30  O   UNL     1       4.437  -3.825  18.858  0.00  0.00    -0.270 OA
ATOM     31  H   UNL     1       5.913  -1.071  18.342  0.00  0.00    +0.155 HD
BRANCH  14  15
ATOM     15  C   UNL     1       4.323  -2.554  16.925  0.00  0.00    +0.037 A 
ATOM     16  C   UNL     1       5.114  -1.748  15.991  0.00  0.00    +0.013 A 
ATOM     17  C   UNL     1       4.649  -1.537  14.644  0.00  0.00    +0.005 A 
ATOM     18  C   UNL     1       3.384  -2.134  14.221  0.00  0.00    -0.033 A 
ATOM     28  C   UNL     1       2.622  -2.933  15.166  0.00  0.00    +0.005 A 
ATOM     29  C   UNL     1       3.075  -3.142  16.488  0.00  0.00    +0.013 A 
BRANCH  18  19
ATOM     19  C   UNL     1       2.800  -1.944  12.809  0.00  0.00    +0.119 C 
BRANCH  19  20
ATOM     20  N   UNL     1       2.318  -0.578  12.446  0.00  0.00    -0.302 NA
ATOM     21  C   UNL     1       1.297  -0.612  11.306  0.00  0.00    +0.066 C 
ATOM     22  C   UNL     1       0.787   0.823  10.955  0.00  0.00    -0.064 C 
ATOM     23  N   UNL     1       1.978   1.709  10.588  0.00  0.00    +0.379 N 
ATOM     24  C   UNL     1       1.497   3.044  10.201  0.00  0.00    -0.096 C 
ATOM     25  H   UNL     1       2.474   1.257   9.698  0.00  0.00    -0.082 HD
ATOM     26  C   UNL     1       3.000   1.747  11.715  0.00  0.00    -0.064 C 
ATOM     27  C   UNL     1       3.479   0.313  12.076  0.00  0.00    +0.066 C 
ENDBRANCH  19  20
ENDBRANCH  18  19
ENDBRANCH  14  15
ENDBRANCH  12  13
TORSDOF 6
ENDMDL
MODEL 3
REMARK VINA RESULT:      -8.0      1.795     13.043
REMARK  Name = C:\Users\Docking\Desktop\test protocol\1iep_ligandH.pdb
REMARK  8 active torsions:
REMARK  status: ('A' for Active; 'I' for Inactive)
REMARK    1  A    between atoms: _5  and  _11
REMARK    2  A    between atoms: _19  and  _21
REMARK    3  A    between atoms: _22  and  _66
REMARK    4  A    between atoms: _27  and  _30
REMARK    5  A    between atoms: _32  and  _33
REMARK    6  A    between atoms: _38  and  _43
REMARK    7  A    between atoms: _43  and  _46
REMARK    8  A    between atoms: _53  and  _55
REMARK                            x       y       z     vdW  Elec       q    Type
REMARK                         _______ _______ _______ _____ _____    ______ ____
ROOT
ATOM     10  C   UNL     1       4.971  -3.728  17.458  0.00  0.00    +0.038 A 
ATOM     11  C   UNL     1       4.741  -2.674  18.379  0.00  0.00    +0.047 A 
ATOM     12  C   UNL     1       5.727  -2.333  19.393  0.00  0.00    +0.035 A 
ATOM     32  C   UNL     1       6.938  -3.084  19.438  0.00  0.00    +0.024 A 
ATOM     33  C   UNL     1       7.187  -4.159  18.510  0.00  0.00    +0.007 A 
ATOM     34  C   UNL     1       6.217  -4.502  17.509  0.00  0.00    -0.029 A 
ATOM     35  C   UNL     1       6.535  -5.668  16.545  0.00  0.00    +0.045 C 
ENDROOT
BRANCH  10   9
ATOM      4  C   UNL     1       2.840  -2.980  13.223  0.00  0.00    +0.077 A 
ATOM      5  C   UNL     1       3.741  -1.914  12.891  0.00  0.00    +0.048 A 
ATOM      6  C   UNL     1       4.733  -1.584  13.841  0.00  0.00    +0.116 A 
ATOM      7  N   UNL     1       4.811  -2.276  15.030  0.00  0.00    -0.223 NA
ATOM      8  C   UNL     1       3.925  -3.298  15.319  0.00  0.00    +0.220 A 
ATOM      9  N   UNL     1       3.990  -4.013  16.505  0.00  0.00    -0.283 N 
ATOM     36  H   UNL     1       3.314  -4.755  16.684  0.00  0.00    +0.155 HD
ATOM     37  N   UNL     1       2.967  -3.631  14.429  0.00  0.00    -0.214 NA
BRANCH   4   3
ATOM      1  C   UNL     1      -0.458  -3.129  11.125  0.00  0.00    +0.020 A 
ATOM      2  C   UNL     1       0.576  -2.630  12.002  0.00  0.00    +0.013 A 
ATOM      3  C   UNL     1       1.740  -3.448  12.321  0.00  0.00    +0.019 A 
ATOM     38  C   UNL     1       1.828  -4.775  11.731  0.00  0.00    +0.120 A 
ATOM     39  N   UNL     1       0.816  -5.229  10.892  0.00  0.00    -0.263 NA
ATOM     40  C   UNL     1      -0.310  -4.452  10.578  0.00  0.00    +0.111 A 
ENDBRANCH   4   3
ENDBRANCH  10   9
BRANCH  12  13
ATOM     13  N   UNL     1       5.546  -1.279  20.360  0.00  0.00    -0.281 N 
ATOM     14  C   UNL     1       5.540  -1.383  21.742  0.00  0.00    +0.248 C 
ATOM     30  O   UNL     1       5.476  -2.438  22.355  0.00  0.00    -0.270 OA
ATOM     31  H   UNL     1       5.405  -0.343  19.981  0.00  0.00    +0.155 HD
BRANCH  14  15
ATOM     15  C   UNL     1       5.598  -0.133  22.560  0.00  0.00    +0.037 A 
ATOM     16  C   UNL     1       6.183  -0.131  23.903  0.00  0.00    +0.013 A 
ATOM     17  C   UNL     1       6.211   1.084  24.678  0.00  0.00    +0.005 A 
ATOM     18  C   UNL     1       5.654   2.309  24.109  0.00  0.00    -0.033 A 
ATOM     28  C   UNL     1       5.084   2.280  22.772  0.00  0.00    +0.005 A 
ATOM     29  C   UNL     1       5.053   1.090  22.011  0.00  0.00    +0.013 A 
BRANCH  18  19
ATOM     19  C   UNL     1       5.622   3.646  24.872  0.00  0.00    +0.119 C 
BRANCH  19  20
ATOM     20  N   UNL     1       4.524   3.841  25.866  0.00  0.00    -0.302 NA
ATOM     21  C   UNL     1       3.246   4.375  25.214  0.00  0.00    +0.066 C 
ATOM     22  C   UNL     1       2.102   4.551  26.264  0.00  0.00    -0.064 C 
ATOM     23  N   UNL     1       2.574   5.488  27.376  0.00  0.00    +0.379 N 
ATOM     24  C   UNL     1       1.480   5.702  28.335  0.00  0.00    -0.096 C 
ATOM     25  H   UNL     1       2.813   6.473  26.910  0.00  0.00    -0.082 HD
ATOM     26  C   UNL     1       3.846   4.966  28.029  0.00  0.00    -0.064 C 
ATOM     27  C   UNL     1       4.968   4.767  26.972  0.00  0.00    +0.066 C 
ENDBRANCH  19  20
ENDBRANCH  18  19
ENDBRANCH  14  15
ENDBRANCH  12  13
TORSDOF 6
ENDMDL
MODEL 4
REMARK VINA RESULT:      -7.9      3.368      4.443
REMARK  Name = C:\Users\Docking\Desktop\test protocol\1iep_ligandH.pdb
REMARK  8 active torsions:
REMARK  status: ('A' for Active; 'I' for Inactive)
REMARK    1  A    between atoms: _5  and  _11
REMARK    2  A    between atoms: _19  and  _21
REMARK    3  A    between atoms: _22  and  _66
REMARK    4  A    between atoms: _27  and  _30
REMARK    5  A    between atoms: _32  and  _33
REMARK    6  A    between atoms: _38  and  _43
REMARK    7  A    between atoms: _43  and  _46
REMARK    8  A    between atoms: _53  and  _55
REMARK                            x       y       z     vdW  Elec       q    Type
REMARK                         _______ _______ _______ _____ _____    ______ ____
ROOT
ATOM     10  C   UNL     1       5.354  -0.650  22.097  0.00  0.00    +0.038 A 
ATOM     11  C   UNL     1       5.287  -0.390  20.705  0.00  0.00    +0.047 A 
ATOM     12  C   UNL     1       5.935  -1.269  19.743  0.00  0.00    +0.035 A 
ATOM     32  C   UNL     1       6.641  -2.405  20.235  0.00  0.00    +0.024 A 
ATOM     33  C   UNL     1       6.720  -2.683  21.648  0.00  0.00    +0.007 A 
ATOM     34  C   UNL     1       6.085  -1.819  22.601  0.00  0.00    -0.029 A 
ATOM     35  C   UNL     1       6.208  -2.162  24.104  0.00  0.00    +0.045 C 
ENDROOT
BRANCH  10   9
ATOM      4  C   UNL     1       5.245   3.334  24.772  0.00  0.00    +0.077 A 
ATOM      5  C   UNL     1       6.588   3.685  24.410  0.00  0.00    +0.048 A 
ATOM      6  C   UNL     1       7.275   2.809  23.539  0.00  0.00    +0.116 A 
ATOM      7  N   UNL     1       6.655   1.671  23.071  0.00  0.00    -0.223 NA
ATOM      8  C   UNL     1       5.359   1.362  23.441  0.00  0.00    +0.220 A 
ATOM      9  N   UNL     1       4.713   0.227  22.976  0.00  0.00    -0.283 N 
ATOM     36  H   UNL     1       3.759   0.030  23.278  0.00  0.00    +0.155 HD
ATOM     37  N   UNL     1       4.682   2.181  24.273  0.00  0.00    -0.214 NA
BRANCH   4   3
ATOM      1  C   UNL     1       4.029   5.585  27.731  0.00  0.00    +0.020 A 
ATOM      2  C   UNL     1       4.899   4.798  26.888  0.00  0.00    +0.013 A 
ATOM      3  C   UNL     1       4.388   4.159  25.681  0.00  0.00    +0.019 A 
ATOM     38  C   UNL     1       2.982   4.339  25.353  0.00  0.00    +0.120 A 
ATOM     39  N   UNL     1       2.168   5.102  26.185  0.00  0.00    -0.263 NA
ATOM     40  C   UNL     1       2.648   5.719  27.350  0.00  0.00    +0.111 A 
ENDBRANCH   4   3
ENDBRANCH  10   9
BRANCH  12  13
ATOM     13  N   UNL     1       5.908  -1.051  18.318  0.00  0.00    -0.281 N 
ATOM     14  C   UNL     1       5.247  -1.797  17.355  0.00  0.00    +0.248 C 
ATOM     30  O   UNL     1       4.751  -2.896  17.553  0.00  0.00    -0.270 OA
ATOM     31  H   UNL     1       6.440  -0.251  17.978  0.00  0.00    +0.155 HD
BRANCH  14  15
ATOM     15  C   UNL     1       5.135  -1.249  15.969  0.00  0.00    +0.037 A 
ATOM     16  C   UNL     1       6.170  -0.376  15.411  0.00  0.00    +0.013 A 
ATOM     17  C   UNL     1       6.029   0.153  14.078  0.00  0.00    +0.005 A 
ATOM     18  C   UNL     1       4.847  -0.193  13.292  0.00  0.00    -0.033 A 
ATOM     28  C   UNL     1       3.838  -1.066  13.868  0.00  0.00    +0.005 A 
ATOM     29  C   UNL     1       3.972  -1.585  15.175  0.00  0.00    +0.013 A 
BRANCH  18  19
ATOM     19  C   UNL     1       4.603   0.342  11.868  0.00  0.00    +0.119 C 
BRANCH  19  20
ATOM     20  N   UNL     1       5.153   1.691  11.541  0.00  0.00    -0.302 NA
ATOM     21  C   UNL     1       4.047   2.732  11.348  0.00  0.00    +0.066 C 
ATOM     22  C   UNL     1       4.641   4.142  11.029  0.00  0.00    -0.064 C 
ATOM     23  N   UNL     1       5.522   4.051   9.782  0.00  0.00    +0.379 N 
ATOM     24  C   UNL     1       6.036   5.386   9.445  0.00  0.00    -0.096 C 
ATOM     25  H   UNL     1       4.878   3.713   8.937  0.00  0.00    -0.082 HD
ATOM     26  C   UNL     1       6.624   3.016   9.964  0.00  0.00    -0.064 C 
ATOM     27  C   UNL     1       6.023   1.625  10.310  0.00  0.00    +0.066 C 
ENDBRANCH  19  20
ENDBRANCH  18  19
ENDBRANCH  14  15
ENDBRANCH  12  13
TORSDOF 6
ENDMDL
MODEL 5
REMARK VINA RESULT:      -7.7      5.375      8.746
REMARK  Name = C:\Users\Docking\Desktop\test protocol\1iep_ligandH.pdb
REMARK  8 active torsions:
REMARK  status: ('A' for Active; 'I' for Inactive)
REMARK    1  A    between atoms: _5  and  _11
REMARK    2  A    between atoms: _19  and  _21
REMARK    3  A    between atoms: _22  and  _66
REMARK    4  A    between atoms: _27  and  _30
REMARK    5  A    between atoms: _32  and  _33
REMARK    6  A    between atoms: _38  and  _43
REMARK    7  A    between atoms: _43  and  _46
REMARK    8  A    between atoms: _53  and  _55
REMARK                            x       y       z     vdW  Elec       q    Type
REMARK                         _______ _______ _______ _____ _____    ______ ____
ROOT
ATOM     10  C   UNL     1       3.344  -3.808  15.262  0.00  0.00    +0.038 A 
ATOM     11  C   UNL     1       2.934  -2.596  14.651  0.00  0.00    +0.047 A 
ATOM     12  C   UNL     1       2.745  -2.505  13.211  0.00  0.00    +0.035 A 
ATOM     32  C   UNL     1       2.979  -3.670  12.424  0.00  0.00    +0.024 A 
ATOM     33  C   UNL     1       3.396  -4.910  13.029  0.00  0.00    +0.007 A 
ATOM     34  C   UNL     1       3.587  -5.005  14.448  0.00  0.00    -0.029 A 
ATOM     35  C   UNL     1       4.043  -6.359  15.041  0.00  0.00    +0.045 C 
ENDROOT
BRANCH  10   9
ATOM      4  C   UNL     1       5.457  -2.317  19.305  0.00  0.00    +0.077 A 
ATOM      5  C   UNL     1       6.321  -1.420  18.593  0.00  0.00    +0.048 A 
ATOM      6  C   UNL     1       6.195  -1.378  17.186  0.00  0.00    +0.116 A 
ATOM      7  N   UNL     1       5.270  -2.177  16.550  0.00  0.00    -0.223 NA
ATOM      8  C   UNL     1       4.453  -3.032  17.267  0.00  0.00    +0.220 A 
ATOM      9  N   UNL     1       3.510  -3.839  16.648  0.00  0.00    -0.283 N 
ATOM     36  H   UNL     1       2.932  -4.462  17.212  0.00  0.00    +0.155 HD
ATOM     37  N   UNL     1       4.555  -3.092  18.611  0.00  0.00    -0.214 NA
BRANCH   4   3
ATOM      1  C   UNL     1       5.477  -3.867  22.897  0.00  0.00    +0.020 A 
ATOM      2  C   UNL     1       5.465  -3.772  21.455  0.00  0.00    +0.013 A 
ATOM      3  C   UNL     1       5.468  -2.473  20.794  0.00  0.00    +0.019 A 
ATOM     38  C   UNL     1       5.485  -1.280  21.627  0.00  0.00    +0.120 A 
ATOM     39  N   UNL     1       5.495  -1.402  23.013  0.00  0.00    -0.263 NA
ATOM     40  C   UNL     1       5.490  -2.647  23.660  0.00  0.00    +0.111 A 
ENDBRANCH   4   3
ENDBRANCH  10   9
BRANCH  12  13
ATOM     13  N   UNL     1       2.338  -1.299  12.534  0.00  0.00    -0.281 N 
ATOM     14  C   UNL     1       2.674   0.008  12.847  0.00  0.00    +0.248 C 
ATOM     30  O   UNL     1       3.206   0.354  13.891  0.00  0.00    -0.270 OA
ATOM     31  H   UNL     1       1.728  -1.424  11.726  0.00  0.00    +0.155 HD
BRANCH  14  15
ATOM     15  C   UNL     1       2.360   1.090  11.864  0.00  0.00    +0.037 A 
ATOM     16  C   UNL     1       1.100   1.096  11.117  0.00  0.00    +0.013 A 
ATOM     17  C   UNL     1       0.830   2.141  10.162  0.00  0.00    +0.005 A 
ATOM     18  C   UNL     1       1.823   3.191   9.950  0.00  0.00    -0.033 A 
ATOM     28  C   UNL     1       3.063   3.163  10.707  0.00  0.00    +0.005 A 
ATOM     29  C   UNL     1       3.332   2.140  11.644  0.00  0.00    +0.013 A 
BRANCH  18  19
ATOM     19  C   UNL     1       1.628   4.334   8.935  0.00  0.00    +0.119 C 
BRANCH  19  20
ATOM     20  N   UNL     1       1.514   3.957   7.495  0.00  0.00    -0.302 NA
ATOM     21  C   UNL     1       2.853   4.077   6.761  0.00  0.00    +0.066 C 
ATOM     22  C   UNL     1       2.720   3.658   5.261  0.00  0.00    -0.064 C 
ATOM     23  N   UNL     1       1.653   4.522   4.586  0.00  0.00    +0.379 N 
ATOM     24  C   UNL     1       1.566   4.170   3.161  0.00  0.00    -0.096 C 
ATOM     25  H   UNL     1       1.986   5.584   4.653  0.00  0.00    -0.082 HD
ATOM     26  C   UNL     1       0.319   4.411   5.310  0.00  0.00    -0.064 C 
ATOM     27  C   UNL     1       0.469   4.801   6.807  0.00  0.00    +0.066 C 
ENDBRANCH  19  20
ENDBRANCH  18  19
ENDBRANCH  14  15
ENDBRANCH  12  13
TORSDOF 6
ENDMDL
