MODEL 1
REMARK VINA RESULT:      -9.2      0.000      0.000
REMARK  Name = C:\Users\Docking\Desktop\test protocol\1iep_ligandH.pdb
REMARK  8 active torsions:
REMARK  status: ('A' for Active; 'I' for Inactive)
REMARK    1  A    between atoms: _5  and  _11
REMARK    2  A    between atoms: _19  and  _21
REMARK    3  A    between atoms: _22  and  _66
REMARK    4  A    between atoms: _27  and  _30
REMARK    5  A    between atoms: _32  and  _33
REMARK    6  A    between atoms: _38  and  _43
REMARK    7  A    between atoms: _43  and  _46
REMARK    8  A    between atoms: _53  and  _55
REMARK                            x       y       z     vdW  Elec       q    Type
REMARK                         _______ _______ _______ _____ _____    ______ ____
ROOT
ATOM     10  C   UNL     1       1.022  33.870  14.285  0.00  0.00    +0.038 A 
ATOM     11  C   UNL     1       1.462  35.088  14.863  0.00  0.00    +0.047 A 
ATOM     12  C   UNL     1       1.250  36.360  14.188  0.00  0.00    +0.035 A 
ATOM     32  C   UNL     1       0.584  36.353  12.928  0.00  0.00    +0.024 A 
ATOM     33  C   UNL     1       0.132  35.124  12.326  0.00  0.00    +0.007 A 
ATOM     34  C   UNL     1       0.341  33.866  12.985  0.00  0.00    -0.029 A 
ATOM     35  C   UNL     1      -0.159  32.578  12.290  0.00  0.00    +0.045 C 
ENDROOT
BRANCH  10   9
ATOM      4  C   UNL     1      -0.388  30.331  17.205  0.00  0.00    +0.077 A 
ATOM      5  C   UNL     1      -1.683  30.920  17.390  0.00  0.00    +0.048 A 
ATOM      6  C   UNL     1      -1.943  32.138  16.723  0.00  0.00    +0.116 A 
ATOM      7  N   UNL     1      -0.974  32.714  15.931  0.00  0.00    -0.223 NA
ATOM      8  C   UNL     1       0.265  32.120  15.774  0.00  0.00    +0.220 A 
ATOM      9  N   UNL     1       1.252  32.678  14.976  0.00  0.00    -0.283 N 
ATOM     36  H   UNL     1       2.156  32.213  14.893  0.00  0.00    +0.155 HD
ATOM     37  N   UNL     1       0.539  30.958  16.403  0.00  0.00    -0.214 NA
BRANCH   4   3
ATOM      1  C   UNL     1       1.712  27.207  18.269  0.00  0.00    +0.020 A 
ATOM      2  C   UNL     1       1.351  28.452  17.630  0.00  0.00    +0.013 A 
ATOM      3  C   UNL     1       0.037  29.044  17.842  0.00  0.00    +0.019 A 
ATOM     38  C   UNL     1      -0.897  28.347  18.713  0.00  0.00    +0.120 A 
ATOM     39  N   UNL     1      -0.522  27.149  19.314  0.00  0.00    -0.263 NA
ATOM     40  C   UNL     1       0.739  26.568  19.116  0.00  0.00    +0.111 A 
ENDBRANCH   4   3
ENDBRANCH  10   9
BRANCH  12  13
ATOM     13  N   UNL     1       1.681  37.628  14.722  0.00  0.00    -0.281 N 
ATOM     14  C   UNL     1       2.590  38.518  14.174  0.00  0.00    +0.248 C 
ATOM     30  O   UNL     1       3.335  38.257  13.241  0.00  0.00    -0.270 OA
ATOM     31  H   UNL     1       1.265  37.903  15.612  0.00  0.00    +0.155 HD
BRANCH  14  15
ATOM     15  C   UNL     1       2.698  39.890  14.755  0.00  0.00    +0.037 A 
ATOM     16  C   UNL     1       1.737  40.941  14.407  0.00  0.00    +0.013 A 
ATOM     17  C   UNL     1       1.874  42.261  14.968  0.00  0.00    +0.005 A 
ATOM     18  C   UNL     1       2.975  42.538  15.887  0.00  0.00    -0.033 A 
ATOM     28  C   UNL     1       3.911  41.476  16.220  0.00  0.00    +0.005 A 
ATOM     29  C   UNL     1       3.781  40.181  15.670  0.00  0.00    +0.013 A 
BRANCH  18  19
ATOM     19  C   UNL     1       3.210  43.923  16.518  0.00  0.00    +0.119 C 
BRANCH  19  20
ATOM     20  N   UNL     1       2.766  45.115  15.735  0.00  0.00    -0.302 NA
ATOM     21  C   UNL     1       3.669  46.329  15.973  0.00  0.00    +0.066 C 
ATOM     22  C   UNL     1       3.203  47.560  15.130  0.00  0.00    -0.064 C 
ATOM     23  N   UNL     1       1.750  47.890  15.475  0.00  0.00    +0.379 N 
ATOM     24  C   UNL     1       1.327  49.082  14.726  0.00  0.00    -0.096 C 
ATOM     25  H   UNL     1       1.708  48.140  16.561  0.00  0.00    -0.082 HD
ATOM     26  C   UNL     1       0.845  46.688  15.243  0.00  0.00    -0.064 C 
ATOM     27  C   UNL     1       1.334  45.462  16.063  0.00  0.00    +0.066 C 
ENDBRANCH  19  20
ENDBRANCH  18  19
ENDBRANCH  14  15
ENDBRANCH  12  13
TORSDOF 6
ENDMDL
MODEL 2
REMARK VINA RESULT:      -9.1      0.901      1.650
REMARK  Name = C:\Users\Docking\Desktop\test protocol\1iep_ligandH.pdb
REMARK  8 active torsions:
REMARK  status: ('A' for Active; 'I' for Inactive)
REMARK    1  A    between atoms: _5  and  _11
REMARK    2  A    between atoms: _19  and  _21
REMARK    3  A    between atoms: _22  and  _66
REMARK    4  A    between atoms: _27  and  _30
REMARK    5  A    between atoms: _32  and  _33
REMARK    6  A    between atoms: _38  and  _43
REMARK    7  A    between atoms: _43  and  _46
REMARK    8  A    between atoms: _53  and  _55
REMARK                            x       y       z     vdW  Elec       q    Type
REMARK                         _______ _______ _______ _____ _____    ______ ____
ROOT
ATOM     10  C   UNL     1       0.301  34.260  14.548  0.00  0.00    +0.038 A 
ATOM     11  C   UNL     1       0.807  35.444  15.142  0.00  0.00    +0.047 A 
ATOM     12  C   UNL     1       1.169  36.597  14.333  0.00  0.00    +0.035 A 
ATOM     32  C   UNL     1       1.000  36.510  12.920  0.00  0.00    +0.024 A 
ATOM     33  C   UNL     1       0.489  35.314  12.299  0.00  0.00    +0.007 A 
ATOM     34  C   UNL     1       0.133  34.172  13.092  0.00  0.00    -0.029 A 
ATOM     35  C   UNL     1      -0.405  32.914  12.373  0.00  0.00    +0.045 C 
ENDROOT
BRANCH  10   9
ATOM      4  C   UNL     1       1.387  30.166  16.805  0.00  0.00    +0.077 A 
ATOM      5  C   UNL     1       2.720  30.157  16.274  0.00  0.00    +0.048 A 
ATOM      6  C   UNL     1       3.084  31.221  15.418  0.00  0.00    +0.116 A 
ATOM      7  N   UNL     1       2.175  32.213  15.122  0.00  0.00    -0.223 NA
ATOM      8  C   UNL     1       0.897  32.191  15.650  0.00  0.00    +0.220 A 
ATOM      9  N   UNL     1      -0.030  33.183  15.373  0.00  0.00    -0.283 N 
ATOM     36  H   UNL     1      -0.965  33.126  15.777  0.00  0.00    +0.155 HD
ATOM     37  N   UNL     1       0.525  31.185  16.469  0.00  0.00    -0.214 NA
BRANCH   4   3
ATOM      1  C   UNL     1       1.129  27.081  19.197  0.00  0.00    +0.020 A 
ATOM      2  C   UNL     1       1.693  28.075  18.312  0.00  0.00    +0.013 A 
ATOM      3  C   UNL     1       0.855  29.112  17.726  0.00  0.00    +0.019 A 
ATOM     38  C   UNL     1      -0.562  29.117  18.058  0.00  0.00    +0.120 A 
ATOM     39  N   UNL     1      -1.078  28.147  18.912  0.00  0.00    -0.263 NA
ATOM     40  C   UNL     1      -0.280  27.142  19.480  0.00  0.00    +0.111 A 
ENDBRANCH   4   3
ENDBRANCH  10   9
BRANCH  12  13
ATOM     13  N   UNL     1       1.694  37.824  14.879  0.00  0.00    -0.281 N 
ATOM     14  C   UNL     1       2.601  38.695  14.299  0.00  0.00    +0.248 C 
ATOM     30  O   UNL     1       3.265  38.441  13.304  0.00  0.00    -0.270 OA
ATOM     31  H   UNL     1       1.357  38.081  15.807  0.00  0.00    +0.155 HD
BRANCH  14  15
ATOM     15  C   UNL     1       2.813  40.037  14.921  0.00  0.00    +0.037 A 
ATOM     16  C   UNL     1       3.884  40.263  15.895  0.00  0.00    +0.013 A 
ATOM     17  C   UNL     1       4.055  41.564  16.493  0.00  0.00    +0.005 A 
ATOM     18  C   UNL     1       3.153  42.650  16.116  0.00  0.00    -0.033 A 
ATOM     28  C   UNL     1       2.102  42.399  15.143  0.00  0.00    +0.005 A 
ATOM     29  C   UNL     1       1.931  41.126  14.556  0.00  0.00    +0.013 A 
BRANCH  18  19
ATOM     19  C   UNL     1       3.249  44.064  16.719  0.00  0.00    +0.119 C 
BRANCH  19  20
ATOM     20  N   UNL     1       2.802  45.203  15.864  0.00  0.00    -0.302 NA
ATOM     21  C   UNL     1       3.717  46.422  16.007  0.00  0.00    +0.066 C 
ATOM     22  C   UNL     1       3.248  47.597  15.088  0.00  0.00    -0.064 C 
ATOM     23  N   UNL     1       1.803  47.963  15.431  0.00  0.00    +0.379 N 
ATOM     24  C   UNL     1       1.378  49.105  14.609  0.00  0.00    -0.096 C 
ATOM     25  H   UNL     1       1.779  48.286  16.497  0.00  0.00    -0.082 HD
ATOM     26  C   UNL     1       0.886  46.755  15.294  0.00  0.00    -0.064 C 
ATOM     27  C   UNL     1       1.378  45.583  16.188  0.00  0.00    +0.066 C 
ENDBRANCH  19  20
ENDBRANCH  18  19
ENDBRANCH  14  15
ENDBRANCH  12  13
TORSDOF 6
ENDMDL
MODEL 3
REMARK VINA RESULT:      -8.6     16.145     20.847
REMARK  Name = C:\Users\Docking\Desktop\test protocol\1iep_ligandH.pdb
REMARK  8 active torsions:
REMARK  status: ('A' for Active; 'I' for Inactive)
REMARK    1  A    between atoms: _5  and  _11
REMARK    2  A    between atoms: _19  and  _21
REMARK    3  A    between atoms: _22  and  _66
REMARK    4  A    between atoms: _27  and  _30
REMARK    5  A    between atoms: _32  and  _33
REMARK    6  A    between atoms: _38  and  _43
REMARK    7  A    between atoms: _43  and  _46
REMARK    8  A    between atoms: _53  and  _55
REMARK                            x       y       z     vdW  Elec       q    Type
REMARK                         _______ _______ _______ _____ _____    ______ ____
ROOT
ATOM     10  C   UNL     1      12.343  36.294   5.769  0.00  0.00    +0.038 A 
ATOM     11  C   UNL     1      11.722  35.901   4.557  0.00  0.00    +0.047 A 
ATOM     12  C   UNL     1      11.751  34.516   4.111  0.00  0.00    +0.035 A 
ATOM     32  C   UNL     1      12.418  33.557   4.928  0.00  0.00    +0.024 A 
ATOM     33  C   UNL     1      13.056  33.940   6.163  0.00  0.00    +0.007 A 
ATOM     34  C   UNL     1      13.033  35.305   6.606  0.00  0.00    -0.029 A 
ATOM     35  C   UNL     1      13.739  35.660   7.936  0.00  0.00    +0.045 C 
ENDROOT
BRANCH  10   9
ATOM      4  C   UNL     1      13.965  40.809   5.618  0.00  0.00    +0.077 A 
ATOM      5  C   UNL     1      15.035  40.457   4.729  0.00  0.00    +0.048 A 
ATOM      6  C   UNL     1      15.137  39.103   4.341  0.00  0.00    +0.116 A 
ATOM      7  N   UNL     1      14.231  38.177   4.812  0.00  0.00    -0.223 NA
ATOM      8  C   UNL     1      13.212  38.550   5.669  0.00  0.00    +0.220 A 
ATOM      9  N   UNL     1      12.285  37.637   6.149  0.00  0.00    -0.283 N 
ATOM     36  H   UNL     1      11.553  37.950   6.785  0.00  0.00    +0.155 HD
ATOM     37  N   UNL     1      13.094  39.837   6.056  0.00  0.00    -0.214 NA
BRANCH   4   3
ATOM      1  C   UNL     1      14.386  44.253   7.424  0.00  0.00    +0.020 A 
ATOM      2  C   UNL     1      14.667  42.911   6.971  0.00  0.00    +0.013 A 
ATOM      3  C   UNL     1      13.724  42.200   6.116  0.00  0.00    +0.019 A 
ATOM     38  C   UNL     1      12.496  42.882   5.735  0.00  0.00    +0.120 A 
ATOM     39  N   UNL     1      12.252  44.175   6.188  0.00  0.00    -0.263 NA
ATOM     40  C   UNL     1      13.151  44.868   7.012  0.00  0.00    +0.111 A 
ENDBRANCH   4   3
ENDBRANCH  10   9
BRANCH  12  13
ATOM     13  N   UNL     1      11.145  34.059   2.885  0.00  0.00    -0.281 N 
ATOM     14  C   UNL     1      11.338  34.550   1.605  0.00  0.00    +0.248 C 
ATOM     30  O   UNL     1      11.903  35.603   1.346  0.00  0.00    -0.270 OA
ATOM     31  H   UNL     1      10.494  33.278   2.972  0.00  0.00    +0.155 HD
BRANCH  14  15
ATOM     15  C   UNL     1      10.816  33.766   0.444  0.00  0.00    +0.037 A 
ATOM     16  C   UNL     1       9.377  33.599   0.226  0.00  0.00    +0.013 A 
ATOM     17  C   UNL     1       8.901  32.823  -0.892  0.00  0.00    +0.005 A 
ATOM     18  C   UNL     1       9.866  32.211  -1.802  0.00  0.00    -0.033 A 
ATOM     28  C   UNL     1      11.288  32.398  -1.565  0.00  0.00    +0.005 A 
ATOM     29  C   UNL     1      11.758  33.156  -0.470  0.00  0.00    +0.013 A 
BRANCH  18  19
ATOM     19  C   UNL     1       9.448  31.350  -3.008  0.00  0.00    +0.119 C 
BRANCH  19  20
ATOM     20  N   UNL     1       8.647  32.015  -4.079  0.00  0.00    -0.302 NA
ATOM     21  C   UNL     1       8.342  31.067  -5.242  0.00  0.00    +0.066 C 
ATOM     22  C   UNL     1       7.486  31.773  -6.343  0.00  0.00    -0.064 C 
ATOM     23  N   UNL     1       8.223  33.019  -6.838  0.00  0.00    +0.379 N 
ATOM     24  C   UNL     1       7.447  33.653  -7.914  0.00  0.00    -0.096 C 
ATOM     25  H   UNL     1       9.194  32.686  -7.273  0.00  0.00    -0.082 HD
ATOM     26  C   UNL     1       8.532  33.966  -5.688  0.00  0.00    -0.064 C 
ATOM     27  C   UNL     1       9.359  33.246  -4.586  0.00  0.00    +0.066 C 
ENDBRANCH  19  20
ENDBRANCH  18  19
ENDBRANCH  14  15
ENDBRANCH  12  13
TORSDOF 6
ENDMDL
MODEL 4
REMARK VINA RESULT:      -8.6      6.627     13.031
REMARK  Name = C:\Users\Docking\Desktop\test protocol\1iep_ligandH.pdb
REMARK  8 active torsions:
REMARK  status: ('A' for Active; 'I' for Inactive)
REMARK    1  A    between atoms: _5  and  _11
REMARK    2  A    between atoms: _19  and  _21
REMARK    3  A    between atoms: _22  and  _66
REMARK    4  A    between atoms: _27  and  _30
REMARK    5  A    between atoms: _32  and  _33
REMARK    6  A    between atoms: _38  and  _43
REMARK    7  A    between atoms: _43  and  _46
REMARK    8  A    between atoms: _53  and  _55
REMARK                            x       y       z     vdW  Elec       q    Type
REMARK                         _______ _______ _______ _____ _____    ______ ____
ROOT
ATOM     10  C   UNL     1       1.328  24.023  23.057  0.00  0.00    +0.038 A 
ATOM     11  C   UNL     1       1.551  25.039  22.093  0.00  0.00    +0.047 A 
ATOM     12  C   UNL     1       0.441  25.756  21.484  0.00  0.00    +0.035 A 
ATOM     32  C   UNL     1      -0.883  25.415  21.884  0.00  0.00    +0.024 A 
ATOM     33  C   UNL     1      -1.128  24.384  22.862  0.00  0.00    +0.007 A 
ATOM     34  C   UNL     1      -0.038  23.672  23.464  0.00  0.00    -0.029 A 
ATOM     35  C   UNL     1      -0.359  22.572  24.502  0.00  0.00    +0.045 C 
ENDROOT
BRANCH  10   9
ATOM      4  C   UNL     1       4.568  23.387  26.541  0.00  0.00    +0.077 A 
ATOM      5  C   UNL     1       4.035  24.471  27.315  0.00  0.00    +0.048 A 
ATOM      6  C   UNL     1       2.932  25.171  26.778  0.00  0.00    +0.116 A 
ATOM      7  N   UNL     1       2.408  24.806  25.557  0.00  0.00    -0.223 NA
ATOM      8  C   UNL     1       2.947  23.757  24.835  0.00  0.00    +0.220 A 
ATOM      9  N   UNL     1       2.431  23.367  23.609  0.00  0.00    -0.283 N 
ATOM     36  H   UNL     1       2.861  22.593  23.104  0.00  0.00    +0.155 HD
ATOM     37  N   UNL     1       4.001  23.073  25.326  0.00  0.00    -0.214 NA
BRANCH   4   3
ATOM      1  C   UNL     1       7.969  21.456  26.583  0.00  0.00    +0.020 A 
ATOM      2  C   UNL     1       6.872  22.271  26.114  0.00  0.00    +0.013 A 
ATOM      3  C   UNL     1       5.730  22.549  26.976  0.00  0.00    +0.019 A 
ATOM     38  C   UNL     1       5.730  21.985  28.317  0.00  0.00    +0.120 A 
ATOM     39  N   UNL     1       6.800  21.203  28.740  0.00  0.00    -0.263 NA
ATOM     40  C   UNL     1       7.903  20.926  27.919  0.00  0.00    +0.111 A 
ENDBRANCH   4   3
ENDBRANCH  10   9
BRANCH  12  13
ATOM     13  N   UNL     1       0.606  26.791  20.494  0.00  0.00    -0.281 N 
ATOM     14  C   UNL     1       1.152  26.677  19.226  0.00  0.00    +0.248 C 
ATOM     30  O   UNL     1       1.779  25.707  18.828  0.00  0.00    -0.270 OA
ATOM     31  H   UNL     1       0.281  27.721  20.760  0.00  0.00    +0.155 HD
BRANCH  14  15
ATOM     15  C   UNL     1       0.989  27.810  18.265  0.00  0.00    +0.037 A 
ATOM     16  C   UNL     1      -0.263  28.568  18.189  0.00  0.00    +0.013 A 
ATOM     17  C   UNL     1      -0.400  29.646  17.242  0.00  0.00    +0.005 A 
ATOM     18  C   UNL     1       0.721  29.973  16.363  0.00  0.00    -0.033 A 
ATOM     28  C   UNL     1       1.953  29.209  16.463  0.00  0.00    +0.005 A 
ATOM     29  C   UNL     1       2.090  28.151  17.390  0.00  0.00    +0.013 A 
BRANCH  18  19
ATOM     19  C   UNL     1       0.656  31.093  15.308  0.00  0.00    +0.119 C 
BRANCH  19  20
ATOM     20  N   UNL     1       0.897  32.490  15.778  0.00  0.00    -0.302 NA
ATOM     21  C   UNL     1      -0.015  33.499  15.073  0.00  0.00    +0.066 C 
ATOM     22  C   UNL     1       0.235  34.952  15.593  0.00  0.00    -0.064 C 
ATOM     23  N   UNL     1       1.706  35.318  15.389  0.00  0.00    +0.379 N 
ATOM     24  C   UNL     1       1.931  36.704  15.824  0.00  0.00    -0.096 C 
ATOM     25  H   UNL     1       1.919  35.267  14.296  0.00  0.00    -0.082 HD
ATOM     26  C   UNL     1       2.620  34.318  16.085  0.00  0.00    -0.064 C 
ATOM     27  C   UNL     1       2.343  32.874  15.582  0.00  0.00    +0.066 C 
ENDBRANCH  19  20
ENDBRANCH  18  19
ENDBRANCH  14  15
ENDBRANCH  12  13
TORSDOF 6
ENDMDL
MODEL 5
REMARK VINA RESULT:      -8.4      5.549     11.671
REMARK  Name = C:\Users\Docking\Desktop\test protocol\1iep_ligandH.pdb
REMARK  8 active torsions:
REMARK  status: ('A' for Active; 'I' for Inactive)
REMARK    1  A    between atoms: _5  and  _11
REMARK    2  A    between atoms: _19  and  _21
REMARK    3  A    between atoms: _22  and  _66
REMARK    4  A    between atoms: _27  and  _30
REMARK    5  A    between atoms: _32  and  _33
REMARK    6  A    between atoms: _38  and  _43
REMARK    7  A    between atoms: _43  and  _46
REMARK    8  A    between atoms: _53  and  _55
REMARK                            x       y       z     vdW  Elec       q    Type
REMARK                         _______ _______ _______ _____ _____    ______ ____
ROOT
ATOM     10  C   UNL     1       0.990  24.375  21.226  0.00  0.00    +0.038 A 
ATOM     11  C   UNL     1       1.052  25.665  20.640  0.00  0.00    +0.047 A 
ATOM     12  C   UNL     1      -0.039  26.174  19.823  0.00  0.00    +0.035 A 
ATOM     32  C   UNL     1      -1.180  25.343  19.626  0.00  0.00    +0.024 A 
ATOM     33  C   UNL     1      -1.259  24.029  20.213  0.00  0.00    +0.007 A 
ATOM     34  C   UNL     1      -0.185  23.520  21.018  0.00  0.00    -0.029 A 
ATOM     35  C   UNL     1      -0.322  22.101  21.618  0.00  0.00    +0.045 C 
ENDROOT
BRANCH  10   9
ATOM      4  C   UNL     1       3.113  23.585  25.458  0.00  0.00    +0.077 A 
ATOM      5  C   UNL     1       1.995  24.114  26.185  0.00  0.00    +0.048 A 
ATOM      6  C   UNL     1       0.896  24.586  25.432  0.00  0.00    +0.116 A 
ATOM      7  N   UNL     1       0.924  24.528  24.055  0.00  0.00    -0.223 NA
ATOM      8  C   UNL     1       2.019  24.013  23.385  0.00  0.00    +0.220 A 
ATOM      9  N   UNL     1       2.066  23.937  22.002  0.00  0.00    -0.283 N 
ATOM     36  H   UNL     1       2.894  23.557  21.545  0.00  0.00    +0.155 HD
ATOM     37  N   UNL     1       3.081  23.557  24.082  0.00  0.00    -0.214 NA
BRANCH   4   3
ATOM      1  C   UNL     1       6.717  22.185  26.048  0.00  0.00    +0.020 A 
ATOM      2  C   UNL     1       5.552  22.703  25.368  0.00  0.00    +0.013 A 
ATOM      3  C   UNL     1       4.347  23.045  26.112  0.00  0.00    +0.019 A 
ATOM     38  C   UNL     1       4.353  22.850  27.554  0.00  0.00    +0.120 A 
ATOM     39  N   UNL     1       5.489  22.349  28.181  0.00  0.00    -0.263 NA
ATOM     40  C   UNL     1       6.654  22.014  27.475  0.00  0.00    +0.111 A 
ENDBRANCH   4   3
ENDBRANCH  10   9
BRANCH  12  13
ATOM     13  N   UNL     1      -0.028  27.473  19.196  0.00  0.00    -0.281 N 
ATOM     14  C   UNL     1       0.725  27.888  18.110  0.00  0.00    +0.248 C 
ATOM     30  O   UNL     1       1.667  27.264  17.644  0.00  0.00    -0.270 OA
ATOM     31  H   UNL     1      -0.652  28.170  19.602  0.00  0.00    +0.155 HD
BRANCH  14  15
ATOM     15  C   UNL     1       0.393  29.190  17.457  0.00  0.00    +0.037 A 
ATOM     16  C   UNL     1       1.411  29.962  16.740  0.00  0.00    +0.013 A 
ATOM     17  C   UNL     1       1.068  31.224  16.134  0.00  0.00    +0.005 A 
ATOM     18  C   UNL     1      -0.301  31.721  16.241  0.00  0.00    -0.033 A 
ATOM     28  C   UNL     1      -1.293  30.933  16.953  0.00  0.00    +0.005 A 
ATOM     29  C   UNL     1      -0.960  29.696  17.550  0.00  0.00    +0.013 A 
BRANCH  18  19
ATOM     19  C   UNL     1      -0.752  33.067  15.642  0.00  0.00    +0.119 C 
BRANCH  19  20
ATOM     20  N   UNL     1       0.286  33.890  14.951  0.00  0.00    -0.302 NA
ATOM     21  C   UNL     1       0.973  34.869  15.907  0.00  0.00    +0.066 C 
ATOM     22  C   UNL     1       2.071  35.706  15.172  0.00  0.00    -0.064 C 
ATOM     23  N   UNL     1       1.439  36.450  13.995  0.00  0.00    +0.379 N 
ATOM     24  C   UNL     1       2.456  37.283  13.337  0.00  0.00    -0.096 C 
ATOM     25  H   UNL     1       0.658  37.132  14.407  0.00  0.00    -0.082 HD
ATOM     26  C   UNL     1       0.751  35.484  13.041  0.00  0.00    -0.064 C 
ATOM     27  C   UNL     1      -0.318  34.637  13.788  0.00  0.00    +0.066 C 
ENDBRANCH  19  20
ENDBRANCH  18  19
ENDBRANCH  14  15
ENDBRANCH  12  13
TORSDOF 6
ENDMDL
