MODEL 1
REMARK VINA RESULT:      -8.6      0.000      0.000
REMARK  Name = C:\Users\Docking\Desktop\test protocol\1iep_ligandH.pdb
REMARK  8 active torsions:
REMARK  status: ('A' for Active; 'I' for Inactive)
REMARK    1  A    between atoms: _5  and  _11
REMARK    2  A    between atoms: _19  and  _21
REMARK    3  A    between atoms: _22  and  _66
REMARK    4  A    between atoms: _27  and  _30
REMARK    5  A    between atoms: _32  and  _33
REMARK    6  A    between atoms: _38  and  _43
REMARK    7  A    between atoms: _43  and  _46
REMARK    8  A    between atoms: _53  and  _55
REMARK                            x       y       z     vdW  Elec       q    Type
REMARK                         _______ _______ _______ _____ _____    ______ ____
ROOT
ATOM     10  C   UNL     1       5.264   2.060  -8.849  0.00  0.00    +0.038 A 
ATOM     11  C   UNL     1       5.865   0.866  -8.375  0.00  0.00    +0.047 A 
ATOM     12  C   UNL     1       5.863  -0.347  -9.178  0.00  0.00    +0.035 A 
ATOM     32  C   UNL     1       5.242  -0.308 -10.460  0.00  0.00    +0.024 A 
ATOM     33  C   UNL     1       4.625   0.897 -10.956  0.00  0.00    +0.007 A 
ATOM     34  C   UNL     1       4.621   2.096 -10.168  0.00  0.00    -0.029 A 
ATOM     35  C   UNL     1       3.939   3.357 -10.748  0.00  0.00    +0.045 C 
ENDROOT
BRANCH  10   9
ATOM      4  C   UNL     1       6.717   6.530  -7.876  0.00  0.00    +0.077 A 
ATOM      5  C   UNL     1       7.503   6.598  -9.074  0.00  0.00    +0.048 A 
ATOM      6  C   UNL     1       7.512   5.459  -9.910  0.00  0.00    +0.116 A 
ATOM      7  N   UNL     1       6.785   4.341  -9.564  0.00  0.00    -0.223 NA
ATOM      8  C   UNL     1       6.039   4.307  -8.400  0.00  0.00    +0.220 A 
ATOM      9  N   UNL     1       5.295   3.196  -8.036  0.00  0.00    -0.283 N 
ATOM     36  H   UNL     1       4.764   3.208  -7.166  0.00  0.00    +0.155 HD
ATOM     37  N   UNL     1       6.016   5.381  -7.584  0.00  0.00    -0.214 NA
BRANCH   4   3
ATOM      1  C   UNL     1       5.599   8.747  -4.854  0.00  0.00    +0.020 A 
ATOM      2  C   UNL     1       5.668   7.637  -5.775  0.00  0.00    +0.013 A 
ATOM      3  C   UNL     1       6.604   7.653  -6.892  0.00  0.00    +0.019 A 
ATOM     38  C   UNL     1       7.464   8.816  -7.049  0.00  0.00    +0.120 A 
ATOM     39  N   UNL     1       7.374   9.871  -6.146  0.00  0.00    -0.263 NA
ATOM     40  C   UNL     1       6.476   9.868  -5.069  0.00  0.00    +0.111 A 
ENDBRANCH   4   3
ENDBRANCH  10   9
BRANCH  12  13
ATOM     13  N   UNL     1       6.451  -1.591  -8.746  0.00  0.00    -0.281 N 
ATOM     14  C   UNL     1       5.803  -2.767  -8.406  0.00  0.00    +0.248 C 
ATOM     30  O   UNL     1       4.599  -2.862  -8.216  0.00  0.00    -0.270 OA
ATOM     31  H   UNL     1       7.470  -1.606  -8.684  0.00  0.00    +0.155 HD
BRANCH  14  15
ATOM     15  C   UNL     1       6.609  -4.014  -8.240  0.00  0.00    +0.037 A 
ATOM     16  C   UNL     1       7.519  -4.477  -9.290  0.00  0.00    +0.013 A 
ATOM     17  C   UNL     1       8.273  -5.692  -9.111  0.00  0.00    +0.005 A 
ATOM     18  C   UNL     1       8.120  -6.454  -7.874  0.00  0.00    -0.033 A 
ATOM     28  C   UNL     1       7.214  -5.969  -6.846  0.00  0.00    +0.005 A 
ATOM     29  C   UNL     1       6.473  -4.779  -7.018  0.00  0.00    +0.013 A 
BRANCH  18  19
ATOM     19  C   UNL     1       8.868  -7.773  -7.606  0.00  0.00    +0.119 C 
BRANCH  19  20
ATOM     20  N   UNL     1       8.040  -8.986  -7.337  0.00  0.00    -0.302 NA
ATOM     21  C   UNL     1       8.882 -10.151  -6.809  0.00  0.00    +0.066 C 
ATOM     22  C   UNL     1       7.996 -11.405  -6.511  0.00  0.00    -0.064 C 
ATOM     23  N   UNL     1       7.248 -11.810  -7.782  0.00  0.00    +0.379 N 
ATOM     24  C   UNL     1       6.459 -13.023  -7.521  0.00  0.00    -0.096 C 
ATOM     25  H   UNL     1       8.009 -12.062  -8.557  0.00  0.00    -0.082 HD
ATOM     26  C   UNL     1       6.410 -10.657  -8.316  0.00  0.00    -0.064 C 
ATOM     27  C   UNL     1       7.295  -9.407  -8.580  0.00  0.00    +0.066 C 
ENDBRANCH  19  20
ENDBRANCH  18  19
ENDBRANCH  14  15
ENDBRANCH  12  13
TORSDOF 6
ENDMDL
MODEL 2
REMARK VINA RESULT:      -8.6     23.725     24.945
REMARK  Name = C:\Users\Docking\Desktop\test protocol\1iep_ligandH.pdb
REMARK  8 active torsions:
REMARK  status: ('A' for Active; 'I' for Inactive)
REMARK    1  A    between atoms: _5  and  _11
REMARK    2  A    between atoms: _19  and  _21
REMARK    3  A    between atoms: _22  and  _66
REMARK    4  A    between atoms: _27  and  _30
REMARK    5  A    between atoms: _32  and  _33
REMARK    6  A    between atoms: _38  and  _43
REMARK    7  A    between atoms: _43  and  _46
REMARK    8  A    between atoms: _53  and  _55
REMARK                            x       y       z     vdW  Elec       q    Type
REMARK                         _______ _______ _______ _____ _____    ______ ____
ROOT
ATOM     10  C   UNL     1     -11.435  -2.405  11.090  0.00  0.00    +0.038 A 
ATOM     11  C   UNL     1     -10.573  -3.503  11.341  0.00  0.00    +0.047 A 
ATOM     12  C   UNL     1     -10.918  -4.846  10.901  0.00  0.00    +0.035 A 
ATOM     32  C   UNL     1     -12.148  -5.034  10.206  0.00  0.00    +0.024 A 
ATOM     33  C   UNL     1     -13.037  -3.930   9.944  0.00  0.00    +0.007 A 
ATOM     34  C   UNL     1     -12.703  -2.603  10.377  0.00  0.00    -0.029 A 
ATOM     35  C   UNL     1     -13.697  -1.457  10.075  0.00  0.00    +0.045 C 
ENDROOT
BRANCH  10   9
ATOM      4  C   UNL     1      -9.282   1.836  10.447  0.00  0.00    +0.077 A 
ATOM      5  C   UNL     1      -8.856   1.486   9.122  0.00  0.00    +0.048 A 
ATOM      6  C   UNL     1      -9.205   0.202   8.647  0.00  0.00    +0.116 A 
ATOM      7  N   UNL     1      -9.927  -0.659   9.445  0.00  0.00    -0.223 NA
ATOM      8  C   UNL     1     -10.321  -0.290  10.718  0.00  0.00    +0.220 A 
ATOM      9  N   UNL     1     -11.054  -1.137  11.535  0.00  0.00    -0.283 N 
ATOM     36  H   UNL     1     -11.319  -0.830  12.471  0.00  0.00    +0.155 HD
ATOM     37  N   UNL     1      -9.998   0.930  11.196  0.00  0.00    -0.214 NA
BRANCH   4   3
ATOM      1  C   UNL     1      -9.698   5.268  12.277  0.00  0.00    +0.020 A 
ATOM      2  C   UNL     1     -10.030   4.001  11.668  0.00  0.00    +0.013 A 
ATOM      3  C   UNL     1      -8.992   3.157  11.089  0.00  0.00    +0.019 A 
ATOM     38  C   UNL     1      -7.617   3.628  11.143  0.00  0.00    +0.120 A 
ATOM     39  N   UNL     1      -7.326   4.854  11.735  0.00  0.00    -0.263 NA
ATOM     40  C   UNL     1      -8.317   5.675  12.294  0.00  0.00    +0.111 A 
ENDBRANCH   4   3
ENDBRANCH  10   9
BRANCH  12  13
ATOM     13  N   UNL     1     -10.086  -6.000  11.133  0.00  0.00    -0.281 N 
ATOM     14  C   UNL     1     -10.284  -7.023  12.047  0.00  0.00    +0.248 C 
ATOM     30  O   UNL     1     -11.100  -6.989  12.956  0.00  0.00    -0.270 OA
ATOM     31  H   UNL     1      -9.249  -6.073  10.554  0.00  0.00    +0.155 HD
BRANCH  14  15
ATOM     15  C   UNL     1      -9.444  -8.255  11.945  0.00  0.00    +0.037 A 
ATOM     16  C   UNL     1      -8.728  -8.785  13.109  0.00  0.00    +0.013 A 
ATOM     17  C   UNL     1      -7.911  -9.965  12.979  0.00  0.00    +0.005 A 
ATOM     18  C   UNL     1      -7.807 -10.625  11.680  0.00  0.00    -0.033 A 
ATOM     28  C   UNL     1      -8.532 -10.081  10.544  0.00  0.00    +0.005 A 
ATOM     29  C   UNL     1      -9.333  -8.924  10.667  0.00  0.00    +0.013 A 
BRANCH  18  19
ATOM     19  C   UNL     1      -6.942 -11.877  11.445  0.00  0.00    +0.119 C 
BRANCH  19  20
ATOM     20  N   UNL     1      -5.464 -11.680  11.355  0.00  0.00    -0.302 NA
ATOM     21  C   UNL     1      -5.051 -11.018  10.038  0.00  0.00    +0.066 C 
ATOM     22  C   UNL     1      -3.505 -10.799   9.971  0.00  0.00    -0.064 C 
ATOM     23  N   UNL     1      -2.794 -12.142  10.148  0.00  0.00    +0.379 N 
ATOM     24  C   UNL     1      -1.342 -11.948  10.028  0.00  0.00    -0.096 C 
ATOM     25  H   UNL     1      -3.117 -12.808   9.314  0.00  0.00    -0.082 HD
ATOM     26  C   UNL     1      -3.201 -12.809  11.455  0.00  0.00    -0.064 C 
ATOM     27  C   UNL     1      -4.743 -12.995  11.523  0.00  0.00    +0.066 C 
ENDBRANCH  19  20
ENDBRANCH  18  19
ENDBRANCH  14  15
ENDBRANCH  12  13
TORSDOF 6
ENDMDL
MODEL 3
REMARK VINA RESULT:      -8.5      5.092     13.364
REMARK  Name = C:\Users\Docking\Desktop\test protocol\1iep_ligandH.pdb
REMARK  8 active torsions:
REMARK  status: ('A' for Active; 'I' for Inactive)
REMARK    1  A    between atoms: _5  and  _11
REMARK    2  A    between atoms: _19  and  _21
REMARK    3  A    between atoms: _22  and  _66
REMARK    4  A    between atoms: _27  and  _30
REMARK    5  A    between atoms: _32  and  _33
REMARK    6  A    between atoms: _38  and  _43
REMARK    7  A    between atoms: _43  and  _46
REMARK    8  A    between atoms: _53  and  _55
REMARK                            x       y       z     vdW  Elec       q    Type
REMARK                         _______ _______ _______ _____ _____    ______ ____
ROOT
ATOM     10  C   UNL     1       6.287  -4.975  -6.590  0.00  0.00    +0.038 A 
ATOM     11  C   UNL     1       6.059  -4.121  -7.699  0.00  0.00    +0.047 A 
ATOM     12  C   UNL     1       5.723  -2.718  -7.511  0.00  0.00    +0.035 A 
ATOM     32  C   UNL     1       5.631  -2.218  -6.179  0.00  0.00    +0.024 A 
ATOM     33  C   UNL     1       5.859  -3.073  -5.041  0.00  0.00    +0.007 A 
ATOM     34  C   UNL     1       6.188  -4.458  -5.220  0.00  0.00    -0.029 A 
ATOM     35  C   UNL     1       6.416  -5.329  -3.963  0.00  0.00    +0.045 C 
ENDROOT
BRANCH  10   9
ATOM      4  C   UNL     1       9.406  -8.449  -7.707  0.00  0.00    +0.077 A 
ATOM      5  C   UNL     1      10.485  -7.514  -7.853  0.00  0.00    +0.048 A 
ATOM      6  C   UNL     1      10.194  -6.148  -7.640  0.00  0.00    +0.116 A 
ATOM      7  N   UNL     1       8.916  -5.757  -7.305  0.00  0.00    -0.223 NA
ATOM      8  C   UNL     1       7.898  -6.684  -7.173  0.00  0.00    +0.220 A 
ATOM      9  N   UNL     1       6.607  -6.314  -6.829  0.00  0.00    -0.283 N 
ATOM     36  H   UNL     1       5.882  -7.027  -6.749  0.00  0.00    +0.155 HD
ATOM     37  N   UNL     1       8.150  -7.994  -7.373  0.00  0.00    -0.214 NA
BRANCH   4   3
ATOM      1  C   UNL     1       9.583 -12.299  -7.041  0.00  0.00    +0.020 A 
ATOM      2  C   UNL     1       9.429 -10.882  -6.804  0.00  0.00    +0.013 A 
ATOM      3  C   UNL     1       9.557  -9.926  -7.896  0.00  0.00    +0.019 A 
ATOM     38  C   UNL     1       9.842 -10.440  -9.227  0.00  0.00    +0.120 A 
ATOM     39  N   UNL     1       9.987 -11.810  -9.425  0.00  0.00    -0.263 NA
ATOM     40  C   UNL     1       9.868 -12.739  -8.381  0.00  0.00    +0.111 A 
ENDBRANCH   4   3
ENDBRANCH  10   9
BRANCH  12  13
ATOM     13  N   UNL     1       5.472  -1.804  -8.598  0.00  0.00    -0.281 N 
ATOM     14  C   UNL     1       6.391  -1.039  -9.296  0.00  0.00    +0.248 C 
ATOM     30  O   UNL     1       7.550  -0.862  -8.949  0.00  0.00    -0.270 OA
ATOM     31  H   UNL     1       4.498  -1.710  -8.887  0.00  0.00    +0.155 HD
BRANCH  14  15
ATOM     15  C   UNL     1       5.957  -0.360 -10.555  0.00  0.00    +0.037 A 
ATOM     16  C   UNL     1       6.846  -0.272 -11.716  0.00  0.00    +0.013 A 
ATOM     17  C   UNL     1       6.409   0.404 -12.912  0.00  0.00    +0.005 A 
ATOM     18  C   UNL     1       5.074   0.996 -12.953  0.00  0.00    -0.033 A 
ATOM     28  C   UNL     1       4.211   0.890 -11.788  0.00  0.00    +0.005 A 
ATOM     29  C   UNL     1       4.636   0.229 -10.614  0.00  0.00    +0.013 A 
BRANCH  18  19
ATOM     19  C   UNL     1       4.532   1.754 -14.179  0.00  0.00    +0.119 C 
BRANCH  19  20
ATOM     20  N   UNL     1       3.514   2.818 -13.931  0.00  0.00    -0.302 NA
ATOM     21  C   UNL     1       2.105   2.369 -14.330  0.00  0.00    +0.066 C 
ATOM     22  C   UNL     1       1.049   3.485 -14.043  0.00  0.00    -0.064 C 
ATOM     23  N   UNL     1       1.443   4.761 -14.789  0.00  0.00    +0.379 N 
ATOM     24  C   UNL     1       0.421   5.795 -14.567  0.00  0.00    -0.096 C 
ATOM     25  H   UNL     1       1.455   4.525 -15.879  0.00  0.00    -0.082 HD
ATOM     26  C   UNL     1       2.843   5.213 -14.400  0.00  0.00    -0.064 C 
ATOM     27  C   UNL     1       3.881   4.085 -14.662  0.00  0.00    +0.066 C 
ENDBRANCH  19  20
ENDBRANCH  18  19
ENDBRANCH  14  15
ENDBRANCH  12  13
TORSDOF 6
ENDMDL
MODEL 4
REMARK VINA RESULT:      -8.4      5.498     13.566
REMARK  Name = C:\Users\Docking\Desktop\test protocol\1iep_ligandH.pdb
REMARK  8 active torsions:
REMARK  status: ('A' for Active; 'I' for Inactive)
REMARK    1  A    between atoms: _5  and  _11
REMARK    2  A    between atoms: _19  and  _21
REMARK    3  A    between atoms: _22  and  _66
REMARK    4  A    between atoms: _27  and  _30
REMARK    5  A    between atoms: _32  and  _33
REMARK    6  A    between atoms: _38  and  _43
REMARK    7  A    between atoms: _43  and  _46
REMARK    8  A    between atoms: _53  and  _55
REMARK                            x       y       z     vdW  Elec       q    Type
REMARK                         _______ _______ _______ _____ _____    ______ ____
ROOT
ATOM     10  C   UNL     1       6.837   0.964 -10.004  0.00  0.00    +0.038 A 
ATOM     11  C   UNL     1       5.664   1.322 -10.715  0.00  0.00    +0.047 A 
ATOM     12  C   UNL     1       5.737   2.078 -11.956  0.00  0.00    +0.035 A 
ATOM     32  C   UNL     1       7.023   2.451 -12.445  0.00  0.00    +0.024 A 
ATOM     33  C   UNL     1       8.226   2.096 -11.734  0.00  0.00    +0.007 A 
ATOM     34  C   UNL     1       8.160   1.353 -10.508  0.00  0.00    -0.029 A 
ATOM     35  C   UNL     1       9.482   1.006  -9.784  0.00  0.00    +0.045 C 
ENDROOT
BRANCH  10   9
ATOM      4  C   UNL     1       6.373  -3.162  -7.596  0.00  0.00    +0.077 A 
ATOM      5  C   UNL     1       6.360  -3.934  -8.805  0.00  0.00    +0.048 A 
ATOM      6  C   UNL     1       6.467  -3.231 -10.025  0.00  0.00    +0.116 A 
ATOM      7  N   UNL     1       6.580  -1.857 -10.025  0.00  0.00    -0.223 NA
ATOM      8  C   UNL     1       6.588  -1.143  -8.842  0.00  0.00    +0.220 A 
ATOM      9  N   UNL     1       6.708   0.238  -8.817  0.00  0.00    -0.283 N 
ATOM     36  H   UNL     1       6.702   0.729  -7.924  0.00  0.00    +0.155 HD
ATOM     37  N   UNL     1       6.485  -1.791  -7.663  0.00  0.00    -0.214 NA
BRANCH   4   3
ATOM      1  C   UNL     1       6.443  -5.692  -4.614  0.00  0.00    +0.020 A 
ATOM      2  C   UNL     1       6.556  -5.164  -5.954  0.00  0.00    +0.013 A 
ATOM      3  C   UNL     1       6.271  -3.761  -6.227  0.00  0.00    +0.019 A 
ATOM     38  C   UNL     1       5.873  -2.912  -5.114  0.00  0.00    +0.120 A 
ATOM     39  N   UNL     1       5.771  -3.449  -3.835  0.00  0.00    -0.263 NA
ATOM     40  C   UNL     1       6.041  -4.798  -3.560  0.00  0.00    +0.111 A 
ENDBRANCH   4   3
ENDBRANCH  10   9
BRANCH  12  13
ATOM     13  N   UNL     1       4.580   2.476 -12.718  0.00  0.00    -0.281 N 
ATOM     14  C   UNL     1       3.525   3.276 -12.309  0.00  0.00    +0.248 C 
ATOM     30  O   UNL     1       3.310   3.597 -11.150  0.00  0.00    -0.270 OA
ATOM     31  H   UNL     1       4.532   2.127 -13.675  0.00  0.00    +0.155 HD
BRANCH  14  15
ATOM     15  C   UNL     1       2.561   3.780 -13.334  0.00  0.00    +0.037 A 
ATOM     16  C   UNL     1       1.712   2.861 -14.095  0.00  0.00    +0.013 A 
ATOM     17  C   UNL     1       0.803   3.372 -15.091  0.00  0.00    +0.005 A 
ATOM     18  C   UNL     1       0.738   4.812 -15.329  0.00  0.00    -0.033 A 
ATOM     28  C   UNL     1       1.588   5.702 -14.556  0.00  0.00    +0.005 A 
ATOM     29  C   UNL     1       2.481   5.204 -13.580  0.00  0.00    +0.013 A 
BRANCH  18  19
ATOM     19  C   UNL     1      -0.187   5.444 -16.386  0.00  0.00    +0.119 C 
BRANCH  19  20
ATOM     20  N   UNL     1      -0.766   6.785 -16.074  0.00  0.00    -0.302 NA
ATOM     21  C   UNL     1      -2.266   6.708 -15.777  0.00  0.00    +0.066 C 
ATOM     22  C   UNL     1      -2.851   8.116 -15.430  0.00  0.00    -0.064 C 
ATOM     23  N   UNL     1      -2.577   9.078 -16.588  0.00  0.00    +0.379 N 
ATOM     24  C   UNL     1      -3.176  10.387 -16.290  0.00  0.00    -0.096 C 
ATOM     25  H   UNL     1      -3.085   8.671 -17.493  0.00  0.00    -0.082 HD
ATOM     26  C   UNL     1      -1.087   9.158 -16.891  0.00  0.00    -0.064 C 
ATOM     27  C   UNL     1      -0.510   7.749 -17.205  0.00  0.00    +0.066 C 
ENDBRANCH  19  20
ENDBRANCH  18  19
ENDBRANCH  14  15
ENDBRANCH  12  13
TORSDOF 6
ENDMDL
MODEL 5
REMARK VINA RESULT:      -8.3      5.031     13.511
REMARK  Name = C:\Users\Docking\Desktop\test protocol\1iep_ligandH.pdb
REMARK  8 active torsions:
REMARK  status: ('A' for Active; 'I' for Inactive)
REMARK    1  A    between atoms: _5  and  _11
REMARK    2  A    between atoms: _19  and  _21
REMARK    3  A    between atoms: _22  and  _66
REMARK    4  A    between atoms: _27  and  _30
REMARK    5  A    between atoms: _32  and  _33
REMARK    6  A    between atoms: _38  and  _43
REMARK    7  A    between atoms: _43  and  _46
REMARK    8  A    between atoms: _53  and  _55
REMARK                            x       y       z     vdW  Elec       q    Type
REMARK                         _______ _______ _______ _____ _____    ______ ____
ROOT
ATOM     10  C   UNL     1       7.492   1.556  -9.761  0.00  0.00    +0.038 A 
ATOM     11  C   UNL     1       6.369   2.223 -10.313  0.00  0.00    +0.047 A 
ATOM     12  C   UNL     1       6.506   3.100 -11.466  0.00  0.00    +0.035 A 
ATOM     32  C   UNL     1       7.803   3.273 -12.032  0.00  0.00    +0.024 A 
ATOM     33  C   UNL     1       8.955   2.604 -11.483  0.00  0.00    +0.007 A 
ATOM     34  C   UNL     1       8.827   1.740 -10.344  0.00  0.00    -0.029 A 
ATOM     35  C   UNL     1      10.098   1.053  -9.793  0.00  0.00    +0.045 C 
ENDROOT
BRANCH  10   9
ATOM      4  C   UNL     1       6.366  -2.670  -7.783  0.00  0.00    +0.077 A 
ATOM      5  C   UNL     1       6.107  -3.266  -9.062  0.00  0.00    +0.048 A 
ATOM      6  C   UNL     1       6.268  -2.449 -10.204  0.00  0.00    +0.116 A 
ATOM      7  N   UNL     1       6.660  -1.135 -10.065  0.00  0.00    -0.223 NA
ATOM      8  C   UNL     1       6.900  -0.591  -8.816  0.00  0.00    +0.220 A 
ATOM      9  N   UNL     1       7.303   0.726  -8.654  0.00  0.00    -0.283 N 
ATOM     36  H   UNL     1       7.463   1.092  -7.716  0.00  0.00    +0.155 HD
ATOM     37  N   UNL     1       6.752  -1.350  -7.711  0.00  0.00    -0.214 NA
BRANCH   4   3
ATOM      1  C   UNL     1       6.409  -5.486  -5.069  0.00  0.00    +0.020 A 
ATOM      2  C   UNL     1       6.544  -4.824  -6.346  0.00  0.00    +0.013 A 
ATOM      3  C   UNL     1       6.243  -3.405  -6.485  0.00  0.00    +0.019 A 
ATOM     38  C   UNL     1       5.805  -2.679  -5.302  0.00  0.00    +0.120 A 
ATOM     39  N   UNL     1       5.683  -3.343  -4.086  0.00  0.00    -0.263 NA
ATOM     40  C   UNL     1       5.968  -4.709  -3.941  0.00  0.00    +0.111 A 
ENDBRANCH   4   3
ENDBRANCH  10   9
BRANCH  12  13
ATOM     13  N   UNL     1       5.403   3.809 -12.065  0.00  0.00    -0.281 N 
ATOM     14  C   UNL     1       4.393   3.296 -12.862  0.00  0.00    +0.248 C 
ATOM     30  O   UNL     1       4.405   2.180 -13.360  0.00  0.00    -0.270 OA
ATOM     31  H   UNL     1       5.362   4.811 -11.878  0.00  0.00    +0.155 HD
BRANCH  14  15
ATOM     15  C   UNL     1       3.205   4.152 -13.163  0.00  0.00    +0.037 A 
ATOM     16  C   UNL     1       1.948   3.993 -12.427  0.00  0.00    +0.013 A 
ATOM     17  C   UNL     1       0.812   4.820 -12.748  0.00  0.00    +0.005 A 
ATOM     18  C   UNL     1       0.929   5.816 -13.811  0.00  0.00    -0.033 A 
ATOM     28  C   UNL     1       2.190   5.956 -14.521  0.00  0.00    +0.005 A 
ATOM     29  C   UNL     1       3.305   5.147 -14.210  0.00  0.00    +0.013 A 
BRANCH  18  19
ATOM     19  C   UNL     1      -0.237   6.727 -14.235  0.00  0.00    +0.119 C 
BRANCH  19  20
ATOM     20  N   UNL     1      -0.010   8.202 -14.177  0.00  0.00    -0.302 NA
ATOM     21  C   UNL     1       0.535   8.646 -12.816  0.00  0.00    +0.066 C 
ATOM     22  C   UNL     1       0.789  10.188 -12.780  0.00  0.00    -0.064 C 
ATOM     23  N   UNL     1      -0.511  10.924 -13.109  0.00  0.00    +0.379 N 
ATOM     24  C   UNL     1      -0.290  12.374 -13.019  0.00  0.00    -0.096 C 
ATOM     25  H   UNL     1      -1.262  10.647 -12.333  0.00  0.00    -0.082 HD
ATOM     26  C   UNL     1      -1.061  10.487 -14.459  0.00  0.00    -0.064 C 
ATOM     27  C   UNL     1      -1.282   8.948 -14.494  0.00  0.00    +0.066 C 
ENDBRANCH  19  20
ENDBRANCH  18  19
ENDBRANCH  14  15
ENDBRANCH  12  13
TORSDOF 6
ENDMDL
