MODEL 1
REMARK VINA RESULT:      -8.3      0.000      0.000
REMARK  Name = C:\Users\Docking\Desktop\test protocol\1iep_ligandH.pdb
REMARK  8 active torsions:
REMARK  status: ('A' for Active; 'I' for Inactive)
REMARK    1  A    between atoms: _5  and  _11
REMARK    2  A    between atoms: _19  and  _21
REMARK    3  A    between atoms: _22  and  _66
REMARK    4  A    between atoms: _27  and  _30
REMARK    5  A    between atoms: _32  and  _33
REMARK    6  A    between atoms: _38  and  _43
REMARK    7  A    between atoms: _43  and  _46
REMARK    8  A    between atoms: _53  and  _55
REMARK                            x       y       z     vdW  Elec       q    Type
REMARK                         _______ _______ _______ _____ _____    ______ ____
ROOT
ATOM     10  C   UNL     1      10.439   0.522  -5.032  0.00  0.00    +0.038 A 
ATOM     11  C   UNL     1      11.522   1.374  -4.698  0.00  0.00    +0.047 A 
ATOM     12  C   UNL     1      11.345   2.814  -4.600  0.00  0.00    +0.035 A 
ATOM     32  C   UNL     1      10.048   3.353  -4.846  0.00  0.00    +0.024 A 
ATOM     33  C   UNL     1       8.936   2.502  -5.188  0.00  0.00    +0.007 A 
ATOM     34  C   UNL     1       9.106   1.080  -5.289  0.00  0.00    -0.029 A 
ATOM     35  C   UNL     1       7.880   0.217  -5.665  0.00  0.00    +0.045 C 
ENDROOT
BRANCH  10   9
ATOM      4  C   UNL     1      11.665  -3.432  -7.462  0.00  0.00    +0.077 A 
ATOM      5  C   UNL     1      11.841  -2.698  -8.682  0.00  0.00    +0.048 A 
ATOM      6  C   UNL     1      11.600  -1.307  -8.644  0.00  0.00    +0.116 A 
ATOM      7  N   UNL     1      11.211  -0.704  -7.467  0.00  0.00    -0.223 NA
ATOM      8  C   UNL     1      11.048  -1.441  -6.308  0.00  0.00    +0.220 A 
ATOM      9  N   UNL     1      10.666  -0.854  -5.112  0.00  0.00    -0.283 N 
ATOM     36  H   UNL     1      10.550  -1.434  -4.281  0.00  0.00    +0.155 HD
ATOM     37  N   UNL     1      11.271  -2.772  -6.319  0.00  0.00    -0.214 NA
BRANCH   4   3
ATOM      1  C   UNL     1      12.794  -6.944  -6.163  0.00  0.00    +0.020 A 
ATOM      2  C   UNL     1      12.609  -5.513  -6.232  0.00  0.00    +0.013 A 
ATOM      3  C   UNL     1      11.885  -4.908  -7.342  0.00  0.00    +0.019 A 
ATOM     38  C   UNL     1      11.355  -5.786  -8.374  0.00  0.00    +0.120 A 
ATOM     39  N   UNL     1      11.549  -7.161  -8.282  0.00  0.00    -0.263 NA
ATOM     40  C   UNL     1      12.246  -7.754  -7.219  0.00  0.00    +0.111 A 
ENDBRANCH   4   3
ENDBRANCH  10   9
BRANCH  12  13
ATOM     13  N   UNL     1      12.409   3.729  -4.272  0.00  0.00    -0.281 N 
ATOM     14  C   UNL     1      13.313   4.328  -5.134  0.00  0.00    +0.248 C 
ATOM     30  O   UNL     1      13.479   3.999  -6.300  0.00  0.00    -0.270 OA
ATOM     31  H   UNL     1      12.509   3.965  -3.285  0.00  0.00    +0.155 HD
BRANCH  14  15
ATOM     15  C   UNL     1      14.167   5.444  -4.625  0.00  0.00    +0.037 A 
ATOM     16  C   UNL     1      14.676   5.445  -3.251  0.00  0.00    +0.013 A 
ATOM     17  C   UNL     1      15.483   6.543  -2.780  0.00  0.00    +0.005 A 
ATOM     18  C   UNL     1      15.787   7.648  -3.685  0.00  0.00    -0.033 A 
ATOM     28  C   UNL     1      15.274   7.619  -5.044  0.00  0.00    +0.005 A 
ATOM     29  C   UNL     1      14.481   6.546  -5.510  0.00  0.00    +0.013 A 
BRANCH  18  19
ATOM     19  C   UNL     1      16.623   8.871  -3.261  0.00  0.00    +0.119 C 
BRANCH  19  20
ATOM     20  N   UNL     1      17.722   8.639  -2.276  0.00  0.00    -0.302 NA
ATOM     21  C   UNL     1      17.820   9.770  -1.248  0.00  0.00    +0.066 C 
ATOM     22  C   UNL     1      18.960   9.501  -0.213  0.00  0.00    -0.064 C 
ATOM     23  N   UNL     1      20.287   9.326  -0.953  0.00  0.00    +0.379 N 
ATOM     24  C   UNL     1      21.370   9.130   0.021  0.00  0.00    -0.096 C 
ATOM     25  H   UNL     1      20.494  10.272  -1.504  0.00  0.00    -0.082 HD
ATOM     26  C   UNL     1      20.197   8.205  -1.980  0.00  0.00    -0.064 C 
ATOM     27  C   UNL     1      19.042   8.468  -2.986  0.00  0.00    +0.066 C 
ENDBRANCH  19  20
ENDBRANCH  18  19
ENDBRANCH  14  15
ENDBRANCH  12  13
TORSDOF 6
ENDMDL
MODEL 2
REMARK VINA RESULT:      -7.9      4.105      6.150
REMARK  Name = C:\Users\Docking\Desktop\test protocol\1iep_ligandH.pdb
REMARK  8 active torsions:
REMARK  status: ('A' for Active; 'I' for Inactive)
REMARK    1  A    between atoms: _5  and  _11
REMARK    2  A    between atoms: _19  and  _21
REMARK    3  A    between atoms: _22  and  _66
REMARK    4  A    between atoms: _27  and  _30
REMARK    5  A    between atoms: _32  and  _33
REMARK    6  A    between atoms: _38  and  _43
REMARK    7  A    between atoms: _43  and  _46
REMARK    8  A    between atoms: _53  and  _55
REMARK                            x       y       z     vdW  Elec       q    Type
REMARK                         _______ _______ _______ _____ _____    ______ ____
ROOT
ATOM     10  C   UNL     1      12.217   6.983  -6.155  0.00  0.00    +0.038 A 
ATOM     11  C   UNL     1      13.153   7.068  -5.093  0.00  0.00    +0.047 A 
ATOM     12  C   UNL     1      14.199   8.079  -5.091  0.00  0.00    +0.035 A 
ATOM     32  C   UNL     1      14.262   8.989  -6.186  0.00  0.00    +0.024 A 
ATOM     33  C   UNL     1      13.319   8.917  -7.274  0.00  0.00    +0.007 A 
ATOM     34  C   UNL     1      12.286   7.920  -7.283  0.00  0.00    -0.029 A 
ATOM     35  C   UNL     1      11.307   7.885  -8.479  0.00  0.00    +0.045 C 
ENDROOT
BRANCH  10   9
ATOM      4  C   UNL     1      10.567   2.600  -7.204  0.00  0.00    +0.077 A 
ATOM      5  C   UNL     1      11.755   2.263  -7.934  0.00  0.00    +0.048 A 
ATOM      6  C   UNL     1      12.763   3.249  -8.023  0.00  0.00    +0.116 A 
ATOM      7  N   UNL     1      12.587   4.476  -7.421  0.00  0.00    -0.223 NA
ATOM      8  C   UNL     1      11.429   4.769  -6.725  0.00  0.00    +0.220 A 
ATOM      9  N   UNL     1      11.233   5.993  -6.106  0.00  0.00    -0.283 N 
ATOM     36  H   UNL     1      10.362   6.173  -5.608  0.00  0.00    +0.155 HD
ATOM     37  N   UNL     1      10.450   3.845  -6.627  0.00  0.00    -0.214 NA
BRANCH   4   3
ATOM      1  C   UNL     1       7.839   0.312  -5.584  0.00  0.00    +0.020 A 
ATOM      2  C   UNL     1       8.959   1.217  -5.708  0.00  0.00    +0.013 A 
ATOM      3  C   UNL     1       9.413   1.664  -7.018  0.00  0.00    +0.019 A 
ATOM     38  C   UNL     1       8.707   1.175  -8.193  0.00  0.00    +0.120 A 
ATOM     39  N   UNL     1       7.633   0.303  -8.043  0.00  0.00    -0.263 NA
ATOM     40  C   UNL     1       7.187  -0.136  -6.787  0.00  0.00    +0.111 A 
ENDBRANCH   4   3
ENDBRANCH  10   9
BRANCH  12  13
ATOM     13  N   UNL     1      15.182   8.209  -4.044  0.00  0.00    -0.281 N 
ATOM     14  C   UNL     1      16.357   7.492  -3.885  0.00  0.00    +0.248 C 
ATOM     30  O   UNL     1      16.637   6.477  -4.506  0.00  0.00    -0.270 OA
ATOM     31  H   UNL     1      14.989   8.915  -3.333  0.00  0.00    +0.155 HD
BRANCH  14  15
ATOM     15  C   UNL     1      17.360   7.961  -2.881  0.00  0.00    +0.037 A 
ATOM     16  C   UNL     1      16.944   8.649  -1.656  0.00  0.00    +0.013 A 
ATOM     17  C   UNL     1      17.932   9.107  -0.712  0.00  0.00    +0.005 A 
ATOM     18  C   UNL     1      19.348   8.877  -0.990  0.00  0.00    -0.033 A 
ATOM     28  C   UNL     1      19.733   8.188  -2.210  0.00  0.00    +0.005 A 
ATOM     29  C   UNL     1      18.766   7.739  -3.138  0.00  0.00    +0.013 A 
BRANCH  18  19
ATOM     19  C   UNL     1      20.472   9.350  -0.049  0.00  0.00    +0.119 C 
BRANCH  19  20
ATOM     20  N   UNL     1      21.838   9.495  -0.635  0.00  0.00    -0.302 NA
ATOM     21  C   UNL     1      22.934   9.088   0.354  0.00  0.00    +0.066 C 
ATOM     22  C   UNL     1      24.355   9.224  -0.283  0.00  0.00    -0.064 C 
ATOM     23  N   UNL     1      24.562  10.663  -0.758  0.00  0.00    +0.379 N 
ATOM     24  C   UNL     1      25.919  10.809  -1.305  0.00  0.00    -0.096 C 
ATOM     25  H   UNL     1      24.483  11.328   0.133  0.00  0.00    -0.082 HD
ATOM     26  C   UNL     1      23.475  11.077  -1.740  0.00  0.00    -0.064 C 
ATOM     27  C   UNL     1      22.065  10.910  -1.107  0.00  0.00    +0.066 C 
ENDBRANCH  19  20
ENDBRANCH  18  19
ENDBRANCH  14  15
ENDBRANCH  12  13
TORSDOF 6
ENDMDL
MODEL 3
REMARK VINA RESULT:      -7.9      3.444     13.178
REMARK  Name = C:\Users\Docking\Desktop\test protocol\1iep_ligandH.pdb
REMARK  8 active torsions:
REMARK  status: ('A' for Active; 'I' for Inactive)
REMARK    1  A    between atoms: _5  and  _11
REMARK    2  A    between atoms: _19  and  _21
REMARK    3  A    between atoms: _22  and  _66
REMARK    4  A    between atoms: _27  and  _30
REMARK    5  A    between atoms: _32  and  _33
REMARK    6  A    between atoms: _38  and  _43
REMARK    7  A    between atoms: _43  and  _46
REMARK    8  A    between atoms: _53  and  _55
REMARK                            x       y       z     vdW  Elec       q    Type
REMARK                         _______ _______ _______ _____ _____    ______ ____
ROOT
ATOM     10  C   UNL     1      12.979   7.266  -5.809  0.00  0.00    +0.038 A 
ATOM     11  C   UNL     1      12.400   5.972  -5.829  0.00  0.00    +0.047 A 
ATOM     12  C   UNL     1      11.561   5.540  -6.936  0.00  0.00    +0.035 A 
ATOM     32  C   UNL     1      11.335   6.451  -8.008  0.00  0.00    +0.024 A 
ATOM     33  C   UNL     1      11.915   7.771  -8.004  0.00  0.00    +0.007 A 
ATOM     34  C   UNL     1      12.742   8.204  -6.913  0.00  0.00    -0.029 A 
ATOM     35  C   UNL     1      13.333   9.632  -6.959  0.00  0.00    +0.045 C 
ENDROOT
BRANCH  10   9
ATOM      4  C   UNL     1      17.251   7.839  -3.697  0.00  0.00    +0.077 A 
ATOM      5  C   UNL     1      17.952   7.350  -4.849  0.00  0.00    +0.048 A 
ATOM      6  C   UNL     1      17.176   6.954  -5.961  0.00  0.00    +0.116 A 
ATOM      7  N   UNL     1      15.802   7.046  -5.915  0.00  0.00    -0.223 NA
ATOM      8  C   UNL     1      15.157   7.521  -4.787  0.00  0.00    +0.220 A 
ATOM      9  N   UNL     1      13.777   7.629  -4.721  0.00  0.00    -0.283 N 
ATOM     36  H   UNL     1      13.338   7.977  -3.869  0.00  0.00    +0.155 HD
ATOM     37  N   UNL     1      15.876   7.904  -3.711  0.00  0.00    -0.214 NA
BRANCH   4   3
ATOM      1  C   UNL     1      17.906   9.152  -0.071  0.00  0.00    +0.020 A 
ATOM      2  C   UNL     1      17.201   8.717  -1.255  0.00  0.00    +0.013 A 
ATOM      3  C   UNL     1      17.931   8.299  -2.445  0.00  0.00    +0.019 A 
ATOM     38  C   UNL     1      19.385   8.331  -2.403  0.00  0.00    +0.120 A 
ATOM     39  N   UNL     1      20.037   8.755  -1.249  0.00  0.00    -0.263 NA
ATOM     40  C   UNL     1      19.345   9.162  -0.099  0.00  0.00    +0.111 A 
ENDBRANCH   4   3
ENDBRANCH  10   9
BRANCH  12  13
ATOM     13  N   UNL     1      10.939   4.241  -7.007  0.00  0.00    -0.281 N 
ATOM     14  C   UNL     1      10.150   3.621  -6.051  0.00  0.00    +0.248 C 
ATOM     30  O   UNL     1      10.034   4.003  -4.897  0.00  0.00    -0.270 OA
ATOM     31  H   UNL     1      11.100   3.715  -7.866  0.00  0.00    +0.155 HD
BRANCH  14  15
ATOM     15  C   UNL     1       9.391   2.390  -6.430  0.00  0.00    +0.037 A 
ATOM     16  C   UNL     1       8.819   1.507  -5.411  0.00  0.00    +0.013 A 
ATOM     17  C   UNL     1       8.106   0.317  -5.802  0.00  0.00    +0.005 A 
ATOM     18  C   UNL     1       7.960   0.005  -7.222  0.00  0.00    -0.033 A 
ATOM     28  C   UNL     1       8.533   0.901  -8.212  0.00  0.00    +0.005 A 
ATOM     29  C   UNL     1       9.233   2.068  -7.832  0.00  0.00    +0.013 A 
BRANCH  18  19
ATOM     19  C   UNL     1       7.233  -1.255  -7.731  0.00  0.00    +0.119 C 
BRANCH  19  20
ATOM     20  N   UNL     1       7.432  -1.627  -9.163  0.00  0.00    -0.302 NA
ATOM     21  C   UNL     1       6.185  -1.347 -10.008  0.00  0.00    +0.066 C 
ATOM     22  C   UNL     1       6.418  -1.721 -11.508  0.00  0.00    -0.064 C 
ATOM     23  N   UNL     1       6.820  -3.194 -11.607  0.00  0.00    +0.379 N 
ATOM     24  C   UNL     1       6.983  -3.563 -13.020  0.00  0.00    -0.096 C 
ATOM     25  H   UNL     1       5.982  -3.801 -11.193  0.00  0.00    -0.082 HD
ATOM     26  C   UNL     1       8.057  -3.481 -10.768  0.00  0.00    -0.064 C 
ATOM     27  C   UNL     1       7.825  -3.078  -9.285  0.00  0.00    +0.066 C 
ENDBRANCH  19  20
ENDBRANCH  18  19
ENDBRANCH  14  15
ENDBRANCH  12  13
TORSDOF 6
ENDMDL
MODEL 4
REMARK VINA RESULT:      -7.6      3.991     14.182
REMARK  Name = C:\Users\Docking\Desktop\test protocol\1iep_ligandH.pdb
REMARK  8 active torsions:
REMARK  status: ('A' for Active; 'I' for Inactive)
REMARK    1  A    between atoms: _5  and  _11
REMARK    2  A    between atoms: _19  and  _21
REMARK    3  A    between atoms: _22  and  _66
REMARK    4  A    between atoms: _27  and  _30
REMARK    5  A    between atoms: _32  and  _33
REMARK    6  A    between atoms: _38  and  _43
REMARK    7  A    between atoms: _43  and  _46
REMARK    8  A    between atoms: _53  and  _55
REMARK                            x       y       z     vdW  Elec       q    Type
REMARK                         _______ _______ _______ _____ _____    ______ ____
ROOT
ATOM     10  C   UNL     1      19.132   6.803  -3.788  0.00  0.00    +0.038 A 
ATOM     11  C   UNL     1      17.733   6.618  -3.923  0.00  0.00    +0.047 A 
ATOM     12  C   UNL     1      17.137   5.294  -3.831  0.00  0.00    +0.035 A 
ATOM     32  C   UNL     1      17.996   4.181  -3.599  0.00  0.00    +0.024 A 
ATOM     33  C   UNL     1      19.421   4.351  -3.460  0.00  0.00    +0.007 A 
ATOM     34  C   UNL     1      20.015   5.654  -3.552  0.00  0.00    -0.029 A 
ATOM     35  C   UNL     1      21.549   5.777  -3.402  0.00  0.00    +0.045 C 
ENDROOT
BRANCH  10   9
ATOM      4  C   UNL     1      20.445  10.993  -1.848  0.00  0.00    +0.077 A 
ATOM      5  C   UNL     1      20.039  10.580  -0.536  0.00  0.00    +0.048 A 
ATOM      6  C   UNL     1      19.490   9.285  -0.404  0.00  0.00    +0.116 A 
ATOM      7  N   UNL     1      19.362   8.471  -1.509  0.00  0.00    -0.223 NA
ATOM      8  C   UNL     1      19.763   8.901  -2.761  0.00  0.00    +0.220 A 
ATOM      9  N   UNL     1      19.651   8.097  -3.884  0.00  0.00    -0.283 N 
ATOM     36  H   UNL     1      19.951   8.453  -4.791  0.00  0.00    +0.155 HD
ATOM     37  N   UNL     1      20.288  10.134  -2.913  0.00  0.00    -0.214 NA
BRANCH   4   3
ATOM      1  C   UNL     1      22.737  14.162  -1.757  0.00  0.00    +0.020 A 
ATOM      2  C   UNL     1      22.195  12.863  -1.427  0.00  0.00    +0.013 A 
ATOM      3  C   UNL     1      21.046  12.331  -2.148  0.00  0.00    +0.019 A 
ATOM     38  C   UNL     1      20.464  13.144  -3.206  0.00  0.00    +0.120 A 
ATOM     39  N   UNL     1      21.006  14.391  -3.500  0.00  0.00    -0.263 NA
ATOM     40  C   UNL     1      22.111  14.914  -2.812  0.00  0.00    +0.111 A 
ENDBRANCH   4   3
ENDBRANCH  10   9
BRANCH  12  13
ATOM     13  N   UNL     1      15.724   5.043  -3.968  0.00  0.00    -0.281 N 
ATOM     14  C   UNL     1      14.931   5.224  -5.090  0.00  0.00    +0.248 C 
ATOM     30  O   UNL     1      15.279   5.834  -6.091  0.00  0.00    -0.270 OA
ATOM     31  H   UNL     1      15.250   4.690  -3.137  0.00  0.00    +0.155 HD
BRANCH  14  15
ATOM     15  C   UNL     1      13.549   4.657  -5.097  0.00  0.00    +0.037 A 
ATOM     16  C   UNL     1      12.441   5.362  -5.747  0.00  0.00    +0.013 A 
ATOM     17  C   UNL     1      11.113   4.801  -5.724  0.00  0.00    +0.005 A 
ATOM     18  C   UNL     1      10.886   3.526  -5.048  0.00  0.00    -0.033 A 
ATOM     28  C   UNL     1      12.004   2.846  -4.415  0.00  0.00    +0.005 A 
ATOM     29  C   UNL     1      13.306   3.393  -4.435  0.00  0.00    +0.013 A 
BRANCH  18  19
ATOM     19  C   UNL     1       9.499   2.864  -4.955  0.00  0.00    +0.119 C 
BRANCH  19  20
ATOM     20  N   UNL     1       9.149   1.860  -6.004  0.00  0.00    -0.302 NA
ATOM     21  C   UNL     1       8.776   2.524  -7.333  0.00  0.00    +0.066 C 
ATOM     22  C   UNL     1       8.434   1.458  -8.425  0.00  0.00    -0.064 C 
ATOM     23  N   UNL     1       7.295   0.567  -7.925  0.00  0.00    +0.379 N 
ATOM     24  C   UNL     1       6.933  -0.399  -8.973  0.00  0.00    -0.096 C 
ATOM     25  H   UNL     1       6.410   1.220  -7.746  0.00  0.00    -0.082 HD
ATOM     26  C   UNL     1       7.657  -0.094  -6.603  0.00  0.00    -0.064 C 
ATOM     27  C   UNL     1       8.023   0.972  -5.533  0.00  0.00    +0.066 C 
ENDBRANCH  19  20
ENDBRANCH  18  19
ENDBRANCH  14  15
ENDBRANCH  12  13
TORSDOF 6
ENDMDL
MODEL 5
REMARK VINA RESULT:      -7.6      1.438      2.173
REMARK  Name = C:\Users\Docking\Desktop\test protocol\1iep_ligandH.pdb
REMARK  8 active torsions:
REMARK  status: ('A' for Active; 'I' for Inactive)
REMARK    1  A    between atoms: _5  and  _11
REMARK    2  A    between atoms: _19  and  _21
REMARK    3  A    between atoms: _22  and  _66
REMARK    4  A    between atoms: _27  and  _30
REMARK    5  A    between atoms: _32  and  _33
REMARK    6  A    between atoms: _38  and  _43
REMARK    7  A    between atoms: _43  and  _46
REMARK    8  A    between atoms: _53  and  _55
REMARK                            x       y       z     vdW  Elec       q    Type
REMARK                         _______ _______ _______ _____ _____    ______ ____
ROOT
ATOM     10  C   UNL     1      10.231   0.468  -5.250  0.00  0.00    +0.038 A 
ATOM     11  C   UNL     1      11.356   1.266  -4.918  0.00  0.00    +0.047 A 
ATOM     12  C   UNL     1      11.221   2.694  -4.677  0.00  0.00    +0.035 A 
ATOM     32  C   UNL     1       9.924   3.277  -4.779  0.00  0.00    +0.024 A 
ATOM     33  C   UNL     1       8.770   2.481  -5.117  0.00  0.00    +0.007 A 
ATOM     34  C   UNL     1       8.897   1.073  -5.358  0.00  0.00    -0.029 A 
ATOM     35  C   UNL     1       7.627   0.270  -5.723  0.00  0.00    +0.045 C 
ENDROOT
BRANCH  10   9
ATOM      4  C   UNL     1      11.108  -3.272  -8.126  0.00  0.00    +0.077 A 
ATOM      5  C   UNL     1      11.172  -2.437  -9.291  0.00  0.00    +0.048 A 
ATOM      6  C   UNL     1      10.967  -1.051  -9.108  0.00  0.00    +0.116 A 
ATOM      7  N   UNL     1      10.717  -0.549  -7.849  0.00  0.00    -0.223 NA
ATOM      8  C   UNL     1      10.660  -1.382  -6.747  0.00  0.00    +0.220 A 
ATOM      9  N   UNL     1      10.418  -0.898  -5.471  0.00  0.00    -0.283 N 
ATOM     36  H   UNL     1      10.376  -1.546  -4.685  0.00  0.00    +0.155 HD
ATOM     37  N   UNL     1      10.851  -2.710  -6.896  0.00  0.00    -0.214 NA
BRANCH   4   3
ATOM      1  C   UNL     1      10.800  -7.062  -9.046  0.00  0.00    +0.020 A 
ATOM      2  C   UNL     1      10.570  -5.635  -9.056  0.00  0.00    +0.013 A 
ATOM      3  C   UNL     1      11.306  -4.756  -8.157  0.00  0.00    +0.019 A 
ATOM     38  C   UNL     1      12.277  -5.356  -7.254  0.00  0.00    +0.120 A 
ATOM     39  N   UNL     1      12.476  -6.733  -7.266  0.00  0.00    -0.263 NA
ATOM     40  C   UNL     1      11.772  -7.590  -8.126  0.00  0.00    +0.111 A 
ENDBRANCH   4   3
ENDBRANCH  10   9
BRANCH  12  13
ATOM     13  N   UNL     1      12.328   3.556  -4.344  0.00  0.00    -0.281 N 
ATOM     14  C   UNL     1      12.875   4.573  -5.109  0.00  0.00    +0.248 C 
ATOM     30  O   UNL     1      12.629   4.757  -6.292  0.00  0.00    -0.270 OA
ATOM     31  H   UNL     1      12.761   3.396  -3.434  0.00  0.00    +0.155 HD
BRANCH  14  15
ATOM     15  C   UNL     1      13.846   5.514  -4.471  0.00  0.00    +0.037 A 
ATOM     16  C   UNL     1      14.018   6.881  -4.969  0.00  0.00    +0.013 A 
ATOM     17  C   UNL     1      14.974   7.762  -4.347  0.00  0.00    +0.005 A 
ATOM     18  C   UNL     1      15.764   7.279  -3.217  0.00  0.00    -0.033 A 
ATOM     28  C   UNL     1      15.569   5.920  -2.740  0.00  0.00    +0.005 A 
ATOM     29  C   UNL     1      14.634   5.053  -3.348  0.00  0.00    +0.013 A 
BRANCH  18  19
ATOM     19  C   UNL     1      16.822   8.143  -2.505  0.00  0.00    +0.119 C 
BRANCH  19  20
ATOM     20  N   UNL     1      17.183   9.444  -3.143  0.00  0.00    -0.302 NA
ATOM     21  C   UNL     1      18.426   9.325  -4.029  0.00  0.00    +0.066 C 
ATOM     22  C   UNL     1      18.776  10.690  -4.705  0.00  0.00    -0.064 C 
ATOM     23  N   UNL     1      18.982  11.753  -3.625  0.00  0.00    +0.379 N 
ATOM     24  C   UNL     1      19.368  13.024  -4.255  0.00  0.00    -0.096 C 
ATOM     25  H   UNL     1      19.830  11.423  -2.982  0.00  0.00    -0.082 HD
ATOM     26  C   UNL     1      17.751  11.877  -2.738  0.00  0.00    -0.064 C 
ATOM     27  C   UNL     1      17.394  10.508  -2.094  0.00  0.00    +0.066 C 
ENDBRANCH  19  20
ENDBRANCH  18  19
ENDBRANCH  14  15
ENDBRANCH  12  13
TORSDOF 6
ENDMDL
