MODEL 1
REMARK VINA RESULT:     -10.4      0.000      0.000
REMARK  Name = C:\Users\Docking\Desktop\test protocol\1iep_ligandH.pdb
REMARK  8 active torsions:
REMARK  status: ('A' for Active; 'I' for Inactive)
REMARK    1  A    between atoms: _5  and  _11
REMARK    2  A    between atoms: _19  and  _21
REMARK    3  A    between atoms: _22  and  _66
REMARK    4  A    between atoms: _27  and  _30
REMARK    5  A    between atoms: _32  and  _33
REMARK    6  A    between atoms: _38  and  _43
REMARK    7  A    between atoms: _43  and  _46
REMARK    8  A    between atoms: _53  and  _55
REMARK                            x       y       z     vdW  Elec       q    Type
REMARK                         _______ _______ _______ _____ _____    ______ ____
ROOT
ATOM     10  C   UNL     1     -17.653  61.942  -9.218  0.00  0.00    +0.038 A 
ATOM     11  C   UNL     1     -18.153  61.740  -7.906  0.00  0.00    +0.047 A 
ATOM     12  C   UNL     1     -17.667  62.532  -6.786  0.00  0.00    +0.035 A 
ATOM     32  C   UNL     1     -16.674  63.522  -7.039  0.00  0.00    +0.024 A 
ATOM     33  C   UNL     1     -16.154  63.739  -8.367  0.00  0.00    +0.007 A 
ATOM     34  C   UNL     1     -16.628  62.960  -9.475  0.00  0.00    -0.029 A 
ATOM     35  C   UNL     1     -16.031  63.232 -10.875  0.00  0.00    +0.045 C 
ENDROOT
BRANCH  10   9
ATOM      4  C   UNL     1     -20.512  61.260 -13.013  0.00  0.00    +0.077 A 
ATOM      5  C   UNL     1     -21.072  62.576 -12.902  0.00  0.00    +0.048 A 
ATOM      6  C   UNL     1     -20.602  63.395 -11.851  0.00  0.00    +0.116 A 
ATOM      7  N   UNL     1     -19.644  62.922 -10.981  0.00  0.00    -0.223 NA
ATOM      8  C   UNL     1     -19.126  61.647 -11.115  0.00  0.00    +0.220 A 
ATOM      9  N   UNL     1     -18.155  61.153 -10.256  0.00  0.00    -0.283 N 
ATOM     36  H   UNL     1     -17.804  60.205 -10.384  0.00  0.00    +0.155 HD
ATOM     37  N   UNL     1     -19.559  60.845 -12.110  0.00  0.00    -0.214 NA
BRANCH   4   3
ATOM      1  C   UNL     1     -21.472  57.952 -14.867  0.00  0.00    +0.020 A 
ATOM      2  C   UNL     1     -21.094  58.858 -13.807  0.00  0.00    +0.013 A 
ATOM      3  C   UNL     1     -20.903  60.278 -14.074  0.00  0.00    +0.019 A 
ATOM     38  C   UNL     1     -21.106  60.754 -15.434  0.00  0.00    +0.120 A 
ATOM     39  N   UNL     1     -21.469  59.858 -16.435  0.00  0.00    -0.263 NA
ATOM     40  C   UNL     1     -21.653  58.489 -16.191  0.00  0.00    +0.111 A 
ENDBRANCH   4   3
ENDBRANCH  10   9
BRANCH  12  13
ATOM     13  N   UNL     1     -18.130  62.366  -5.431  0.00  0.00    -0.281 N 
ATOM     14  C   UNL     1     -18.335  61.184  -4.739  0.00  0.00    +0.248 C 
ATOM     30  O   UNL     1     -18.354  60.076  -5.254  0.00  0.00    -0.270 OA
ATOM     31  H   UNL     1     -18.332  63.226  -4.919  0.00  0.00    +0.155 HD
BRANCH  14  15
ATOM     15  C   UNL     1     -18.567  61.241  -3.263  0.00  0.00    +0.037 A 
ATOM     16  C   UNL     1     -17.495  60.931  -2.314  0.00  0.00    +0.013 A 
ATOM     17  C   UNL     1     -17.750  60.978  -0.896  0.00  0.00    +0.005 A 
ATOM     18  C   UNL     1     -19.083  61.337  -0.419  0.00  0.00    -0.033 A 
ATOM     28  C   UNL     1     -20.126  61.645  -1.383  0.00  0.00    +0.005 A 
ATOM     29  C   UNL     1     -19.880  61.600  -2.774  0.00  0.00    +0.013 A 
BRANCH  18  19
ATOM     19  C   UNL     1     -19.450  61.392   1.076  0.00  0.00    +0.119 C 
BRANCH  19  20
ATOM     20  N   UNL     1     -18.964  62.568   1.857  0.00  0.00    -0.302 NA
ATOM     21  C   UNL     1     -17.450  62.756   1.730  0.00  0.00    +0.066 C 
ATOM     22  C   UNL     1     -16.962  64.004   2.536  0.00  0.00    -0.064 C 
ATOM     23  N   UNL     1     -17.368  63.852   4.003  0.00  0.00    +0.379 N 
ATOM     24  C   UNL     1     -16.860  64.996   4.774  0.00  0.00    -0.096 C 
ATOM     25  H   UNL     1     -16.874  62.933   4.396  0.00  0.00    -0.082 HD
ATOM     26  C   UNL     1     -18.872  63.661   4.138  0.00  0.00    -0.064 C 
ATOM     27  C   UNL     1     -19.351  62.436   3.310  0.00  0.00    +0.066 C 
ENDBRANCH  19  20
ENDBRANCH  18  19
ENDBRANCH  14  15
ENDBRANCH  12  13
TORSDOF 6
ENDMDL
MODEL 2
REMARK VINA RESULT:     -10.4      4.391      6.418
REMARK  Name = C:\Users\Docking\Desktop\test protocol\1iep_ligandH.pdb
REMARK  8 active torsions:
REMARK  status: ('A' for Active; 'I' for Inactive)
REMARK    1  A    between atoms: _5  and  _11
REMARK    2  A    between atoms: _19  and  _21
REMARK    3  A    between atoms: _22  and  _66
REMARK    4  A    between atoms: _27  and  _30
REMARK    5  A    between atoms: _32  and  _33
REMARK    6  A    between atoms: _38  and  _43
REMARK    7  A    between atoms: _43  and  _46
REMARK    8  A    between atoms: _53  and  _55
REMARK                            x       y       z     vdW  Elec       q    Type
REMARK                         _______ _______ _______ _____ _____    ______ ____
ROOT
ATOM     10  C   UNL     1     -15.587  62.503  -8.542  0.00  0.00    +0.038 A 
ATOM     11  C   UNL     1     -16.139  62.166  -7.280  0.00  0.00    +0.047 A 
ATOM     12  C   UNL     1     -17.116  63.026  -6.632  0.00  0.00    +0.035 A 
ATOM     32  C   UNL     1     -17.511  64.222  -7.299  0.00  0.00    +0.024 A 
ATOM     33  C   UNL     1     -16.960  64.581  -8.582  0.00  0.00    +0.007 A 
ATOM     34  C   UNL     1     -15.993  63.737  -9.225  0.00  0.00    -0.029 A 
ATOM     35  C   UNL     1     -15.431  64.175 -10.598  0.00  0.00    +0.045 C 
ENDROOT
BRANCH  10   9
ATOM      4  C   UNL     1     -11.076  61.072  -9.341  0.00  0.00    +0.077 A 
ATOM      5  C   UNL     1     -10.534  62.151  -8.566  0.00  0.00    +0.048 A 
ATOM      6  C   UNL     1     -11.449  63.056  -7.984  0.00  0.00    +0.116 A 
ATOM      7  N   UNL     1     -12.804  62.885  -8.170  0.00  0.00    -0.223 NA
ATOM      8  C   UNL     1     -13.294  61.835  -8.925  0.00  0.00    +0.220 A 
ATOM      9  N   UNL     1     -14.652  61.640  -9.119  0.00  0.00    -0.283 N 
ATOM     36  H   UNL     1     -14.973  60.858  -9.689  0.00  0.00    +0.155 HD
ATOM     37  N   UNL     1     -12.440  60.958  -9.493  0.00  0.00    -0.214 NA
BRANCH   4   3
ATOM      1  C   UNL     1      -9.915  57.779 -11.104  0.00  0.00    +0.020 A 
ATOM      2  C   UNL     1     -10.768  58.748 -10.456  0.00  0.00    +0.013 A 
ATOM      3  C   UNL     1     -10.237  60.032 -10.016  0.00  0.00    +0.019 A 
ATOM     38  C   UNL     1      -8.827  60.306 -10.249  0.00  0.00    +0.120 A 
ATOM     39  N   UNL     1      -8.029  59.352 -10.874  0.00  0.00    -0.263 NA
ATOM     40  C   UNL     1      -8.529  58.113 -11.300  0.00  0.00    +0.111 A 
ENDBRANCH   4   3
ENDBRANCH  10   9
BRANCH  12  13
ATOM     13  N   UNL     1     -17.704  62.740  -5.347  0.00  0.00    -0.281 N 
ATOM     14  C   UNL     1     -18.355  61.584  -4.947  0.00  0.00    +0.248 C 
ATOM     30  O   UNL     1     -18.718  60.698  -5.706  0.00  0.00    -0.270 OA
ATOM     31  H   UNL     1     -17.633  63.479  -4.647  0.00  0.00    +0.155 HD
BRANCH  14  15
ATOM     15  C   UNL     1     -18.658  61.391  -3.496  0.00  0.00    +0.037 A 
ATOM     16  C   UNL     1     -19.994  61.655  -2.957  0.00  0.00    +0.013 A 
ATOM     17  C   UNL     1     -20.255  61.477  -1.551  0.00  0.00    +0.005 A 
ATOM     18  C   UNL     1     -19.176  61.032  -0.673  0.00  0.00    -0.033 A 
ATOM     28  C   UNL     1     -17.861  60.772  -1.235  0.00  0.00    +0.005 A 
ATOM     29  C   UNL     1     -17.601  60.946  -2.613  0.00  0.00    +0.013 A 
BRANCH  18  19
ATOM     19  C   UNL     1     -19.359  60.836   0.844  0.00  0.00    +0.119 C 
BRANCH  19  20
ATOM     20  N   UNL     1     -19.002  61.984   1.729  0.00  0.00    -0.302 NA
ATOM     21  C   UNL     1     -17.543  62.415   1.551  0.00  0.00    +0.066 C 
ATOM     22  C   UNL     1     -17.193  63.632   2.468  0.00  0.00    -0.064 C 
ATOM     23  N   UNL     1     -17.475  63.266   3.926  0.00  0.00    +0.379 N 
ATOM     24  C   UNL     1     -17.092  64.387   4.797  0.00  0.00    -0.096 C 
ATOM     25  H   UNL     1     -16.827  62.397   4.188  0.00  0.00    -0.082 HD
ATOM     26  C   UNL     1     -18.923  62.833   4.112  0.00  0.00    -0.064 C 
ATOM     27  C   UNL     1     -19.268  61.642   3.175  0.00  0.00    +0.066 C 
ENDBRANCH  19  20
ENDBRANCH  18  19
ENDBRANCH  14  15
ENDBRANCH  12  13
TORSDOF 6
ENDMDL
MODEL 3
REMARK VINA RESULT:     -10.2      7.942     11.246
REMARK  Name = C:\Users\Docking\Desktop\test protocol\1iep_ligandH.pdb
REMARK  8 active torsions:
REMARK  status: ('A' for Active; 'I' for Inactive)
REMARK    1  A    between atoms: _5  and  _11
REMARK    2  A    between atoms: _19  and  _21
REMARK    3  A    between atoms: _22  and  _66
REMARK    4  A    between atoms: _27  and  _30
REMARK    5  A    between atoms: _32  and  _33
REMARK    6  A    between atoms: _38  and  _43
REMARK    7  A    between atoms: _43  and  _46
REMARK    8  A    between atoms: _53  and  _55
REMARK                            x       y       z     vdW  Elec       q    Type
REMARK                         _______ _______ _______ _____ _____    ______ ____
ROOT
ATOM     10  C   UNL     1      -9.810  60.777 -10.075  0.00  0.00    +0.038 A 
ATOM     11  C   UNL     1     -10.826  61.233  -9.197  0.00  0.00    +0.047 A 
ATOM     12  C   UNL     1     -12.027  60.445  -8.961  0.00  0.00    +0.035 A 
ATOM     32  C   UNL     1     -12.158  59.196  -9.635  0.00  0.00    +0.024 A 
ATOM     33  C   UNL     1     -11.135  58.718 -10.532  0.00  0.00    +0.007 A 
ATOM     34  C   UNL     1      -9.950  59.492 -10.770  0.00  0.00    -0.029 A 
ATOM     35  C   UNL     1      -8.889  58.933 -11.746  0.00  0.00    +0.045 C 
ENDROOT
BRANCH  10   9
ATOM      4  C   UNL     1      -5.259  61.960  -9.116  0.00  0.00    +0.077 A 
ATOM      5  C   UNL     1      -5.132  60.920  -8.136  0.00  0.00    +0.048 A 
ATOM      6  C   UNL     1      -6.264  60.107  -7.903  0.00  0.00    +0.116 A 
ATOM      7  N   UNL     1      -7.430  60.327  -8.604  0.00  0.00    -0.223 NA
ATOM      8  C   UNL     1      -7.519  61.340  -9.541  0.00  0.00    +0.220 A 
ATOM      9  N   UNL     1      -8.679  61.574 -10.264  0.00  0.00    -0.283 N 
ATOM     36  H   UNL     1      -8.706  62.336 -10.941  0.00  0.00    +0.155 HD
ATOM     37  N   UNL     1      -6.452  62.131  -9.781  0.00  0.00    -0.214 NA
BRANCH   4   3
ATOM      1  C   UNL     1      -1.755  63.683  -9.355  0.00  0.00    +0.020 A 
ATOM      2  C   UNL     1      -2.789  62.748  -8.976  0.00  0.00    +0.013 A 
ATOM      3  C   UNL     1      -4.150  62.900  -9.476  0.00  0.00    +0.019 A 
ATOM     38  C   UNL     1      -4.433  64.016 -10.365  0.00  0.00    +0.120 A 
ATOM     39  N   UNL     1      -3.417  64.902 -10.712  0.00  0.00    -0.263 NA
ATOM     40  C   UNL     1      -2.104  64.767 -10.235  0.00  0.00    +0.111 A 
ENDBRANCH   4   3
ENDBRANCH  10   9
BRANCH  12  13
ATOM     13  N   UNL     1     -13.096  60.861  -8.087  0.00  0.00    -0.281 N 
ATOM     14  C   UNL     1     -14.044  61.846  -8.310  0.00  0.00    +0.248 C 
ATOM     30  O   UNL     1     -13.986  62.670  -9.211  0.00  0.00    -0.270 OA
ATOM     31  H   UNL     1     -13.161  60.369  -7.196  0.00  0.00    +0.155 HD
BRANCH  14  15
ATOM     15  C   UNL     1     -15.219  61.937  -7.391  0.00  0.00    +0.037 A 
ATOM     16  C   UNL     1     -15.060  62.345  -5.993  0.00  0.00    +0.013 A 
ATOM     17  C   UNL     1     -16.208  62.409  -5.123  0.00  0.00    +0.005 A 
ATOM     18  C   UNL     1     -17.527  62.065  -5.651  0.00  0.00    -0.033 A 
ATOM     28  C   UNL     1     -17.656  61.669  -7.044  0.00  0.00    +0.005 A 
ATOM     29  C   UNL     1     -16.533  61.604  -7.899  0.00  0.00    +0.013 A 
BRANCH  18  19
ATOM     19  C   UNL     1     -18.804  62.085  -4.790  0.00  0.00    +0.119 C 
BRANCH  19  20
ATOM     20  N   UNL     1     -18.816  61.230  -3.566  0.00  0.00    -0.302 NA
ATOM     21  C   UNL     1     -18.870  59.738  -3.908  0.00  0.00    +0.066 C 
ATOM     22  C   UNL     1     -18.860  58.858  -2.616  0.00  0.00    -0.064 C 
ATOM     23  N   UNL     1     -20.038  59.252  -1.724  0.00  0.00    +0.379 N 
ATOM     24  C   UNL     1     -20.065  58.386  -0.536  0.00  0.00    -0.096 C 
ATOM     25  H   UNL     1     -20.975  59.066  -2.300  0.00  0.00    -0.082 HD
ATOM     26  C   UNL     1     -19.994  60.734  -1.382  0.00  0.00    -0.064 C 
ATOM     27  C   UNL     1     -19.975  61.599  -2.673  0.00  0.00    +0.066 C 
ENDBRANCH  19  20
ENDBRANCH  18  19
ENDBRANCH  14  15
ENDBRANCH  12  13
TORSDOF 6
ENDMDL
MODEL 4
REMARK VINA RESULT:     -10.2      6.731     12.303
REMARK  Name = C:\Users\Docking\Desktop\test protocol\1iep_ligandH.pdb
REMARK  8 active torsions:
REMARK  status: ('A' for Active; 'I' for Inactive)
REMARK    1  A    between atoms: _5  and  _11
REMARK    2  A    between atoms: _19  and  _21
REMARK    3  A    between atoms: _22  and  _66
REMARK    4  A    between atoms: _27  and  _30
REMARK    5  A    between atoms: _32  and  _33
REMARK    6  A    between atoms: _38  and  _43
REMARK    7  A    between atoms: _43  and  _46
REMARK    8  A    between atoms: _53  and  _55
REMARK                            x       y       z     vdW  Elec       q    Type
REMARK                         _______ _______ _______ _____ _____    ______ ____
ROOT
ATOM     10  C   UNL     1     -16.846  61.429  -9.304  0.00  0.00    +0.038 A 
ATOM     11  C   UNL     1     -15.431  61.465  -9.228  0.00  0.00    +0.047 A 
ATOM     12  C   UNL     1     -14.629  61.948 -10.342  0.00  0.00    +0.035 A 
ATOM     32  C   UNL     1     -15.303  62.388 -11.518  0.00  0.00    +0.024 A 
ATOM     33  C   UNL     1     -16.742  62.357 -11.613  0.00  0.00    +0.007 A 
ATOM     34  C   UNL     1     -17.537  61.879 -10.518  0.00  0.00    -0.029 A 
ATOM     35  C   UNL     1     -19.075  61.862 -10.678  0.00  0.00    +0.045 C 
ENDROOT
BRANCH  10   9
ATOM      4  C   UNL     1     -17.728  61.230  -4.590  0.00  0.00    +0.077 A 
ATOM      5  C   UNL     1     -16.645  62.123  -4.290  0.00  0.00    +0.048 A 
ATOM      6  C   UNL     1     -15.882  62.605  -5.377  0.00  0.00    +0.116 A 
ATOM      7  N   UNL     1     -16.187  62.217  -6.664  0.00  0.00    -0.223 NA
ATOM      8  C   UNL     1     -17.237  61.353  -6.918  0.00  0.00    +0.220 A 
ATOM      9  N   UNL     1     -17.566  60.956  -8.205  0.00  0.00    -0.283 N 
ATOM     36  H   UNL     1     -18.343  60.312  -8.350  0.00  0.00    +0.155 HD
ATOM     37  N   UNL     1     -17.980  60.878  -5.897  0.00  0.00    -0.214 NA
BRANCH   4   3
ATOM      1  C   UNL     1     -19.612  58.685  -2.294  0.00  0.00    +0.020 A 
ATOM      2  C   UNL     1     -18.727  59.204  -3.311  0.00  0.00    +0.013 A 
ATOM      3  C   UNL     1     -18.628  60.639  -3.550  0.00  0.00    +0.019 A 
ATOM     38  C   UNL     1     -19.443  61.527  -2.736  0.00  0.00    +0.120 A 
ATOM     39  N   UNL     1     -20.287  60.998  -1.765  0.00  0.00    -0.263 NA
ATOM     40  C   UNL     1     -20.392  59.619  -1.527  0.00  0.00    +0.111 A 
ENDBRANCH   4   3
ENDBRANCH  10   9
BRANCH  12  13
ATOM     13  N   UNL     1     -13.188  62.000 -10.325  0.00  0.00    -0.281 N 
ATOM     14  C   UNL     1     -12.372  62.698  -9.450  0.00  0.00    +0.248 C 
ATOM     30  O   UNL     1     -12.764  63.558  -8.676  0.00  0.00    -0.270 OA
ATOM     31  H   UNL     1     -12.713  61.458 -11.046  0.00  0.00    +0.155 HD
BRANCH  14  15
ATOM     15  C   UNL     1     -10.906  62.408  -9.445  0.00  0.00    +0.037 A 
ATOM     16  C   UNL     1     -10.389  61.093  -9.831  0.00  0.00    +0.013 A 
ATOM     17  C   UNL     1      -8.971  60.835  -9.800  0.00  0.00    +0.005 A 
ATOM     18  C   UNL     1      -8.059  61.897  -9.383  0.00  0.00    -0.033 A 
ATOM     28  C   UNL     1      -8.598  63.194  -9.010  0.00  0.00    +0.005 A 
ATOM     29  C   UNL     1      -9.987  63.450  -9.038  0.00  0.00    +0.013 A 
BRANCH  18  19
ATOM     19  C   UNL     1      -6.533  61.704  -9.300  0.00  0.00    +0.119 C 
BRANCH  19  20
ATOM     20  N   UNL     1      -5.714  62.243 -10.426  0.00  0.00    -0.302 NA
ATOM     21  C   UNL     1      -4.727  61.204 -10.967  0.00  0.00    +0.066 C 
ATOM     22  C   UNL     1      -3.894  61.778 -12.159  0.00  0.00    -0.064 C 
ATOM     23  N   UNL     1      -3.158  63.039 -11.704  0.00  0.00    +0.379 N 
ATOM     24  C   UNL     1      -2.328  63.547 -12.806  0.00  0.00    -0.096 C 
ATOM     25  H   UNL     1      -2.475  62.750 -10.871  0.00  0.00    -0.082 HD
ATOM     26  C   UNL     1      -4.132  64.076 -11.163  0.00  0.00    -0.064 C 
ATOM     27  C   UNL     1      -4.975  63.487  -9.998  0.00  0.00    +0.066 C 
ENDBRANCH  19  20
ENDBRANCH  18  19
ENDBRANCH  14  15
ENDBRANCH  12  13
TORSDOF 6
ENDMDL
MODEL 5
REMARK VINA RESULT:     -10.1     12.320     18.025
REMARK  Name = C:\Users\Docking\Desktop\test protocol\1iep_ligandH.pdb
REMARK  8 active torsions:
REMARK  status: ('A' for Active; 'I' for Inactive)
REMARK    1  A    between atoms: _5  and  _11
REMARK    2  A    between atoms: _19  and  _21
REMARK    3  A    between atoms: _22  and  _66
REMARK    4  A    between atoms: _27  and  _30
REMARK    5  A    between atoms: _32  and  _33
REMARK    6  A    between atoms: _38  and  _43
REMARK    7  A    between atoms: _43  and  _46
REMARK    8  A    between atoms: _53  and  _55
REMARK                            x       y       z     vdW  Elec       q    Type
REMARK                         _______ _______ _______ _____ _____    ______ ____
ROOT
ATOM     10  C   UNL     1      -7.413  60.308 -10.520  0.00  0.00    +0.038 A 
ATOM     11  C   UNL     1      -8.014  59.741 -11.673  0.00  0.00    +0.047 A 
ATOM     12  C   UNL     1      -8.945  58.628 -11.566  0.00  0.00    +0.035 A 
ATOM     32  C   UNL     1      -9.244  58.120 -10.269  0.00  0.00    +0.024 A 
ATOM     33  C   UNL     1      -8.642  58.684  -9.086  0.00  0.00    +0.007 A 
ATOM     34  C   UNL     1      -7.720  59.780  -9.186  0.00  0.00    -0.029 A 
ATOM     35  C   UNL     1      -7.100  60.341  -7.885  0.00  0.00    +0.045 C 
ENDROOT
BRANCH  10   9
ATOM      4  C   UNL     1      -3.063  62.086 -11.498  0.00  0.00    +0.077 A 
ATOM      5  C   UNL     1      -2.504  60.777 -11.677  0.00  0.00    +0.048 A 
ATOM      6  C   UNL     1      -3.367  59.672 -11.502  0.00  0.00    +0.116 A 
ATOM      7  N   UNL     1      -4.690  59.874 -11.172  0.00  0.00    -0.223 NA
ATOM      8  C   UNL     1      -5.197  61.149 -11.005  0.00  0.00    +0.220 A 
ATOM      9  N   UNL     1      -6.526  61.375 -10.681  0.00  0.00    -0.283 N 
ATOM     36  H   UNL     1      -6.860  62.331 -10.559  0.00  0.00    +0.155 HD
ATOM     37  N   UNL     1      -4.393  62.220 -11.165  0.00  0.00    -0.214 NA
BRANCH   4   3
ATOM      1  C   UNL     1      -1.738  65.737 -11.033  0.00  0.00    +0.020 A 
ATOM      2  C   UNL     1      -2.525  64.540 -10.844  0.00  0.00    +0.013 A 
ATOM      3  C   UNL     1      -2.279  63.352 -11.652  0.00  0.00    +0.019 A 
ATOM     38  C   UNL     1      -1.220  63.408 -12.649  0.00  0.00    +0.120 A 
ATOM     39  N   UNL     1      -0.480  64.575 -12.809  0.00  0.00    -0.263 NA
ATOM     40  C   UNL     1      -0.709  65.725 -12.039  0.00  0.00    +0.111 A 
ENDBRANCH   4   3
ENDBRANCH  10   9
BRANCH  12  13
ATOM     13  N   UNL     1      -9.579  58.006 -12.702  0.00  0.00    -0.281 N 
ATOM     14  C   UNL     1      -9.043  57.068 -13.569  0.00  0.00    +0.248 C 
ATOM     30  O   UNL     1      -7.858  56.778 -13.626  0.00  0.00    -0.270 OA
ATOM     31  H   UNL     1     -10.540  58.292 -12.889  0.00  0.00    +0.155 HD
BRANCH  14  15
ATOM     15  C   UNL     1      -9.954  56.360 -14.519  0.00  0.00    +0.037 A 
ATOM     16  C   UNL     1     -11.402  56.321 -14.298  0.00  0.00    +0.013 A 
ATOM     17  C   UNL     1     -12.256  55.616 -15.221  0.00  0.00    +0.005 A 
ATOM     18  C   UNL     1     -11.663  54.946 -16.376  0.00  0.00    -0.033 A 
ATOM     28  C   UNL     1     -10.224  55.005 -16.574  0.00  0.00    +0.005 A 
ATOM     29  C   UNL     1      -9.384  55.693 -15.671  0.00  0.00    +0.013 A 
BRANCH  18  19
ATOM     19  C   UNL     1     -12.495  54.152 -17.400  0.00  0.00    +0.119 C 
BRANCH  19  20
ATOM     20  N   UNL     1     -12.874  52.754 -17.038  0.00  0.00    -0.302 NA
ATOM     21  C   UNL     1     -11.807  51.742 -17.464  0.00  0.00    +0.066 C 
ATOM     22  C   UNL     1     -12.208  50.286 -17.058  0.00  0.00    -0.064 C 
ATOM     23  N   UNL     1     -13.562  49.941 -17.681  0.00  0.00    +0.379 N 
ATOM     24  C   UNL     1     -13.915  48.553 -17.348  0.00  0.00    -0.096 C 
ATOM     25  H   UNL     1     -13.451  50.006 -18.788  0.00  0.00    -0.082 HD
ATOM     26  C   UNL     1     -14.628  50.944 -17.265  0.00  0.00    -0.064 C 
ATOM     27  C   UNL     1     -14.206  52.390 -17.647  0.00  0.00    +0.066 C 
ENDBRANCH  19  20
ENDBRANCH  18  19
ENDBRANCH  14  15
ENDBRANCH  12  13
TORSDOF 6
ENDMDL
