MODEL 1
REMARK VINA RESULT:      -8.4      0.000      0.000
REMARK  Name = C:\Users\Docking\Desktop\test protocol\1iep_ligandH.pdb
REMARK  8 active torsions:
REMARK  status: ('A' for Active; 'I' for Inactive)
REMARK    1  A    between atoms: _5  and  _11
REMARK    2  A    between atoms: _19  and  _21
REMARK    3  A    between atoms: _22  and  _66
REMARK    4  A    between atoms: _27  and  _30
REMARK    5  A    between atoms: _32  and  _33
REMARK    6  A    between atoms: _38  and  _43
REMARK    7  A    between atoms: _43  and  _46
REMARK    8  A    between atoms: _53  and  _55
REMARK                            x       y       z     vdW  Elec       q    Type
REMARK                         _______ _______ _______ _____ _____    ______ ____
ROOT
ATOM     10  C   UNL     1      -9.727  23.036 -12.185  0.00  0.00    +0.038 A 
ATOM     11  C   UNL     1      -9.568  21.918 -11.328  0.00  0.00    +0.047 A 
ATOM     12  C   UNL     1      -9.091  20.641 -11.837  0.00  0.00    +0.035 A 
ATOM     32  C   UNL     1      -8.782  20.540 -13.225  0.00  0.00    +0.024 A 
ATOM     33  C   UNL     1      -8.939  21.667 -14.111  0.00  0.00    +0.007 A 
ATOM     34  C   UNL     1      -9.412  22.928 -13.615  0.00  0.00    -0.029 A 
ATOM     35  C   UNL     1      -9.567  24.100 -14.611  0.00  0.00    +0.045 C 
ENDROOT
BRANCH  10   9
ATOM      4  C   UNL     1     -13.219  26.197 -11.259  0.00  0.00    +0.077 A 
ATOM      5  C   UNL     1     -14.201  25.400 -11.936  0.00  0.00    +0.048 A 
ATOM      6  C   UNL     1     -13.765  24.187 -12.515  0.00  0.00    +0.116 A 
ATOM      7  N   UNL     1     -12.443  23.809 -12.418  0.00  0.00    -0.223 NA
ATOM      8  C   UNL     1     -11.521  24.602 -11.760  0.00  0.00    +0.220 A 
ATOM      9  N   UNL     1     -10.189  24.238 -11.643  0.00  0.00    -0.283 N 
ATOM     36  H   UNL     1      -9.538  24.854 -11.156  0.00  0.00    +0.155 HD
ATOM     37  N   UNL     1     -11.912  25.766 -11.200  0.00  0.00    -0.214 NA
BRANCH   4   3
ATOM      1  C   UNL     1     -14.543  29.810 -10.561  0.00  0.00    +0.020 A 
ATOM      2  C   UNL     1     -14.274  28.568 -11.248  0.00  0.00    +0.013 A 
ATOM      3  C   UNL     1     -13.525  27.503 -10.594  0.00  0.00    +0.019 A 
ATOM     38  C   UNL     1     -13.060  27.727  -9.234  0.00  0.00    +0.120 A 
ATOM     39  N   UNL     1     -13.333  28.934  -8.598  0.00  0.00    -0.263 NA
ATOM     40  C   UNL     1     -14.051  29.967  -9.217  0.00  0.00    +0.111 A 
ENDBRANCH   4   3
ENDBRANCH  10   9
BRANCH  12  13
ATOM     13  N   UNL     1      -8.917  19.469 -11.016  0.00  0.00    -0.281 N 
ATOM     14  C   UNL     1      -7.733  18.837 -10.672  0.00  0.00    +0.248 C 
ATOM     30  O   UNL     1      -6.653  19.062 -11.197  0.00  0.00    -0.270 OA
ATOM     31  H   UNL     1      -9.771  19.054 -10.642  0.00  0.00    +0.155 HD
BRANCH  14  15
ATOM     15  C   UNL     1      -7.755  17.795  -9.601  0.00  0.00    +0.037 A 
ATOM     16  C   UNL     1      -8.803  16.773  -9.556  0.00  0.00    +0.013 A 
ATOM     17  C   UNL     1      -8.811  15.790  -8.502  0.00  0.00    +0.005 A 
ATOM     18  C   UNL     1      -7.763  15.824  -7.483  0.00  0.00    -0.033 A 
ATOM     28  C   UNL     1      -6.732  16.846  -7.555  0.00  0.00    +0.005 A 
ATOM     29  C   UNL     1      -6.723  17.812  -8.586  0.00  0.00    +0.013 A 
BRANCH  18  19
ATOM     19  C   UNL     1      -7.705  14.828  -6.310  0.00  0.00    +0.119 C 
BRANCH  19  20
ATOM     20  N   UNL     1      -6.606  13.817  -6.326  0.00  0.00    -0.302 NA
ATOM     21  C   UNL     1      -6.544  13.057  -7.654  0.00  0.00    +0.066 C 
ATOM     22  C   UNL     1      -5.374  12.019  -7.662  0.00  0.00    -0.064 C 
ATOM     23  N   UNL     1      -5.549  11.050  -6.491  0.00  0.00    +0.379 N 
ATOM     24  C   UNL     1      -4.483  10.038  -6.530  0.00  0.00    -0.096 C 
ATOM     25  H   UNL     1      -6.521  10.524  -6.630  0.00  0.00    -0.082 HD
ATOM     26  C   UNL     1      -5.614  11.798  -5.167  0.00  0.00    -0.064 C 
ATOM     27  C   UNL     1      -6.760  12.847  -5.181  0.00  0.00    +0.066 C 
ENDBRANCH  19  20
ENDBRANCH  18  19
ENDBRANCH  14  15
ENDBRANCH  12  13
TORSDOF 6
ENDMDL
MODEL 2
REMARK VINA RESULT:      -7.9      2.650     14.304
REMARK  Name = C:\Users\Docking\Desktop\test protocol\1iep_ligandH.pdb
REMARK  8 active torsions:
REMARK  status: ('A' for Active; 'I' for Inactive)
REMARK    1  A    between atoms: _5  and  _11
REMARK    2  A    between atoms: _19  and  _21
REMARK    3  A    between atoms: _22  and  _66
REMARK    4  A    between atoms: _27  and  _30
REMARK    5  A    between atoms: _32  and  _33
REMARK    6  A    between atoms: _38  and  _43
REMARK    7  A    between atoms: _43  and  _46
REMARK    8  A    between atoms: _53  and  _55
REMARK                            x       y       z     vdW  Elec       q    Type
REMARK                         _______ _______ _______ _____ _____    ______ ____
ROOT
ATOM     10  C   UNL     1      -5.136  15.571  -6.894  0.00  0.00    +0.038 A 
ATOM     11  C   UNL     1      -5.603  16.330  -7.998  0.00  0.00    +0.047 A 
ATOM     12  C   UNL     1      -6.805  17.142  -7.899  0.00  0.00    +0.035 A 
ATOM     32  C   UNL     1      -7.507  17.160  -6.658  0.00  0.00    +0.024 A 
ATOM     33  C   UNL     1      -7.048  16.394  -5.526  0.00  0.00    +0.007 A 
ATOM     34  C   UNL     1      -5.864  15.589  -5.619  0.00  0.00    -0.029 A 
ATOM     35  C   UNL     1      -5.421  14.784  -4.376  0.00  0.00    +0.045 C 
ENDROOT
BRANCH  10   9
ATOM      4  C   UNL     1      -2.878  11.415  -7.711  0.00  0.00    +0.077 A 
ATOM      5  C   UNL     1      -4.115  10.696  -7.820  0.00  0.00    +0.048 A 
ATOM      6  C   UNL     1      -5.310  11.432  -7.652  0.00  0.00    +0.116 A 
ATOM      7  N   UNL     1      -5.259  12.785  -7.395  0.00  0.00    -0.223 NA
ATOM      8  C   UNL     1      -4.050  13.447  -7.295  0.00  0.00    +0.220 A 
ATOM      9  N   UNL     1      -3.976  14.809  -7.045  0.00  0.00    -0.283 N 
ATOM     36  H   UNL     1      -3.064  15.259  -6.971  0.00  0.00    +0.155 HD
ATOM     37  N   UNL     1      -2.895  12.767  -7.450  0.00  0.00    -0.214 NA
BRANCH   4   3
ATOM      1  C   UNL     1       0.985  10.803  -7.706  0.00  0.00    +0.020 A 
ATOM      2  C   UNL     1      -0.289  11.463  -7.537  0.00  0.00    +0.013 A 
ATOM      3  C   UNL     1      -1.532  10.779  -7.868  0.00  0.00    +0.019 A 
ATOM     38  C   UNL     1      -1.451   9.415  -8.370  0.00  0.00    +0.120 A 
ATOM     39  N   UNL     1      -0.210   8.805  -8.523  0.00  0.00    -0.263 NA
ATOM     40  C   UNL     1       0.993   9.455  -8.210  0.00  0.00    +0.111 A 
ENDBRANCH   4   3
ENDBRANCH  10   9
BRANCH  12  13
ATOM     13  N   UNL     1      -7.331  17.926  -8.988  0.00  0.00    -0.281 N 
ATOM     14  C   UNL     1      -8.170  17.511 -10.009  0.00  0.00    +0.248 C 
ATOM     30  O   UNL     1      -8.426  16.343 -10.262  0.00  0.00    -0.270 OA
ATOM     31  H   UNL     1      -7.051  18.907  -9.009  0.00  0.00    +0.155 HD
BRANCH  14  15
ATOM     15  C   UNL     1      -8.806  18.542 -10.885  0.00  0.00    +0.037 A 
ATOM     16  C   UNL     1     -10.197  18.411 -11.326  0.00  0.00    +0.013 A 
ATOM     17  C   UNL     1     -10.781  19.411 -12.185  0.00  0.00    +0.005 A 
ATOM     18  C   UNL     1      -9.972  20.552 -12.608  0.00  0.00    -0.033 A 
ATOM     28  C   UNL     1      -8.597  20.660 -12.151  0.00  0.00    +0.005 A 
ATOM     29  C   UNL     1      -8.021  19.681 -11.310  0.00  0.00    +0.013 A 
BRANCH  18  19
ATOM     19  C   UNL     1     -10.506  21.656 -13.540  0.00  0.00    +0.119 C 
BRANCH  19  20
ATOM     20  N   UNL     1     -11.585  22.539 -13.007  0.00  0.00    -0.302 NA
ATOM     21  C   UNL     1     -11.907  23.693 -13.960  0.00  0.00    +0.066 C 
ATOM     22  C   UNL     1     -13.054  24.594 -13.397  0.00  0.00    -0.064 C 
ATOM     23  N   UNL     1     -12.652  25.125 -12.020  0.00  0.00    +0.379 N 
ATOM     24  C   UNL     1     -13.703  26.019 -11.512  0.00  0.00    -0.096 C 
ATOM     25  H   UNL     1     -11.725  25.731 -12.149  0.00  0.00    -0.082 HD
ATOM     26  C   UNL     1     -12.327  23.984 -11.066  0.00  0.00    -0.064 C 
ATOM     27  C   UNL     1     -11.207  23.078 -11.649  0.00  0.00    +0.066 C 
ENDBRANCH  19  20
ENDBRANCH  18  19
ENDBRANCH  14  15
ENDBRANCH  12  13
TORSDOF 6
ENDMDL
MODEL 3
REMARK VINA RESULT:      -7.9      1.726      2.709
REMARK  Name = C:\Users\Docking\Desktop\test protocol\1iep_ligandH.pdb
REMARK  8 active torsions:
REMARK  status: ('A' for Active; 'I' for Inactive)
REMARK    1  A    between atoms: _5  and  _11
REMARK    2  A    between atoms: _19  and  _21
REMARK    3  A    between atoms: _22  and  _66
REMARK    4  A    between atoms: _27  and  _30
REMARK    5  A    between atoms: _32  and  _33
REMARK    6  A    between atoms: _38  and  _43
REMARK    7  A    between atoms: _43  and  _46
REMARK    8  A    between atoms: _53  and  _55
REMARK                            x       y       z     vdW  Elec       q    Type
REMARK                         _______ _______ _______ _____ _____    ______ ____
ROOT
ATOM     10  C   UNL     1      -9.792  23.052 -12.288  0.00  0.00    +0.038 A 
ATOM     11  C   UNL     1      -9.606  21.905 -11.475  0.00  0.00    +0.047 A 
ATOM     12  C   UNL     1      -9.156  20.644 -12.044  0.00  0.00    +0.035 A 
ATOM     32  C   UNL     1      -8.901  20.588 -13.445  0.00  0.00    +0.024 A 
ATOM     33  C   UNL     1      -9.085  21.744 -14.287  0.00  0.00    +0.007 A 
ATOM     34  C   UNL     1      -9.532  22.990 -13.731  0.00  0.00    -0.029 A 
ATOM     35  C   UNL     1      -9.719  24.195 -14.682  0.00  0.00    +0.045 C 
ENDROOT
BRANCH  10   9
ATOM      4  C   UNL     1     -13.209  26.246 -11.212  0.00  0.00    +0.077 A 
ATOM      5  C   UNL     1     -14.209  25.506 -11.927  0.00  0.00    +0.048 A 
ATOM      6  C   UNL     1     -13.801  24.312 -12.563  0.00  0.00    +0.116 A 
ATOM      7  N   UNL     1     -12.489  23.899 -12.484  0.00  0.00    -0.223 NA
ATOM      8  C   UNL     1     -11.549  24.637 -11.788  0.00  0.00    +0.220 A 
ATOM      9  N   UNL     1     -10.226  24.237 -11.689  0.00  0.00    -0.283 N 
ATOM     36  H   UNL     1      -9.562  24.813 -11.173  0.00  0.00    +0.155 HD
ATOM     37  N   UNL     1     -11.914  25.782 -11.173  0.00  0.00    -0.214 NA
BRANCH   4   3
ATOM      1  C   UNL     1     -13.289  29.047  -8.483  0.00  0.00    +0.020 A 
ATOM      2  C   UNL     1     -12.993  27.794  -9.140  0.00  0.00    +0.013 A 
ATOM      3  C   UNL     1     -13.486  27.525 -10.485  0.00  0.00    +0.019 A 
ATOM     38  C   UNL     1     -14.280  28.552 -11.143  0.00  0.00    +0.120 A 
ATOM     39  N   UNL     1     -14.549  29.748 -10.484  0.00  0.00    -0.263 NA
ATOM     40  C   UNL     1     -14.082  30.018  -9.189  0.00  0.00    +0.111 A 
ENDBRANCH   4   3
ENDBRANCH  10   9
BRANCH  12  13
ATOM     13  N   UNL     1      -8.957  19.444 -11.270  0.00  0.00    -0.281 N 
ATOM     14  C   UNL     1      -7.765  18.795 -10.996  0.00  0.00    +0.248 C 
ATOM     30  O   UNL     1      -6.705  19.030 -11.557  0.00  0.00    -0.270 OA
ATOM     31  H   UNL     1      -9.798  19.022 -10.875  0.00  0.00    +0.155 HD
BRANCH  14  15
ATOM     15  C   UNL     1      -7.750  17.718  -9.959  0.00  0.00    +0.037 A 
ATOM     16  C   UNL     1      -8.217  16.364 -10.263  0.00  0.00    +0.013 A 
ATOM     17  C   UNL     1      -8.209  15.348  -9.240  0.00  0.00    +0.005 A 
ATOM     18  C   UNL     1      -7.729  15.685  -7.902  0.00  0.00    -0.033 A 
ATOM     28  C   UNL     1      -7.266  17.035  -7.628  0.00  0.00    +0.005 A 
ATOM     29  C   UNL     1      -7.274  18.033  -8.628  0.00  0.00    +0.013 A 
BRANCH  18  19
ATOM     19  C   UNL     1      -7.704  14.671  -6.743  0.00  0.00    +0.119 C 
BRANCH  19  20
ATOM     20  N   UNL     1      -8.659  14.895  -5.617  0.00  0.00    -0.302 NA
ATOM     21  C   UNL     1      -8.280  14.087  -4.372  0.00  0.00    +0.066 C 
ATOM     22  C   UNL     1      -9.276  14.352  -3.197  0.00  0.00    -0.064 C 
ATOM     23  N   UNL     1     -10.697  14.013  -3.650  0.00  0.00    +0.379 N 
ATOM     24  C   UNL     1     -11.629  14.206  -2.529  0.00  0.00    -0.096 C 
ATOM     25  H   UNL     1     -10.716  12.933  -3.924  0.00  0.00    -0.082 HD
ATOM     26  C   UNL     1     -11.081  14.811  -4.889  0.00  0.00    -0.064 C 
ATOM     27  C   UNL     1     -10.068  14.563  -6.041  0.00  0.00    +0.066 C 
ENDBRANCH  19  20
ENDBRANCH  18  19
ENDBRANCH  14  15
ENDBRANCH  12  13
TORSDOF 6
ENDMDL
MODEL 4
REMARK VINA RESULT:      -7.6      9.323     14.258
REMARK  Name = C:\Users\Docking\Desktop\test protocol\1iep_ligandH.pdb
REMARK  8 active torsions:
REMARK  status: ('A' for Active; 'I' for Inactive)
REMARK    1  A    between atoms: _5  and  _11
REMARK    2  A    between atoms: _19  and  _21
REMARK    3  A    between atoms: _22  and  _66
REMARK    4  A    between atoms: _27  and  _30
REMARK    5  A    between atoms: _32  and  _33
REMARK    6  A    between atoms: _38  and  _43
REMARK    7  A    between atoms: _43  and  _46
REMARK    8  A    between atoms: _53  and  _55
REMARK                            x       y       z     vdW  Elec       q    Type
REMARK                         _______ _______ _______ _____ _____    ______ ____
ROOT
ATOM     10  C   UNL     1      -8.446  14.612  -4.679  0.00  0.00    +0.038 A 
ATOM     11  C   UNL     1      -9.095  13.819  -3.699  0.00  0.00    +0.047 A 
ATOM     12  C   UNL     1      -9.766  14.428  -2.561  0.00  0.00    +0.035 A 
ATOM     32  C   UNL     1      -9.758  15.850  -2.454  0.00  0.00    +0.024 A 
ATOM     33  C   UNL     1      -9.102  16.671  -3.441  0.00  0.00    +0.007 A 
ATOM     34  C   UNL     1      -8.437  16.075  -4.565  0.00  0.00    -0.029 A 
ATOM     35  C   UNL     1      -7.745  17.005  -5.589  0.00  0.00    +0.045 C 
ENDROOT
BRANCH  10   9
ATOM      4  C   UNL     1      -4.531  13.003  -6.942  0.00  0.00    +0.077 A 
ATOM      5  C   UNL     1      -3.661  13.498  -5.915  0.00  0.00    +0.048 A 
ATOM      6  C   UNL     1      -4.261  14.168  -4.824  0.00  0.00    +0.116 A 
ATOM      7  N   UNL     1      -5.629  14.324  -4.775  0.00  0.00    -0.223 NA
ATOM      8  C   UNL     1      -6.439  13.835  -5.784  0.00  0.00    +0.220 A 
ATOM      9  N   UNL     1      -7.818  13.974  -5.751  0.00  0.00    -0.283 N 
ATOM     36  H   UNL     1      -8.380  13.606  -6.518  0.00  0.00    +0.155 HD
ATOM     37  N   UNL     1      -5.891  13.193  -6.836  0.00  0.00    -0.214 NA
BRANCH   4   3
ATOM      1  C   UNL     1      -3.229  12.191 -10.540  0.00  0.00    +0.020 A 
ATOM      2  C   UNL     1      -3.690  12.945  -9.397  0.00  0.00    +0.013 A 
ATOM      3  C   UNL     1      -4.049  12.271  -8.156  0.00  0.00    +0.019 A 
ATOM     38  C   UNL     1      -3.927  10.822  -8.103  0.00  0.00    +0.120 A 
ATOM     39  N   UNL     1      -3.482  10.122  -9.221  0.00  0.00    -0.263 NA
ATOM     40  C   UNL     1      -3.136  10.760 -10.421  0.00  0.00    +0.111 A 
ENDBRANCH   4   3
ENDBRANCH  10   9
BRANCH  12  13
ATOM     13  N   UNL     1     -10.434  13.674  -1.530  0.00  0.00    -0.281 N 
ATOM     14  C   UNL     1     -11.540  12.849  -1.659  0.00  0.00    +0.248 C 
ATOM     30  O   UNL     1     -12.256  12.803  -2.649  0.00  0.00    -0.270 OA
ATOM     31  H   UNL     1     -10.045  13.758  -0.591  0.00  0.00    +0.155 HD
BRANCH  14  15
ATOM     15  C   UNL     1     -11.913  11.958  -0.519  0.00  0.00    +0.037 A 
ATOM     16  C   UNL     1     -12.647  12.473   0.639  0.00  0.00    +0.013 A 
ATOM     17  C   UNL     1     -12.980  11.595   1.733  0.00  0.00    +0.005 A 
ATOM     18  C   UNL     1     -12.579  10.192   1.673  0.00  0.00    -0.033 A 
ATOM     28  C   UNL     1     -11.856   9.706   0.509  0.00  0.00    +0.005 A 
ATOM     29  C   UNL     1     -11.527  10.564  -0.565  0.00  0.00    +0.013 A 
BRANCH  18  19
ATOM     19  C   UNL     1     -12.873   9.188   2.804  0.00  0.00    +0.119 C 
BRANCH  19  20
ATOM     20  N   UNL     1     -11.770   8.904   3.769  0.00  0.00    -0.302 NA
ATOM     21  C   UNL     1     -11.134   7.532   3.528  0.00  0.00    +0.066 C 
ATOM     22  C   UNL     1      -9.967   7.260   4.532  0.00  0.00    -0.064 C 
ATOM     23  N   UNL     1     -10.495   7.368   5.964  0.00  0.00    +0.379 N 
ATOM     24  C   UNL     1      -9.414   7.056   6.910  0.00  0.00    -0.096 C 
ATOM     25  H   UNL     1     -11.289   6.596   6.091  0.00  0.00    -0.082 HD
ATOM     26  C   UNL     1     -11.131   8.729   6.212  0.00  0.00    -0.064 C 
ATOM     27  C   UNL     1     -12.270   9.001   5.190  0.00  0.00    +0.066 C 
ENDBRANCH  19  20
ENDBRANCH  18  19
ENDBRANCH  14  15
ENDBRANCH  12  13
TORSDOF 6
ENDMDL
MODEL 5
REMARK VINA RESULT:      -7.6      3.460     14.429
REMARK  Name = C:\Users\Docking\Desktop\test protocol\1iep_ligandH.pdb
REMARK  8 active torsions:
REMARK  status: ('A' for Active; 'I' for Inactive)
REMARK    1  A    between atoms: _5  and  _11
REMARK    2  A    between atoms: _19  and  _21
REMARK    3  A    between atoms: _22  and  _66
REMARK    4  A    between atoms: _27  and  _30
REMARK    5  A    between atoms: _32  and  _33
REMARK    6  A    between atoms: _38  and  _43
REMARK    7  A    between atoms: _43  and  _46
REMARK    8  A    between atoms: _53  and  _55
REMARK                            x       y       z     vdW  Elec       q    Type
REMARK                         _______ _______ _______ _____ _____    ______ ____
ROOT
ATOM     10  C   UNL     1      -5.015  15.413  -6.788  0.00  0.00    +0.038 A 
ATOM     11  C   UNL     1      -5.554  16.158  -7.867  0.00  0.00    +0.047 A 
ATOM     12  C   UNL     1      -6.758  16.958  -7.702  0.00  0.00    +0.035 A 
ATOM     32  C   UNL     1      -7.386  16.977  -6.423  0.00  0.00    +0.024 A 
ATOM     33  C   UNL     1      -6.852  16.224  -5.315  0.00  0.00    +0.007 A 
ATOM     34  C   UNL     1      -5.666  15.432  -5.473  0.00  0.00    -0.029 A 
ATOM     35  C   UNL     1      -5.142  14.640  -4.252  0.00  0.00    +0.045 C 
ENDROOT
BRANCH  10   9
ATOM      4  C   UNL     1      -2.763  11.283  -7.744  0.00  0.00    +0.077 A 
ATOM      5  C   UNL     1      -3.997  10.554  -7.794  0.00  0.00    +0.048 A 
ATOM      6  C   UNL     1      -5.188  11.277  -7.562  0.00  0.00    +0.116 A 
ATOM      7  N   UNL     1      -5.137  12.629  -7.299  0.00  0.00    -0.223 NA
ATOM      8  C   UNL     1      -3.930  13.302  -7.256  0.00  0.00    +0.220 A 
ATOM      9  N   UNL     1      -3.856  14.663  -7.002  0.00  0.00    -0.283 N 
ATOM     36  H   UNL     1      -2.946  15.121  -6.971  0.00  0.00    +0.155 HD
ATOM     37  N   UNL     1      -2.778  12.633  -7.474  0.00  0.00    -0.214 NA
BRANCH   4   3
ATOM      1  C   UNL     1       0.068   8.776  -8.745  0.00  0.00    +0.020 A 
ATOM      2  C   UNL     1      -1.251   9.331  -8.546  0.00  0.00    +0.013 A 
ATOM      3  C   UNL     1      -1.421  10.660  -7.972  0.00  0.00    +0.019 A 
ATOM     38  C   UNL     1      -0.226  11.407  -7.608  0.00  0.00    +0.120 A 
ATOM     39  N   UNL     1       1.031  10.846  -7.811  0.00  0.00    -0.263 NA
ATOM     40  C   UNL     1       1.207   9.568  -8.361  0.00  0.00    +0.111 A 
ENDBRANCH   4   3
ENDBRANCH  10   9
BRANCH  12  13
ATOM     13  N   UNL     1      -7.356  17.729  -8.764  0.00  0.00    -0.281 N 
ATOM     14  C   UNL     1      -8.108  17.268  -9.832  0.00  0.00    +0.248 C 
ATOM     30  O   UNL     1      -8.201  16.093 -10.155  0.00  0.00    -0.270 OA
ATOM     31  H   UNL     1      -7.206  18.737  -8.723  0.00  0.00    +0.155 HD
BRANCH  14  15
ATOM     15  C   UNL     1      -8.852  18.256 -10.671  0.00  0.00    +0.037 A 
ATOM     16  C   UNL     1      -8.255  19.542 -11.040  0.00  0.00    +0.013 A 
ATOM     17  C   UNL     1      -9.001  20.484 -11.836  0.00  0.00    +0.005 A 
ATOM     18  C   UNL     1     -10.353  20.142 -12.270  0.00  0.00    -0.033 A 
ATOM     28  C   UNL     1     -10.919  18.857 -11.894  0.00  0.00    +0.005 A 
ATOM     29  C   UNL     1     -10.192  17.932 -11.113  0.00  0.00    +0.013 A 
BRANCH  18  19
ATOM     19  C   UNL     1     -11.230  21.095 -13.104  0.00  0.00    +0.119 C 
BRANCH  19  20
ATOM     20  N   UNL     1     -10.592  22.348 -13.606  0.00  0.00    -0.302 NA
ATOM     21  C   UNL     1     -11.583  23.514 -13.665  0.00  0.00    +0.066 C 
ATOM     22  C   UNL     1     -10.893  24.823 -14.171  0.00  0.00    -0.064 C 
ATOM     23  N   UNL     1     -10.272  24.569 -15.546  0.00  0.00    +0.379 N 
ATOM     24  C   UNL     1      -9.673  25.814 -16.050  0.00  0.00    -0.096 C 
ATOM     25  H   UNL     1     -11.095  24.284 -16.241  0.00  0.00    -0.082 HD
ATOM     26  C   UNL     1      -9.287  23.410 -15.496  0.00  0.00    -0.064 C 
ATOM     27  C   UNL     1      -9.975  22.122 -14.964  0.00  0.00    +0.066 C 
ENDBRANCH  19  20
ENDBRANCH  18  19
ENDBRANCH  14  15
ENDBRANCH  12  13
TORSDOF 6
ENDMDL
