MODEL 1
REMARK VINA RESULT:      -7.0      0.000      0.000
REMARK  Name = C:\Users\Docking\Desktop\test protocol\1iep_ligandH.pdb
REMARK  8 active torsions:
REMARK  status: ('A' for Active; 'I' for Inactive)
REMARK    1  A    between atoms: _5  and  _11
REMARK    2  A    between atoms: _19  and  _21
REMARK    3  A    between atoms: _22  and  _66
REMARK    4  A    between atoms: _27  and  _30
REMARK    5  A    between atoms: _32  and  _33
REMARK    6  A    between atoms: _38  and  _43
REMARK    7  A    between atoms: _43  and  _46
REMARK    8  A    between atoms: _53  and  _55
REMARK                            x       y       z     vdW  Elec       q    Type
REMARK                         _______ _______ _______ _____ _____    ______ ____
ROOT
ATOM     10  C   UNL     1      31.115  35.888  30.866  0.00  0.00    +0.038 A 
ATOM     11  C   UNL     1      31.398  34.667  30.203  0.00  0.00    +0.047 A 
ATOM     12  C   UNL     1      30.418  33.593  30.153  0.00  0.00    +0.035 A 
ATOM     32  C   UNL     1      29.158  33.798  30.787  0.00  0.00    +0.024 A 
ATOM     33  C   UNL     1      28.854  35.033  31.466  0.00  0.00    +0.007 A 
ATOM     34  C   UNL     1      29.817  36.095  31.521  0.00  0.00    -0.029 A 
ATOM     35  C   UNL     1      29.439  37.395  32.268  0.00  0.00    +0.045 C 
ENDROOT
BRANCH  10   9
ATOM      4  C   UNL     1      34.916  38.056  32.838  0.00  0.00    +0.077 A 
ATOM      5  C   UNL     1      34.940  37.139  33.942  0.00  0.00    +0.048 A 
ATOM      6  C   UNL     1      33.953  36.129  33.968  0.00  0.00    +0.116 A 
ATOM      7  N   UNL     1      33.016  36.050  32.961  0.00  0.00    -0.223 NA
ATOM      8  C   UNL     1      33.020  36.951  31.911  0.00  0.00    +0.220 A 
ATOM      9  N   UNL     1      32.092  36.885  30.883  0.00  0.00    -0.283 N 
ATOM     36  H   UNL     1      32.124  37.573  30.131  0.00  0.00    +0.155 HD
ATOM     37  N   UNL     1      33.951  37.926  31.864  0.00  0.00    -0.214 NA
BRANCH   4   3
ATOM      1  C   UNL     1      38.232  40.074  32.353  0.00  0.00    +0.020 A 
ATOM      2  C   UNL     1      37.329  38.958  32.516  0.00  0.00    +0.013 A 
ATOM      3  C   UNL     1      35.895  39.175  32.667  0.00  0.00    +0.019 A 
ATOM     38  C   UNL     1      35.404  40.545  32.649  0.00  0.00    +0.120 A 
ATOM     39  N   UNL     1      36.298  41.600  32.492  0.00  0.00    -0.263 NA
ATOM     40  C   UNL     1      37.679  41.403  32.348  0.00  0.00    +0.111 A 
ENDBRANCH   4   3
ENDBRANCH  10   9
BRANCH  12  13
ATOM     13  N   UNL     1      30.652  32.328  29.502  0.00  0.00    -0.281 N 
ATOM     14  C   UNL     1      30.628  31.062  30.066  0.00  0.00    +0.248 C 
ATOM     30  O   UNL     1      30.610  30.841  31.267  0.00  0.00    -0.270 OA
ATOM     31  H   UNL     1      30.862  32.370  28.505  0.00  0.00    +0.155 HD
BRANCH  14  15
ATOM     15  C   UNL     1      30.639  29.870  29.164  0.00  0.00    +0.037 A 
ATOM     16  C   UNL     1      31.745  29.630  28.235  0.00  0.00    +0.013 A 
ATOM     17  C   UNL     1      31.723  28.482  27.364  0.00  0.00    +0.005 A 
ATOM     18  C   UNL     1      30.588  27.563  27.420  0.00  0.00    -0.033 A 
ATOM     28  C   UNL     1      29.506  27.822  28.356  0.00  0.00    +0.005 A 
ATOM     29  C   UNL     1      29.525  28.947  29.210  0.00  0.00    +0.013 A 
BRANCH  18  19
ATOM     19  C   UNL     1      30.470  26.323  26.514  0.00  0.00    +0.119 C 
BRANCH  19  20
ATOM     20  N   UNL     1      29.951  25.069  27.135  0.00  0.00    -0.302 NA
ATOM     21  C   UNL     1      30.937  23.906  26.991  0.00  0.00    +0.066 C 
ATOM     22  C   UNL     1      30.387  22.607  27.666  0.00  0.00    -0.064 C 
ATOM     23  N   UNL     1      29.033  22.249  27.050  0.00  0.00    +0.379 N 
ATOM     24  C   UNL     1      28.541  20.996  27.642  0.00  0.00    -0.096 C 
ATOM     25  H   UNL     1      29.195  22.069  25.962  0.00  0.00    -0.082 HD
ATOM     26  C   UNL     1      28.048  23.401  27.186  0.00  0.00    -0.064 C 
ATOM     27  C   UNL     1      28.616  24.694  26.538  0.00  0.00    +0.066 C 
ENDBRANCH  19  20
ENDBRANCH  18  19
ENDBRANCH  14  15
ENDBRANCH  12  13
TORSDOF 6
ENDMDL
MODEL 2
REMARK VINA RESULT:      -7.0      6.863     12.618
REMARK  Name = C:\Users\Docking\Desktop\test protocol\1iep_ligandH.pdb
REMARK  8 active torsions:
REMARK  status: ('A' for Active; 'I' for Inactive)
REMARK    1  A    between atoms: _5  and  _11
REMARK    2  A    between atoms: _19  and  _21
REMARK    3  A    between atoms: _22  and  _66
REMARK    4  A    between atoms: _27  and  _30
REMARK    5  A    between atoms: _32  and  _33
REMARK    6  A    between atoms: _38  and  _43
REMARK    7  A    between atoms: _43  and  _46
REMARK    8  A    between atoms: _53  and  _55
REMARK                            x       y       z     vdW  Elec       q    Type
REMARK                         _______ _______ _______ _____ _____    ______ ____
ROOT
ATOM     10  C   UNL     1      26.872  24.177  26.190  0.00  0.00    +0.038 A 
ATOM     11  C   UNL     1      27.472  22.991  25.694  0.00  0.00    +0.047 A 
ATOM     12  C   UNL     1      26.701  21.769  25.530  0.00  0.00    +0.035 A 
ATOM     32  C   UNL     1      25.318  21.791  25.878  0.00  0.00    +0.024 A 
ATOM     33  C   UNL     1      24.692  22.987  26.384  0.00  0.00    +0.007 A 
ATOM     34  C   UNL     1      25.449  24.195  26.550  0.00  0.00    -0.029 A 
ATOM     35  C   UNL     1      24.728  25.446  27.103  0.00  0.00    +0.045 C 
ENDROOT
BRANCH  10   9
ATOM      4  C   UNL     1      30.058  26.861  28.574  0.00  0.00    +0.077 A 
ATOM      5  C   UNL     1      30.139  25.915  29.650  0.00  0.00    +0.048 A 
ATOM      6  C   UNL     1      29.339  24.754  29.554  0.00  0.00    +0.116 A 
ATOM      7  N   UNL     1      28.523  24.564  28.460  0.00  0.00    -0.223 NA
ATOM      8  C   UNL     1      28.468  25.497  27.441  0.00  0.00    +0.220 A 
ATOM      9  N   UNL     1      27.660  25.322  26.327  0.00  0.00    -0.283 N 
ATOM     36  H   UNL     1      27.642  26.037  25.601  0.00  0.00    +0.155 HD
ATOM     37  N   UNL     1      29.220  26.614  27.509  0.00  0.00    -0.214 NA
BRANCH   4   3
ATOM      1  C   UNL     1      32.535  29.682  27.475  0.00  0.00    +0.020 A 
ATOM      2  C   UNL     1      31.801  28.437  27.472  0.00  0.00    +0.013 A 
ATOM      3  C   UNL     1      30.844  28.134  28.529  0.00  0.00    +0.019 A 
ATOM     38  C   UNL     1      30.649  29.121  29.580  0.00  0.00    +0.120 A 
ATOM     39  N   UNL     1      31.371  30.311  29.557  0.00  0.00    -0.263 NA
ATOM     40  C   UNL     1      32.296  30.612  28.547  0.00  0.00    +0.111 A 
ENDBRANCH   4   3
ENDBRANCH  10   9
BRANCH  12  13
ATOM     13  N   UNL     1      27.257  20.533  25.039  0.00  0.00    -0.281 N 
ATOM     14  C   UNL     1      27.078  19.954  23.794  0.00  0.00    +0.248 C 
ATOM     30  O   UNL     1      26.235  20.306  22.982  0.00  0.00    -0.270 OA
ATOM     31  H   UNL     1      27.857  20.024  25.689  0.00  0.00    +0.155 HD
BRANCH  14  15
ATOM     15  C   UNL     1      27.953  18.808  23.398  0.00  0.00    +0.037 A 
ATOM     16  C   UNL     1      27.459  17.743  22.520  0.00  0.00    +0.013 A 
ATOM     17  C   UNL     1      28.318  16.641  22.168  0.00  0.00    +0.005 A 
ATOM     18  C   UNL     1      29.681  16.598  22.693  0.00  0.00    -0.033 A 
ATOM     28  C   UNL     1      30.146  17.670  23.557  0.00  0.00    +0.005 A 
ATOM     29  C   UNL     1      29.307  18.752  23.906  0.00  0.00    +0.013 A 
BRANCH  18  19
ATOM     19  C   UNL     1      30.660  15.449  22.386  0.00  0.00    +0.119 C 
BRANCH  19  20
ATOM     20  N   UNL     1      32.035  15.823  21.939  0.00  0.00    -0.302 NA
ATOM     21  C   UNL     1      32.495  14.990  20.739  0.00  0.00    +0.066 C 
ATOM     22  C   UNL     1      33.926  15.410  20.270  0.00  0.00    -0.064 C 
ATOM     23  N   UNL     1      34.905  15.265  21.437  0.00  0.00    +0.379 N 
ATOM     24  C   UNL     1      36.262  15.604  20.984  0.00  0.00    -0.096 C 
ATOM     25  H   UNL     1      34.908  14.194  21.745  0.00  0.00    -0.082 HD
ATOM     26  C   UNL     1      34.453  16.088  22.635  0.00  0.00    -0.064 C 
ATOM     27  C   UNL     1      33.018  15.684  23.075  0.00  0.00    +0.066 C 
ENDBRANCH  19  20
ENDBRANCH  18  19
ENDBRANCH  14  15
ENDBRANCH  12  13
TORSDOF 6
ENDMDL
MODEL 3
REMARK VINA RESULT:      -7.0     16.129     20.737
REMARK  Name = C:\Users\Docking\Desktop\test protocol\1iep_ligandH.pdb
REMARK  8 active torsions:
REMARK  status: ('A' for Active; 'I' for Inactive)
REMARK    1  A    between atoms: _5  and  _11
REMARK    2  A    between atoms: _19  and  _21
REMARK    3  A    between atoms: _22  and  _66
REMARK    4  A    between atoms: _27  and  _30
REMARK    5  A    between atoms: _32  and  _33
REMARK    6  A    between atoms: _38  and  _43
REMARK    7  A    between atoms: _43  and  _46
REMARK    8  A    between atoms: _53  and  _55
REMARK                            x       y       z     vdW  Elec       q    Type
REMARK                         _______ _______ _______ _____ _____    ______ ____
ROOT
ATOM     10  C   UNL     1      37.527  15.902  24.067  0.00  0.00    +0.038 A 
ATOM     11  C   UNL     1      38.324  16.905  24.675  0.00  0.00    +0.047 A 
ATOM     12  C   UNL     1      39.653  16.604  25.186  0.00  0.00    +0.035 A 
ATOM     32  C   UNL     1      40.139  15.271  25.058  0.00  0.00    +0.024 A 
ATOM     33  C   UNL     1      39.342  14.238  24.444  0.00  0.00    +0.007 A 
ATOM     34  C   UNL     1      38.030  14.529  23.941  0.00  0.00    -0.029 A 
ATOM     35  C   UNL     1      37.217  13.381  23.298  0.00  0.00    +0.045 C 
ENDROOT
BRANCH  10   9
ATOM      4  C   UNL     1      32.931  17.096  24.763  0.00  0.00    +0.077 A 
ATOM      5  C   UNL     1      33.060  17.000  26.189  0.00  0.00    +0.048 A 
ATOM      6  C   UNL     1      34.324  16.633  26.702  0.00  0.00    +0.116 A 
ATOM      7  N   UNL     1      35.374  16.384  25.845  0.00  0.00    -0.223 NA
ATOM      8  C   UNL     1      35.215  16.485  24.475  0.00  0.00    +0.220 A 
ATOM      9  N   UNL     1      36.259  16.247  23.594  0.00  0.00    -0.283 N 
ATOM     36  H   UNL     1      36.099  16.324  22.590  0.00  0.00    +0.155 HD
ATOM     37  N   UNL     1      34.017  16.832  23.960  0.00  0.00    -0.214 NA
BRANCH   4   3
ATOM      1  C   UNL     1      29.679  18.996  23.705  0.00  0.00    +0.020 A 
ATOM      2  C   UNL     1      30.901  18.674  24.406  0.00  0.00    +0.013 A 
ATOM      3  C   UNL     1      31.660  17.476  24.069  0.00  0.00    +0.019 A 
ATOM     38  C   UNL     1      31.153  16.619  23.008  0.00  0.00    +0.120 A 
ATOM     39  N   UNL     1      29.973  16.954  22.351  0.00  0.00    -0.263 NA
ATOM     40  C   UNL     1      29.232  18.103  22.668  0.00  0.00    +0.111 A 
ENDBRANCH   4   3
ENDBRANCH  10   9
BRANCH  12  13
ATOM     13  N   UNL     1      40.505  17.580  25.820  0.00  0.00    -0.281 N 
ATOM     14  C   UNL     1      40.396  18.103  27.098  0.00  0.00    +0.248 C 
ATOM     30  O   UNL     1      39.419  17.968  27.819  0.00  0.00    -0.270 OA
ATOM     31  H   UNL     1      41.282  17.927  25.258  0.00  0.00    +0.155 HD
BRANCH  14  15
ATOM     15  C   UNL     1      41.532  18.903  27.650  0.00  0.00    +0.037 A 
ATOM     16  C   UNL     1      42.246  19.879  26.822  0.00  0.00    +0.013 A 
ATOM     17  C   UNL     1      43.348  20.625  27.374  0.00  0.00    +0.005 A 
ATOM     18  C   UNL     1      43.743  20.399  28.763  0.00  0.00    -0.033 A 
ATOM     28  C   UNL     1      43.014  19.429  29.562  0.00  0.00    +0.005 A 
ATOM     29  C   UNL     1      41.933  18.695  29.025  0.00  0.00    +0.013 A 
BRANCH  18  19
ATOM     19  C   UNL     1      44.921  21.136  29.428  0.00  0.00    +0.119 C 
BRANCH  19  20
ATOM     20  N   UNL     1      46.181  20.362  29.636  0.00  0.00    -0.302 NA
ATOM     21  C   UNL     1      47.090  21.015  30.682  0.00  0.00    +0.066 C 
ATOM     22  C   UNL     1      48.393  20.180  30.903  0.00  0.00    -0.064 C 
ATOM     23  N   UNL     1      49.127  20.022  29.571  0.00  0.00    +0.379 N 
ATOM     24  C   UNL     1      50.382  19.287  29.786  0.00  0.00    -0.096 C 
ATOM     25  H   UNL     1      49.390  21.042  29.207  0.00  0.00    -0.082 HD
ATOM     26  C   UNL     1      48.230  19.376  28.525  0.00  0.00    -0.064 C 
ATOM     27  C   UNL     1      46.924  20.198  28.333  0.00  0.00    +0.066 C 
ENDBRANCH  19  20
ENDBRANCH  18  19
ENDBRANCH  14  15
ENDBRANCH  12  13
TORSDOF 6
ENDMDL
MODEL 4
REMARK VINA RESULT:      -6.9     29.801     33.118
REMARK  Name = C:\Users\Docking\Desktop\test protocol\1iep_ligandH.pdb
REMARK  8 active torsions:
REMARK  status: ('A' for Active; 'I' for Inactive)
REMARK    1  A    between atoms: _5  and  _11
REMARK    2  A    between atoms: _19  and  _21
REMARK    3  A    between atoms: _22  and  _66
REMARK    4  A    between atoms: _27  and  _30
REMARK    5  A    between atoms: _32  and  _33
REMARK    6  A    between atoms: _38  and  _43
REMARK    7  A    between atoms: _43  and  _46
REMARK    8  A    between atoms: _53  and  _55
REMARK                            x       y       z     vdW  Elec       q    Type
REMARK                         _______ _______ _______ _____ _____    ______ ____
ROOT
ATOM     10  C   UNL     1      48.422  21.691   6.581  0.00  0.00    +0.038 A 
ATOM     11  C   UNL     1      48.234  22.090   5.233  0.00  0.00    +0.047 A 
ATOM     12  C   UNL     1      46.999  21.793   4.526  0.00  0.00    +0.035 A 
ATOM     32  C   UNL     1      45.973  21.090   5.223  0.00  0.00    +0.024 A 
ATOM     33  C   UNL     1      46.148  20.676   6.593  0.00  0.00    +0.007 A 
ATOM     34  C   UNL     1      47.366  20.964   7.295  0.00  0.00    -0.029 A 
ATOM     35  C   UNL     1      47.500  20.491   8.761  0.00  0.00    +0.045 C 
ENDROOT
BRANCH  10   9
ATOM      4  C   UNL     1      51.342  24.744   8.860  0.00  0.00    +0.077 A 
ATOM      5  C   UNL     1      50.394  25.817   8.762  0.00  0.00    +0.048 A 
ATOM      6  C   UNL     1      49.169  25.543   8.111  0.00  0.00    +0.116 A 
ATOM      7  N   UNL     1      48.923  24.287   7.601  0.00  0.00    -0.223 NA
ATOM      8  C   UNL     1      49.859  23.276   7.711  0.00  0.00    +0.220 A 
ATOM      9  N   UNL     1      49.629  22.003   7.212  0.00  0.00    -0.283 N 
ATOM     36  H   UNL     1      50.348  21.287   7.306  0.00  0.00    +0.155 HD
ATOM     37  N   UNL     1      51.036  23.512   8.326  0.00  0.00    -0.214 NA
BRANCH   4   3
ATOM      1  C   UNL     1      54.148  25.242  11.539  0.00  0.00    +0.020 A 
ATOM      2  C   UNL     1      52.834  25.123  10.950  0.00  0.00    +0.013 A 
ATOM      3  C   UNL     1      52.678  24.876   9.522  0.00  0.00    +0.019 A 
ATOM     38  C   UNL     1      53.881  24.754   8.712  0.00  0.00    +0.120 A 
ATOM     39  N   UNL     1      55.133  24.874   9.307  0.00  0.00    -0.263 NA
ATOM     40  C   UNL     1      55.295  25.113  10.680  0.00  0.00    +0.111 A 
ENDBRANCH   4   3
ENDBRANCH  10   9
BRANCH  12  13
ATOM     13  N   UNL     1      46.754  22.165   3.154  0.00  0.00    -0.281 N 
ATOM     14  C   UNL     1      46.559  21.330   2.067  0.00  0.00    +0.248 C 
ATOM     30  O   UNL     1      46.779  20.128   2.070  0.00  0.00    -0.270 OA
ATOM     31  H   UNL     1      46.721  23.167   2.962  0.00  0.00    +0.155 HD
BRANCH  14  15
ATOM     15  C   UNL     1      46.062  21.917   0.785  0.00  0.00    +0.037 A 
ATOM     16  C   UNL     1      44.656  21.797   0.389  0.00  0.00    +0.013 A 
ATOM     17  C   UNL     1      44.207  22.357  -0.861  0.00  0.00    +0.005 A 
ATOM     18  C   UNL     1      45.164  23.046  -1.723  0.00  0.00    -0.033 A 
ATOM     28  C   UNL     1      46.552  23.155  -1.303  0.00  0.00    +0.005 A 
ATOM     29  C   UNL     1      46.996  22.606  -0.079  0.00  0.00    +0.013 A 
BRANCH  18  19
ATOM     19  C   UNL     1      44.777  23.656  -3.083  0.00  0.00    +0.119 C 
BRANCH  19  20
ATOM     20  N   UNL     1      43.380  23.431  -3.561  0.00  0.00    -0.302 NA
ATOM     21  C   UNL     1      43.331  22.488  -4.766  0.00  0.00    +0.066 C 
ATOM     22  C   UNL     1      41.860  22.245  -5.239  0.00  0.00    -0.064 C 
ATOM     23  N   UNL     1      41.207  23.588  -5.574  0.00  0.00    +0.379 N 
ATOM     24  C   UNL     1      39.844  23.359  -6.073  0.00  0.00    -0.096 C 
ATOM     25  H   UNL     1      41.796  24.054  -6.397  0.00  0.00    -0.082 HD
ATOM     26  C   UNL     1      41.255  24.532  -4.381  0.00  0.00    -0.064 C 
ATOM     27  C   UNL     1      42.718  24.743  -3.901  0.00  0.00    +0.066 C 
ENDBRANCH  19  20
ENDBRANCH  18  19
ENDBRANCH  14  15
ENDBRANCH  12  13
TORSDOF 6
ENDMDL
MODEL 5
REMARK VINA RESULT:      -6.9     27.362     28.850
REMARK  Name = C:\Users\Docking\Desktop\test protocol\1iep_ligandH.pdb
REMARK  8 active torsions:
REMARK  status: ('A' for Active; 'I' for Inactive)
REMARK    1  A    between atoms: _5  and  _11
REMARK    2  A    between atoms: _19  and  _21
REMARK    3  A    between atoms: _22  and  _66
REMARK    4  A    between atoms: _27  and  _30
REMARK    5  A    between atoms: _32  and  _33
REMARK    6  A    between atoms: _38  and  _43
REMARK    7  A    between atoms: _43  and  _46
REMARK    8  A    between atoms: _53  and  _55
REMARK                            x       y       z     vdW  Elec       q    Type
REMARK                         _______ _______ _______ _____ _____    ______ ____
ROOT
ATOM     10  C   UNL     1      41.036  45.155   7.781  0.00  0.00    +0.038 A 
ATOM     11  C   UNL     1      41.034  44.356   6.609  0.00  0.00    +0.047 A 
ATOM     12  C   UNL     1      39.841  44.228   5.787  0.00  0.00    +0.035 A 
ATOM     32  C   UNL     1      38.667  44.932   6.186  0.00  0.00    +0.024 A 
ATOM     33  C   UNL     1      38.651  45.747   7.375  0.00  0.00    +0.007 A 
ATOM     34  C   UNL     1      39.824  45.875   8.191  0.00  0.00    -0.029 A 
ATOM     35  C   UNL     1      39.747  46.758   9.459  0.00  0.00    +0.045 C 
ENDROOT
BRANCH  10   9
ATOM      4  C   UNL     1      44.034  43.514  11.151  0.00  0.00    +0.077 A 
ATOM      5  C   UNL     1      43.177  42.405  11.457  0.00  0.00    +0.048 A 
ATOM      6  C   UNL     1      41.970  42.297  10.730  0.00  0.00    +0.116 A 
ATOM      7  N   UNL     1      41.655  43.234   9.770  0.00  0.00    -0.223 NA
ATOM      8  C   UNL     1      42.503  44.292   9.500  0.00  0.00    +0.220 A 
ATOM      9  N   UNL     1      42.209  45.241   8.534  0.00  0.00    -0.283 N 
ATOM     36  H   UNL     1      42.857  46.011   8.370  0.00  0.00    +0.155 HD
ATOM     37  N   UNL     1      43.660  44.418  10.182  0.00  0.00    -0.214 NA
BRANCH   4   3
ATOM      1  C   UNL     1      46.817  43.866  13.877  0.00  0.00    +0.020 A 
ATOM      2  C   UNL     1      45.531  43.614  13.269  0.00  0.00    +0.013 A 
ATOM      3  C   UNL     1      45.344  43.762  11.832  0.00  0.00    +0.019 A 
ATOM     38  C   UNL     1      46.488  44.169  11.030  0.00  0.00    +0.120 A 
ATOM     39  N   UNL     1      47.715  44.406  11.643  0.00  0.00    -0.263 NA
ATOM     40  C   UNL     1      47.906  44.269  13.026  0.00  0.00    +0.111 A 
ENDBRANCH   4   3
ENDBRANCH  10   9
BRANCH  12  13
ATOM     13  N   UNL     1      39.778  43.425   4.591  0.00  0.00    -0.281 N 
ATOM     14  C   UNL     1      38.997  42.304   4.359  0.00  0.00    +0.248 C 
ATOM     30  O   UNL     1      38.390  41.693   5.225  0.00  0.00    -0.270 OA
ATOM     31  H   UNL     1      40.381  43.719   3.823  0.00  0.00    +0.155 HD
BRANCH  14  15
ATOM     15  C   UNL     1      38.888  41.778   2.964  0.00  0.00    +0.037 A 
ATOM     16  C   UNL     1      40.073  41.341   2.221  0.00  0.00    +0.013 A 
ATOM     17  C   UNL     1      39.941  40.853   0.871  0.00  0.00    +0.005 A 
ATOM     18  C   UNL     1      38.618  40.797   0.256  0.00  0.00    -0.033 A 
ATOM     28  C   UNL     1      37.458  41.232   1.018  0.00  0.00    +0.005 A 
ATOM     29  C   UNL     1      37.584  41.712   2.340  0.00  0.00    +0.013 A 
BRANCH  18  19
ATOM     19  C   UNL     1      38.386  40.311  -1.187  0.00  0.00    +0.119 C 
BRANCH  19  20
ATOM     20  N   UNL     1      39.471  39.501  -1.818  0.00  0.00    -0.302 NA
ATOM     21  C   UNL     1      39.566  39.744  -3.326  0.00  0.00    +0.066 C 
ATOM     22  C   UNL     1      40.720  38.906  -3.966  0.00  0.00    -0.064 C 
ATOM     23  N   UNL     1      40.494  37.422  -3.670  0.00  0.00    +0.379 N 
ATOM     24  C   UNL     1      41.546  36.627  -4.320  0.00  0.00    -0.096 C 
ATOM     25  H   UNL     1      39.519  37.132  -4.127  0.00  0.00    -0.082 HD
ATOM     26  C   UNL     1      40.395  37.172  -2.172  0.00  0.00    -0.064 C 
ATOM     27  C   UNL     1      39.265  38.032  -1.541  0.00  0.00    +0.066 C 
ENDBRANCH  19  20
ENDBRANCH  18  19
ENDBRANCH  14  15
ENDBRANCH  12  13
TORSDOF 6
ENDMDL
