MODEL 1
REMARK VINA RESULT:     -11.3      0.000      0.000
REMARK  Name = C:\Users\Docking\Desktop\test protocol\1iep_ligandH.pdb
REMARK  8 active torsions:
REMARK  status: ('A' for Active; 'I' for Inactive)
REMARK    1  A    between atoms: _5  and  _11
REMARK    2  A    between atoms: _19  and  _21
REMARK    3  A    between atoms: _22  and  _66
REMARK    4  A    between atoms: _27  and  _30
REMARK    5  A    between atoms: _32  and  _33
REMARK    6  A    between atoms: _38  and  _43
REMARK    7  A    between atoms: _43  and  _46
REMARK    8  A    between atoms: _53  and  _55
REMARK                            x       y       z     vdW  Elec       q    Type
REMARK                         _______ _______ _______ _____ _____    ______ ____
ROOT
ATOM     10  C   UNL     1      -3.226  22.904   8.959  0.00  0.00    +0.038 A 
ATOM     11  C   UNL     1      -2.632  24.081   9.480  0.00  0.00    +0.047 A 
ATOM     12  C   UNL     1      -2.813  24.463  10.872  0.00  0.00    +0.035 A 
ATOM     32  C   UNL     1      -3.605  23.621  11.706  0.00  0.00    +0.024 A 
ATOM     33  C   UNL     1      -4.218  22.421  11.192  0.00  0.00    +0.007 A 
ATOM     34  C   UNL     1      -4.044  22.041   9.819  0.00  0.00    -0.029 A 
ATOM     35  C   UNL     1      -4.730  20.747   9.321  0.00  0.00    +0.045 C 
ENDROOT
BRANCH  10   9
ATOM      4  C   UNL     1      -0.744  20.767   5.450  0.00  0.00    +0.077 A 
ATOM      5  C   UNL     1       0.236  20.265   6.369  0.00  0.00    +0.048 A 
ATOM      6  C   UNL     1       0.070  20.586   7.735  0.00  0.00    +0.116 A 
ATOM      7  N   UNL     1      -1.002  21.351   8.140  0.00  0.00    -0.223 NA
ATOM      8  C   UNL     1      -1.929  21.821   7.228  0.00  0.00    +0.220 A 
ATOM      9  N   UNL     1      -3.019  22.586   7.615  0.00  0.00    -0.283 N 
ATOM     36  H   UNL     1      -3.676  22.919   6.910  0.00  0.00    +0.155 HD
ATOM     37  N   UNL     1      -1.791  21.530   5.918  0.00  0.00    -0.214 NA
BRANCH   4   3
ATOM      1  C   UNL     1       0.253  19.406   1.921  0.00  0.00    +0.020 A 
ATOM      2  C   UNL     1       0.261  19.619   3.350  0.00  0.00    +0.013 A 
ATOM      3  C   UNL     1      -0.708  20.511   3.975  0.00  0.00    +0.019 A 
ATOM     38  C   UNL     1      -1.678  21.177   3.120  0.00  0.00    +0.120 A 
ATOM     39  N   UNL     1      -1.661  20.953   1.746  0.00  0.00    -0.263 NA
ATOM     40  C   UNL     1      -0.732  20.099   1.133  0.00  0.00    +0.111 A 
ENDBRANCH   4   3
ENDBRANCH  10   9
BRANCH  12  13
ATOM     13  N   UNL     1      -2.241  25.651  11.456  0.00  0.00    -0.281 N 
ATOM     14  C   UNL     1      -1.355  26.544  10.874  0.00  0.00    +0.248 C 
ATOM     30  O   UNL     1      -0.752  26.339   9.831  0.00  0.00    -0.270 OA
ATOM     31  H   UNL     1      -2.522  25.859  12.414  0.00  0.00    +0.155 HD
BRANCH  14  15
ATOM     15  C   UNL     1      -1.091  27.847  11.557  0.00  0.00    +0.037 A 
ATOM     16  C   UNL     1      -2.041  28.406  12.521  0.00  0.00    +0.013 A 
ATOM     17  C   UNL     1      -1.770  29.673  13.153  0.00  0.00    +0.005 A 
ATOM     18  C   UNL     1      -0.540  30.389  12.823  0.00  0.00    -0.033 A 
ATOM     28  C   UNL     1       0.388  29.808  11.867  0.00  0.00    +0.005 A 
ATOM     29  C   UNL     1       0.125  28.567  11.245  0.00  0.00    +0.013 A 
BRANCH  18  19
ATOM     19  C   UNL     1      -0.178  31.756  13.433  0.00  0.00    +0.119 C 
BRANCH  19  20
ATOM     20  N   UNL     1      -0.380  32.962  12.575  0.00  0.00    -0.302 NA
ATOM     21  C   UNL     1      -1.380  32.702  11.445  0.00  0.00    +0.066 C 
ATOM     22  C   UNL     1      -1.595  33.981  10.571  0.00  0.00    -0.064 C 
ATOM     23  N   UNL     1      -0.250  34.443  10.008  0.00  0.00    +0.379 N 
ATOM     24  C   UNL     1      -0.457  35.611   9.139  0.00  0.00    -0.096 C 
ATOM     25  H   UNL     1       0.154  33.618   9.376  0.00  0.00    -0.082 HD
ATOM     26  C   UNL     1       0.751  34.701  11.126  0.00  0.00    -0.064 C 
ATOM     27  C   UNL     1       0.936  33.433  12.006  0.00  0.00    +0.066 C 
ENDBRANCH  19  20
ENDBRANCH  18  19
ENDBRANCH  14  15
ENDBRANCH  12  13
TORSDOF 6
ENDMDL
MODEL 2
REMARK VINA RESULT:     -11.3      1.635      2.182
REMARK  Name = C:\Users\Docking\Desktop\test protocol\1iep_ligandH.pdb
REMARK  8 active torsions:
REMARK  status: ('A' for Active; 'I' for Inactive)
REMARK    1  A    between atoms: _5  and  _11
REMARK    2  A    between atoms: _19  and  _21
REMARK    3  A    between atoms: _22  and  _66
REMARK    4  A    between atoms: _27  and  _30
REMARK    5  A    between atoms: _32  and  _33
REMARK    6  A    between atoms: _38  and  _43
REMARK    7  A    between atoms: _43  and  _46
REMARK    8  A    between atoms: _53  and  _55
REMARK                            x       y       z     vdW  Elec       q    Type
REMARK                         _______ _______ _______ _____ _____    ______ ____
ROOT
ATOM     10  C   UNL     1      -3.197  23.881   9.417  0.00  0.00    +0.038 A 
ATOM     11  C   UNL     1      -2.762  25.195   9.725  0.00  0.00    +0.047 A 
ATOM     12  C   UNL     1      -2.970  25.767  11.046  0.00  0.00    +0.035 A 
ATOM     32  C   UNL     1      -3.622  24.970  12.032  0.00  0.00    +0.024 A 
ATOM     33  C   UNL     1      -4.072  23.633  11.736  0.00  0.00    +0.007 A 
ATOM     34  C   UNL     1      -3.872  23.065  10.433  0.00  0.00    -0.029 A 
ATOM     35  C   UNL     1      -4.380  21.628  10.170  0.00  0.00    +0.045 C 
ENDROOT
BRANCH  10   9
ATOM      4  C   UNL     1      -0.821  21.093   6.316  0.00  0.00    +0.077 A 
ATOM      5  C   UNL     1       0.062  20.608   7.337  0.00  0.00    +0.048 A 
ATOM      6  C   UNL     1      -0.123  21.107   8.646  0.00  0.00    +0.116 A 
ATOM      7  N   UNL     1      -1.122  22.021   8.903  0.00  0.00    -0.223 NA
ATOM      8  C   UNL     1      -1.955  22.469   7.895  0.00  0.00    +0.220 A 
ATOM      9  N   UNL     1      -2.971  23.383   8.132  0.00  0.00    -0.283 N 
ATOM     36  H   UNL     1      -3.560  23.694   7.360  0.00  0.00    +0.155 HD
ATOM     37  N   UNL     1      -1.797  22.009   6.636  0.00  0.00    -0.214 NA
BRANCH   4   3
ATOM      1  C   UNL     1       0.169  19.223   3.025  0.00  0.00    +0.020 A 
ATOM      2  C   UNL     1       0.142  19.606   4.418  0.00  0.00    +0.013 A 
ATOM      3  C   UNL     1      -0.753  20.658   4.885  0.00  0.00    +0.019 A 
ATOM     38  C   UNL     1      -1.615  21.307   3.909  0.00  0.00    +0.120 A 
ATOM     39  N   UNL     1      -1.566  20.918   2.574  0.00  0.00    -0.263 NA
ATOM     40  C   UNL     1      -0.708  19.909   2.113  0.00  0.00    +0.111 A 
ENDBRANCH   4   3
ENDBRANCH  10   9
BRANCH  12  13
ATOM     13  N   UNL     1      -2.557  27.098  11.415  0.00  0.00    -0.281 N 
ATOM     14  C   UNL     1      -1.286  27.645  11.347  0.00  0.00    +0.248 C 
ATOM     30  O   UNL     1      -0.265  27.000  11.158  0.00  0.00    -0.270 OA
ATOM     31  H   UNL     1      -3.291  27.712  11.768  0.00  0.00    +0.155 HD
BRANCH  14  15
ATOM     15  C   UNL     1      -1.124  29.120  11.529  0.00  0.00    +0.037 A 
ATOM     16  C   UNL     1      -1.057  29.718  12.865  0.00  0.00    +0.013 A 
ATOM     17  C   UNL     1      -0.917  31.145  13.013  0.00  0.00    +0.005 A 
ATOM     18  C   UNL     1      -0.842  31.984  11.819  0.00  0.00    -0.033 A 
ATOM     28  C   UNL     1      -0.906  31.364  10.506  0.00  0.00    +0.005 A 
ATOM     29  C   UNL     1      -1.044  29.966  10.358  0.00  0.00    +0.013 A 
BRANCH  18  19
ATOM     19  C   UNL     1      -0.715  33.518  11.882  0.00  0.00    +0.119 C 
BRANCH  19  20
ATOM     20  N   UNL     1       0.226  34.085  12.894  0.00  0.00    -0.302 NA
ATOM     21  C   UNL     1       0.065  35.600  13.043  0.00  0.00    +0.066 C 
ATOM     22  C   UNL     1       1.041  36.173  14.121  0.00  0.00    -0.064 C 
ATOM     23  N   UNL     1       2.480  35.816  13.745  0.00  0.00    +0.379 N 
ATOM     24  C   UNL     1       3.404  36.402  14.726  0.00  0.00    -0.096 C 
ATOM     25  H   UNL     1       2.696  36.282  12.755  0.00  0.00    -0.082 HD
ATOM     26  C   UNL     1       2.648  34.311  13.592  0.00  0.00    -0.064 C 
ATOM     27  C   UNL     1       1.653  33.747  12.539  0.00  0.00    +0.066 C 
ENDBRANCH  19  20
ENDBRANCH  18  19
ENDBRANCH  14  15
ENDBRANCH  12  13
TORSDOF 6
ENDMDL
MODEL 3
REMARK VINA RESULT:     -11.2      2.050     11.822
REMARK  Name = C:\Users\Docking\Desktop\test protocol\1iep_ligandH.pdb
REMARK  8 active torsions:
REMARK  status: ('A' for Active; 'I' for Inactive)
REMARK    1  A    between atoms: _5  and  _11
REMARK    2  A    between atoms: _19  and  _21
REMARK    3  A    between atoms: _22  and  _66
REMARK    4  A    between atoms: _27  and  _30
REMARK    5  A    between atoms: _32  and  _33
REMARK    6  A    between atoms: _38  and  _43
REMARK    7  A    between atoms: _43  and  _46
REMARK    8  A    between atoms: _53  and  _55
REMARK                            x       y       z     vdW  Elec       q    Type
REMARK                         _______ _______ _______ _____ _____    ______ ____
ROOT
ATOM     10  C   UNL     1      -2.934  27.338  11.084  0.00  0.00    +0.038 A 
ATOM     11  C   UNL     1      -2.410  26.392  10.166  0.00  0.00    +0.047 A 
ATOM     12  C   UNL     1      -2.377  24.973  10.484  0.00  0.00    +0.035 A 
ATOM     32  C   UNL     1      -2.889  24.551  11.746  0.00  0.00    +0.024 A 
ATOM     33  C   UNL     1      -3.425  25.499  12.691  0.00  0.00    +0.007 A 
ATOM     34  C   UNL     1      -3.457  26.901  12.384  0.00  0.00    -0.029 A 
ATOM     35  C   UNL     1      -4.037  27.872  13.438  0.00  0.00    +0.045 C 
ENDROOT
BRANCH  10   9
ATOM      4  C   UNL     1      -0.735  31.553  10.426  0.00  0.00    +0.077 A 
ATOM      5  C   UNL     1       0.529  31.028  10.855  0.00  0.00    +0.048 A 
ATOM      6  C   UNL     1       0.569  29.670  11.244  0.00  0.00    +0.116 A 
ATOM      7  N   UNL     1      -0.576  28.904  11.202  0.00  0.00    -0.223 NA
ATOM      8  C   UNL     1      -1.779  29.442  10.784  0.00  0.00    +0.220 A 
ATOM      9  N   UNL     1      -2.941  28.688  10.727  0.00  0.00    -0.283 N 
ATOM     36  H   UNL     1      -3.810  29.124  10.420  0.00  0.00    +0.155 HD
ATOM     37  N   UNL     1      -1.844  30.737  10.409  0.00  0.00    -0.214 NA
BRANCH   4   3
ATOM      1  C   UNL     1      -0.305  34.997   8.622  0.00  0.00    +0.020 A 
ATOM      2  C   UNL     1      -0.066  33.629   9.018  0.00  0.00    +0.013 A 
ATOM      3  C   UNL     1      -0.938  32.968   9.981  0.00  0.00    +0.019 A 
ATOM     38  C   UNL     1      -2.054  33.726  10.527  0.00  0.00    +0.120 A 
ATOM     39  N   UNL     1      -2.259  35.043  10.128  0.00  0.00    -0.263 NA
ATOM     40  C   UNL     1      -1.425  35.690   9.204  0.00  0.00    +0.111 A 
ENDBRANCH   4   3
ENDBRANCH  10   9
BRANCH  12  13
ATOM     13  N   UNL     1      -1.849  23.968   9.595  0.00  0.00    -0.281 N 
ATOM     14  C   UNL     1      -2.521  22.901   9.021  0.00  0.00    +0.248 C 
ATOM     30  O   UNL     1      -3.635  22.525   9.356  0.00  0.00    -0.270 OA
ATOM     31  H   UNL     1      -0.860  24.052   9.361  0.00  0.00    +0.155 HD
BRANCH  14  15
ATOM     15  C   UNL     1      -1.855  22.132   7.926  0.00  0.00    +0.037 A 
ATOM     16  C   UNL     1      -2.134  22.420   6.517  0.00  0.00    +0.013 A 
ATOM     17  C   UNL     1      -1.490  21.652   5.481  0.00  0.00    +0.005 A 
ATOM     18  C   UNL     1      -0.559  20.589   5.851  0.00  0.00    -0.033 A 
ATOM     28  C   UNL     1      -0.296  20.328   7.257  0.00  0.00    +0.005 A 
ATOM     29  C   UNL     1      -0.926  21.078   8.275  0.00  0.00    +0.013 A 
BRANCH  18  19
ATOM     19  C   UNL     1       0.157  19.705   4.813  0.00  0.00    +0.119 C 
BRANCH  19  20
ATOM     20  N   UNL     1      -0.042  20.045   3.372  0.00  0.00    -0.302 NA
ATOM     21  C   UNL     1      -1.523  20.220   3.023  0.00  0.00    +0.066 C 
ATOM     22  C   UNL     1      -1.712  20.597   1.518  0.00  0.00    -0.064 C 
ATOM     23  N   UNL     1      -1.073  19.519   0.641  0.00  0.00    +0.379 N 
ATOM     24  C   UNL     1      -1.300  19.841  -0.776  0.00  0.00    -0.096 C 
ATOM     25  H   UNL     1      -1.592  18.556   0.856  0.00  0.00    -0.082 HD
ATOM     26  C   UNL     1       0.399  19.336   0.983  0.00  0.00    -0.064 C 
ATOM     27  C   UNL     1       0.578  18.991   2.488  0.00  0.00    +0.066 C 
ENDBRANCH  19  20
ENDBRANCH  18  19
ENDBRANCH  14  15
ENDBRANCH  12  13
TORSDOF 6
ENDMDL
MODEL 4
REMARK VINA RESULT:     -11.1      1.907      2.960
REMARK  Name = C:\Users\Docking\Desktop\test protocol\1iep_ligandH.pdb
REMARK  8 active torsions:
REMARK  status: ('A' for Active; 'I' for Inactive)
REMARK    1  A    between atoms: _5  and  _11
REMARK    2  A    between atoms: _19  and  _21
REMARK    3  A    between atoms: _22  and  _66
REMARK    4  A    between atoms: _27  and  _30
REMARK    5  A    between atoms: _32  and  _33
REMARK    6  A    between atoms: _38  and  _43
REMARK    7  A    between atoms: _43  and  _46
REMARK    8  A    between atoms: _53  and  _55
REMARK                            x       y       z     vdW  Elec       q    Type
REMARK                         _______ _______ _______ _____ _____    ______ ____
ROOT
ATOM     10  C   UNL     1      -3.249  23.205   9.193  0.00  0.00    +0.038 A 
ATOM     11  C   UNL     1      -2.692  24.411   9.690  0.00  0.00    +0.047 A 
ATOM     12  C   UNL     1      -2.880  24.812  11.076  0.00  0.00    +0.035 A 
ATOM     32  C   UNL     1      -3.639  23.958  11.929  0.00  0.00    +0.024 A 
ATOM     33  C   UNL     1      -4.213  22.729  11.440  0.00  0.00    +0.007 A 
ATOM     34  C   UNL     1      -4.033  22.330  10.073  0.00  0.00    -0.029 A 
ATOM     35  C   UNL     1      -4.677  21.005   9.602  0.00  0.00    +0.045 C 
ENDROOT
BRANCH  10   9
ATOM      4  C   UNL     1      -0.834  20.912   5.736  0.00  0.00    +0.077 A 
ATOM      5  C   UNL     1       0.100  20.359   6.673  0.00  0.00    +0.048 A 
ATOM      6  C   UNL     1      -0.072  20.695   8.035  0.00  0.00    +0.116 A 
ATOM      7  N   UNL     1      -1.104  21.522   8.419  0.00  0.00    -0.223 NA
ATOM      8  C   UNL     1      -1.987  22.040   7.489  0.00  0.00    +0.220 A 
ATOM      9  N   UNL     1      -3.037  22.868   7.854  0.00  0.00    -0.283 N 
ATOM     36  H   UNL     1      -3.662  23.236   7.137  0.00  0.00    +0.155 HD
ATOM     37  N   UNL     1      -1.843  21.736   6.183  0.00  0.00    -0.214 NA
BRANCH   4   3
ATOM      1  C   UNL     1       0.184  19.526   2.223  0.00  0.00    +0.020 A 
ATOM      2  C   UNL     1       0.181  19.746   3.651  0.00  0.00    +0.013 A 
ATOM      3  C   UNL     1      -0.787  20.648   4.263  0.00  0.00    +0.019 A 
ATOM     38  C   UNL     1      -1.746  21.315   3.396  0.00  0.00    +0.120 A 
ATOM     39  N   UNL     1      -1.719  21.084   2.024  0.00  0.00    -0.263 NA
ATOM     40  C   UNL     1      -0.791  20.220   1.423  0.00  0.00    +0.111 A 
ENDBRANCH   4   3
ENDBRANCH  10   9
BRANCH  12  13
ATOM     13  N   UNL     1      -2.346  26.029  11.634  0.00  0.00    -0.281 N 
ATOM     14  C   UNL     1      -1.388  26.868  11.088  0.00  0.00    +0.248 C 
ATOM     30  O   UNL     1      -0.687  26.584  10.129  0.00  0.00    -0.270 OA
ATOM     31  H   UNL     1      -2.719  26.305  12.543  0.00  0.00    +0.155 HD
BRANCH  14  15
ATOM     15  C   UNL     1      -1.168  28.211  11.707  0.00  0.00    +0.037 A 
ATOM     16  C   UNL     1      -0.222  29.168  11.128  0.00  0.00    +0.013 A 
ATOM     17  C   UNL     1      -0.016  30.450  11.754  0.00  0.00    +0.005 A 
ATOM     18  C   UNL     1      -0.759  30.782  12.966  0.00  0.00    -0.033 A 
ATOM     28  C   UNL     1      -1.695  29.816  13.517  0.00  0.00    +0.005 A 
ATOM     29  C   UNL     1      -1.899  28.558  12.906  0.00  0.00    +0.013 A 
BRANCH  18  19
ATOM     19  C   UNL     1      -0.587  32.118  13.713  0.00  0.00    +0.119 C 
BRANCH  19  20
ATOM     20  N   UNL     1      -1.041  32.171  15.135  0.00  0.00    -0.302 NA
ATOM     21  C   UNL     1      -2.285  33.048  15.308  0.00  0.00    +0.066 C 
ATOM     22  C   UNL     1      -2.760  33.073  16.797  0.00  0.00    -0.064 C 
ATOM     23  N   UNL     1      -1.618  33.570  17.686  0.00  0.00    +0.379 N 
ATOM     24  C   UNL     1      -2.080  33.650  19.079  0.00  0.00    -0.096 C 
ATOM     25  H   UNL     1      -1.358  34.603  17.356  0.00  0.00    -0.082 HD
ATOM     26  C   UNL     1      -0.377  32.705  17.517  0.00  0.00    -0.064 C 
ATOM     27  C   UNL     1       0.070  32.663  16.029  0.00  0.00    +0.066 C 
ENDBRANCH  19  20
ENDBRANCH  18  19
ENDBRANCH  14  15
ENDBRANCH  12  13
TORSDOF 6
ENDMDL
MODEL 5
REMARK VINA RESULT:     -11.1      1.776      2.197
REMARK  Name = C:\Users\Docking\Desktop\test protocol\1iep_ligandH.pdb
REMARK  8 active torsions:
REMARK  status: ('A' for Active; 'I' for Inactive)
REMARK    1  A    between atoms: _5  and  _11
REMARK    2  A    between atoms: _19  and  _21
REMARK    3  A    between atoms: _22  and  _66
REMARK    4  A    between atoms: _27  and  _30
REMARK    5  A    between atoms: _32  and  _33
REMARK    6  A    between atoms: _38  and  _43
REMARK    7  A    between atoms: _43  and  _46
REMARK    8  A    between atoms: _53  and  _55
REMARK                            x       y       z     vdW  Elec       q    Type
REMARK                         _______ _______ _______ _____ _____    ______ ____
ROOT
ATOM     10  C   UNL     1      -2.989  23.324   8.942  0.00  0.00    +0.038 A 
ATOM     11  C   UNL     1      -2.366  24.503   9.425  0.00  0.00    +0.047 A 
ATOM     12  C   UNL     1      -2.518  24.922  10.810  0.00  0.00    +0.035 A 
ATOM     32  C   UNL     1      -3.310  24.114  11.677  0.00  0.00    +0.024 A 
ATOM     33  C   UNL     1      -3.952  22.913  11.203  0.00  0.00    +0.007 A 
ATOM     34  C   UNL     1      -3.807  22.497   9.837  0.00  0.00    -0.029 A 
ATOM     35  C   UNL     1      -4.523  21.204   9.382  0.00  0.00    +0.045 C 
ENDROOT
BRANCH  10   9
ATOM      4  C   UNL     1      -0.786  20.829   5.484  0.00  0.00    +0.077 A 
ATOM      5  C   UNL     1       0.099  20.200   6.421  0.00  0.00    +0.048 A 
ATOM      6  C   UNL     1      -0.040  20.551   7.782  0.00  0.00    +0.116 A 
ATOM      7  N   UNL     1      -0.997  21.464   8.167  0.00  0.00    -0.223 NA
ATOM      8  C   UNL     1      -1.834  22.054   7.238  0.00  0.00    +0.220 A 
ATOM      9  N   UNL     1      -2.809  22.969   7.604  0.00  0.00    -0.283 N 
ATOM     36  H   UNL     1      -3.402  23.388   6.887  0.00  0.00    +0.155 HD
ATOM     37  N   UNL     1      -1.720  21.737   5.931  0.00  0.00    -0.214 NA
BRANCH   4   3
ATOM      1  C   UNL     1       0.181  19.444   1.956  0.00  0.00    +0.020 A 
ATOM      2  C   UNL     1       0.204  19.670   3.383  0.00  0.00    +0.013 A 
ATOM      3  C   UNL     1      -0.765  20.560   4.011  0.00  0.00    +0.019 A 
ATOM     38  C   UNL     1      -1.751  21.210   3.161  0.00  0.00    +0.120 A 
ATOM     39  N   UNL     1      -1.747  20.974   1.790  0.00  0.00    -0.263 NA
ATOM     40  C   UNL     1      -0.820  20.121   1.174  0.00  0.00    +0.111 A 
ENDBRANCH   4   3
ENDBRANCH  10   9
BRANCH  12  13
ATOM     13  N   UNL     1      -1.915  26.113  11.355  0.00  0.00    -0.281 N 
ATOM     14  C   UNL     1      -2.487  27.366  11.501  0.00  0.00    +0.248 C 
ATOM     30  O   UNL     1      -3.541  27.709  10.985  0.00  0.00    -0.270 OA
ATOM     31  H   UNL     1      -0.950  26.022  11.671  0.00  0.00    +0.155 HD
BRANCH  14  15
ATOM     15  C   UNL     1      -1.780  28.391  12.327  0.00  0.00    +0.037 A 
ATOM     16  C   UNL     1      -0.529  29.003  11.871  0.00  0.00    +0.013 A 
ATOM     17  C   UNL     1       0.142  29.977  12.695  0.00  0.00    +0.005 A 
ATOM     18  C   UNL     1      -0.438  30.346  13.984  0.00  0.00    -0.033 A 
ATOM     28  C   UNL     1      -1.683  29.728  14.409  0.00  0.00    +0.005 A 
ATOM     29  C   UNL     1      -2.343  28.772  13.605  0.00  0.00    +0.013 A 
BRANCH  18  19
ATOM     19  C   UNL     1       0.220  31.360  14.938  0.00  0.00    +0.119 C 
BRANCH  19  20
ATOM     20  N   UNL     1       0.236  32.791  14.510  0.00  0.00    -0.302 NA
ATOM     21  C   UNL     1       1.608  33.217  13.979  0.00  0.00    +0.066 C 
ATOM     22  C   UNL     1       1.601  34.709  13.515  0.00  0.00    -0.064 C 
ATOM     23  N   UNL     1       1.171  35.601  14.681  0.00  0.00    +0.379 N 
ATOM     24  C   UNL     1       1.219  37.010  14.264  0.00  0.00    -0.096 C 
ATOM     25  H   UNL     1       1.913  35.465  15.501  0.00  0.00    -0.082 HD
ATOM     26  C   UNL     1      -0.191  35.183  15.217  0.00  0.00    -0.064 C 
ATOM     27  C   UNL     1      -0.181  33.690  15.648  0.00  0.00    +0.066 C 
ENDBRANCH  19  20
ENDBRANCH  18  19
ENDBRANCH  14  15
ENDBRANCH  12  13
TORSDOF 6
ENDMDL
