MODEL 1
REMARK VINA RESULT:      -8.1      0.000      0.000
REMARK  Name = C:\Users\Docking\Desktop\test protocol\1iep_ligandH.pdb
REMARK  8 active torsions:
REMARK  status: ('A' for Active; 'I' for Inactive)
REMARK    1  A    between atoms: _5  and  _11
REMARK    2  A    between atoms: _19  and  _21
REMARK    3  A    between atoms: _22  and  _66
REMARK    4  A    between atoms: _27  and  _30
REMARK    5  A    between atoms: _32  and  _33
REMARK    6  A    between atoms: _38  and  _43
REMARK    7  A    between atoms: _43  and  _46
REMARK    8  A    between atoms: _53  and  _55
REMARK                            x       y       z     vdW  Elec       q    Type
REMARK                         _______ _______ _______ _____ _____    ______ ____
ROOT
ATOM     10  C   UNL     1     -10.070  23.540  24.575  0.00  0.00    +0.038 A 
ATOM     11  C   UNL     1      -9.812  22.390  25.364  0.00  0.00    +0.047 A 
ATOM     12  C   UNL     1      -9.331  21.156  24.761  0.00  0.00    +0.035 A 
ATOM     32  C   UNL     1      -9.122  21.130  23.351  0.00  0.00    +0.024 A 
ATOM     33  C   UNL     1      -9.380  22.290  22.534  0.00  0.00    +0.007 A 
ATOM     34  C   UNL     1      -9.857  23.509  23.123  0.00  0.00    -0.029 A 
ATOM     35  C   UNL     1     -10.123  24.719  22.198  0.00  0.00    +0.045 C 
ENDROOT
BRANCH  10   9
ATOM      4  C   UNL     1     -13.567  26.598  25.781  0.00  0.00    +0.077 A 
ATOM      5  C   UNL     1     -14.557  25.839  25.071  0.00  0.00    +0.048 A 
ATOM      6  C   UNL     1     -14.123  24.672  24.403  0.00  0.00    +0.116 A 
ATOM      7  N   UNL     1     -12.796  24.301  24.448  0.00  0.00    -0.223 NA
ATOM      8  C   UNL     1     -11.868  25.056  25.141  0.00  0.00    +0.220 A 
ATOM      9  N   UNL     1     -10.530  24.698  25.206  0.00  0.00    -0.283 N 
ATOM     36  H   UNL     1      -9.875  25.285  25.721  0.00  0.00    +0.155 HD
ATOM     37  N   UNL     1     -12.257  26.176  25.786  0.00  0.00    -0.214 NA
BRANCH   4   3
ATOM      1  C   UNL     1     -15.008  30.090  26.797  0.00  0.00    +0.020 A 
ATOM      2  C   UNL     1     -14.747  28.898  26.024  0.00  0.00    +0.013 A 
ATOM      3  C   UNL     1     -13.871  27.853  26.539  0.00  0.00    +0.019 A 
ATOM     38  C   UNL     1     -13.270  28.047  27.850  0.00  0.00    +0.120 A 
ATOM     39  N   UNL     1     -13.538  29.207  28.571  0.00  0.00    -0.263 NA
ATOM     40  C   UNL     1     -14.378  30.220  28.085  0.00  0.00    +0.111 A 
ENDBRANCH   4   3
ENDBRANCH  10   9
BRANCH  12  13
ATOM     13  N   UNL     1      -9.060  19.954  25.510  0.00  0.00    -0.281 N 
ATOM     14  C   UNL     1      -7.826  19.418  25.841  0.00  0.00    +0.248 C 
ATOM     30  O   UNL     1      -6.763  19.779  25.358  0.00  0.00    -0.270 OA
ATOM     31  H   UNL     1      -9.876  19.436  25.835  0.00  0.00    +0.155 HD
BRANCH  14  15
ATOM     15  C   UNL     1      -7.766  18.311  26.843  0.00  0.00    +0.037 A 
ATOM     16  C   UNL     1      -8.987  17.696  27.371  0.00  0.00    +0.013 A 
ATOM     17  C   UNL     1      -8.901  16.641  28.349  0.00  0.00    +0.005 A 
ATOM     18  C   UNL     1      -7.588  16.193  28.806  0.00  0.00    -0.033 A 
ATOM     28  C   UNL     1      -6.393  16.817  28.263  0.00  0.00    +0.005 A 
ATOM     29  C   UNL     1      -6.473  17.852  27.304  0.00  0.00    +0.013 A 
BRANCH  18  19
ATOM     19  C   UNL     1      -7.402  15.089  29.863  0.00  0.00    +0.119 C 
BRANCH  19  20
ATOM     20  N   UNL     1      -6.229  14.179  29.702  0.00  0.00    -0.302 NA
ATOM     21  C   UNL     1      -6.422  13.192  28.548  0.00  0.00    +0.066 C 
ATOM     22  C   UNL     1      -5.176  12.263  28.379  0.00  0.00    -0.064 C 
ATOM     23  N   UNL     1      -4.917  11.518  29.690  0.00  0.00    +0.379 N 
ATOM     24  C   UNL     1      -3.782  10.601  29.517  0.00  0.00    -0.096 C 
ATOM     25  H   UNL     1      -5.819  10.902  29.913  0.00  0.00    -0.082 HD
ATOM     26  C   UNL     1      -4.727  12.492  30.844  0.00  0.00    -0.064 C 
ATOM     27  C   UNL     1      -5.958  13.431  30.984  0.00  0.00    +0.066 C 
ENDBRANCH  19  20
ENDBRANCH  18  19
ENDBRANCH  14  15
ENDBRANCH  12  13
TORSDOF 6
ENDMDL
MODEL 2
REMARK VINA RESULT:      -8.1      2.414      3.428
REMARK  Name = C:\Users\Docking\Desktop\test protocol\1iep_ligandH.pdb
REMARK  8 active torsions:
REMARK  status: ('A' for Active; 'I' for Inactive)
REMARK    1  A    between atoms: _5  and  _11
REMARK    2  A    between atoms: _19  and  _21
REMARK    3  A    between atoms: _22  and  _66
REMARK    4  A    between atoms: _27  and  _30
REMARK    5  A    between atoms: _32  and  _33
REMARK    6  A    between atoms: _38  and  _43
REMARK    7  A    between atoms: _43  and  _46
REMARK    8  A    between atoms: _53  and  _55
REMARK                            x       y       z     vdW  Elec       q    Type
REMARK                         _______ _______ _______ _____ _____    ______ ____
ROOT
ATOM     10  C   UNL     1     -10.639  23.860  24.643  0.00  0.00    +0.038 A 
ATOM     11  C   UNL     1     -10.505  22.709  25.461  0.00  0.00    +0.047 A 
ATOM     12  C   UNL     1     -10.193  21.409  24.886  0.00  0.00    +0.035 A 
ATOM     32  C   UNL     1     -10.022  21.319  23.474  0.00  0.00    +0.024 A 
ATOM     33  C   UNL     1     -10.156  22.479  22.628  0.00  0.00    +0.007 A 
ATOM     34  C   UNL     1     -10.465  23.763  23.189  0.00  0.00    -0.029 A 
ATOM     35  C   UNL     1     -10.603  24.970  22.233  0.00  0.00    +0.045 C 
ENDROOT
BRANCH  10   9
ATOM      4  C   UNL     1     -13.734  27.282  25.964  0.00  0.00    +0.077 A 
ATOM      5  C   UNL     1     -14.843  26.589  25.376  0.00  0.00    +0.048 A 
ATOM      6  C   UNL     1     -14.574  25.358  24.736  0.00  0.00    +0.116 A 
ATOM      7  N   UNL     1     -13.287  24.867  24.695  0.00  0.00    -0.223 NA
ATOM      8  C   UNL     1     -12.239  25.562  25.271  0.00  0.00    +0.220 A 
ATOM      9  N   UNL     1     -10.939  25.082  25.248  0.00  0.00    -0.283 N 
ATOM     36  H   UNL     1     -10.192  25.629  25.678  0.00  0.00    +0.155 HD
ATOM     37  N   UNL     1     -12.470  26.740  25.886  0.00  0.00    -0.214 NA
BRANCH   4   3
ATOM      1  C   UNL     1     -12.987  30.860  27.359  0.00  0.00    +0.020 A 
ATOM      2  C   UNL     1     -12.816  29.611  26.653  0.00  0.00    +0.013 A 
ATOM      3  C   UNL     1     -13.858  28.592  26.678  0.00  0.00    +0.019 A 
ATOM     38  C   UNL     1     -15.071  28.872  27.432  0.00  0.00    +0.120 A 
ATOM     39  N   UNL     1     -15.207  30.083  28.104  0.00  0.00    -0.263 NA
ATOM     40  C   UNL     1     -14.210  31.069  28.088  0.00  0.00    +0.111 A 
ENDBRANCH   4   3
ENDBRANCH  10   9
BRANCH  12  13
ATOM     13  N   UNL     1     -10.053  20.204  25.665  0.00  0.00    -0.281 N 
ATOM     14  C   UNL     1      -8.921  19.422  25.828  0.00  0.00    +0.248 C 
ATOM     30  O   UNL     1      -7.908  19.524  25.152  0.00  0.00    -0.270 OA
ATOM     31  H   UNL     1     -10.889  19.890  26.157  0.00  0.00    +0.155 HD
BRANCH  14  15
ATOM     15  C   UNL     1      -8.920  18.365  26.884  0.00  0.00    +0.037 A 
ATOM     16  C   UNL     1      -7.669  17.882  27.474  0.00  0.00    +0.013 A 
ATOM     17  C   UNL     1      -7.694  16.849  28.479  0.00  0.00    +0.005 A 
ATOM     18  C   UNL     1      -8.978  16.293  28.902  0.00  0.00    -0.033 A 
ATOM     28  C   UNL     1     -10.204  16.795  28.304  0.00  0.00    +0.005 A 
ATOM     29  C   UNL     1     -10.182  17.806  27.318  0.00  0.00    +0.013 A 
BRANCH  18  19
ATOM     19  C   UNL     1      -9.099  15.174  29.953  0.00  0.00    +0.119 C 
BRANCH  19  20
ATOM     20  N   UNL     1      -9.701  15.535  31.271  0.00  0.00    -0.302 NA
ATOM     21  C   UNL     1      -8.834  15.074  32.445  0.00  0.00    +0.066 C 
ATOM     22  C   UNL     1      -9.467  15.480  33.815  0.00  0.00    -0.064 C 
ATOM     23  N   UNL     1     -10.875  14.890  33.917  0.00  0.00    +0.379 N 
ATOM     24  C   UNL     1     -11.452  15.222  35.229  0.00  0.00    -0.096 C 
ATOM     25  H   UNL     1     -10.782  13.781  33.859  0.00  0.00    -0.082 HD
ATOM     26  C   UNL     1     -11.744  15.342  32.752  0.00  0.00    -0.064 C 
ATOM     27  C   UNL     1     -11.090  14.960  31.395  0.00  0.00    +0.066 C 
ENDBRANCH  19  20
ENDBRANCH  18  19
ENDBRANCH  14  15
ENDBRANCH  12  13
TORSDOF 6
ENDMDL
MODEL 3
REMARK VINA RESULT:      -8.1      6.641     12.119
REMARK  Name = C:\Users\Docking\Desktop\test protocol\1iep_ligandH.pdb
REMARK  8 active torsions:
REMARK  status: ('A' for Active; 'I' for Inactive)
REMARK    1  A    between atoms: _5  and  _11
REMARK    2  A    between atoms: _19  and  _21
REMARK    3  A    between atoms: _22  and  _66
REMARK    4  A    between atoms: _27  and  _30
REMARK    5  A    between atoms: _32  and  _33
REMARK    6  A    between atoms: _38  and  _43
REMARK    7  A    between atoms: _43  and  _46
REMARK    8  A    between atoms: _53  and  _55
REMARK                            x       y       z     vdW  Elec       q    Type
REMARK                         _______ _______ _______ _____ _____    ______ ____
ROOT
ATOM     10  C   UNL     1     -17.246  32.975  25.808  0.00  0.00    +0.038 A 
ATOM     11  C   UNL     1     -16.676  31.716  25.490  0.00  0.00    +0.047 A 
ATOM     12  C   UNL     1     -15.468  31.247  26.152  0.00  0.00    +0.035 A 
ATOM     32  C   UNL     1     -14.869  32.086  27.136  0.00  0.00    +0.024 A 
ATOM     33  C   UNL     1     -15.434  33.369  27.472  0.00  0.00    +0.007 A 
ATOM     34  C   UNL     1     -16.624  33.838  26.820  0.00  0.00    -0.029 A 
ATOM     35  C   UNL     1     -17.182  35.225  27.215  0.00  0.00    +0.045 C 
ENDROOT
BRANCH  10   9
ATOM      4  C   UNL     1     -19.513  34.890  22.036  0.00  0.00    +0.077 A 
ATOM      5  C   UNL     1     -18.280  35.139  21.346  0.00  0.00    +0.048 A 
ATOM      6  C   UNL     1     -17.084  34.766  22.000  0.00  0.00    +0.116 A 
ATOM      7  N   UNL     1     -17.130  34.187  23.250  0.00  0.00    -0.223 NA
ATOM      8  C   UNL     1     -18.336  33.963  23.888  0.00  0.00    +0.220 A 
ATOM      9  N   UNL     1     -18.406  33.375  25.142  0.00  0.00    -0.283 N 
ATOM     36  H   UNL     1     -19.315  33.233  25.582  0.00  0.00    +0.155 HD
ATOM     37  N   UNL     1     -19.492  34.311  23.286  0.00  0.00    -0.214 NA
BRANCH   4   3
ATOM      1  C   UNL     1     -23.382  35.176  21.532  0.00  0.00    +0.020 A 
ATOM      2  C   UNL     1     -22.107  34.826  22.116  0.00  0.00    +0.013 A 
ATOM      3  C   UNL     1     -20.860  35.225  21.475  0.00  0.00    +0.019 A 
ATOM     38  C   UNL     1     -20.938  35.984  20.236  0.00  0.00    +0.120 A 
ATOM     39  N   UNL     1     -22.180  36.306  19.697  0.00  0.00    -0.263 NA
ATOM     40  C   UNL     1     -23.387  35.925  20.304  0.00  0.00    +0.111 A 
ENDBRANCH   4   3
ENDBRANCH  10   9
BRANCH  12  13
ATOM     13  N   UNL     1     -14.840  29.982  25.864  0.00  0.00    -0.281 N 
ATOM     14  C   UNL     1     -14.787  28.855  26.667  0.00  0.00    +0.248 C 
ATOM     30  O   UNL     1     -15.091  28.835  27.851  0.00  0.00    -0.270 OA
ATOM     31  H   UNL     1     -14.377  29.908  24.957  0.00  0.00    +0.155 HD
BRANCH  14  15
ATOM     15  C   UNL     1     -14.314  27.567  26.074  0.00  0.00    +0.037 A 
ATOM     16  C   UNL     1     -15.179  26.769  25.202  0.00  0.00    +0.013 A 
ATOM     17  C   UNL     1     -14.705  25.522  24.657  0.00  0.00    +0.005 A 
ATOM     18  C   UNL     1     -13.356  25.066  24.982  0.00  0.00    -0.033 A 
ATOM     28  C   UNL     1     -12.517  25.879  25.846  0.00  0.00    +0.005 A 
ATOM     29  C   UNL     1     -12.979  27.101  26.383  0.00  0.00    +0.013 A 
BRANCH  18  19
ATOM     19  C   UNL     1     -12.774  23.737  24.463  0.00  0.00    +0.119 C 
BRANCH  19  20
ATOM     20  N   UNL     1     -11.299  23.678  24.238  0.00  0.00    -0.302 NA
ATOM     21  C   UNL     1     -10.894  24.325  22.911  0.00  0.00    +0.066 C 
ATOM     22  C   UNL     1      -9.345  24.274  22.703  0.00  0.00    -0.064 C 
ATOM     23  N   UNL     1      -8.872  22.821  22.764  0.00  0.00    +0.379 N 
ATOM     24  C   UNL     1      -7.425  22.765  22.511  0.00  0.00    -0.096 C 
ATOM     25  H   UNL     1      -9.381  22.265  21.942  0.00  0.00    -0.082 HD
ATOM     26  C   UNL     1      -9.274  22.169  24.080  0.00  0.00    -0.064 C 
ATOM     27  C   UNL     1     -10.811  22.251  24.290  0.00  0.00    +0.066 C 
ENDBRANCH  19  20
ENDBRANCH  18  19
ENDBRANCH  14  15
ENDBRANCH  12  13
TORSDOF 6
ENDMDL
MODEL 4
REMARK VINA RESULT:      -8.0      9.611     18.229
REMARK  Name = C:\Users\Docking\Desktop\test protocol\1iep_ligandH.pdb
REMARK  8 active torsions:
REMARK  status: ('A' for Active; 'I' for Inactive)
REMARK    1  A    between atoms: _5  and  _11
REMARK    2  A    between atoms: _19  and  _21
REMARK    3  A    between atoms: _22  and  _66
REMARK    4  A    between atoms: _27  and  _30
REMARK    5  A    between atoms: _32  and  _33
REMARK    6  A    between atoms: _38  and  _43
REMARK    7  A    between atoms: _43  and  _46
REMARK    8  A    between atoms: _53  and  _55
REMARK                            x       y       z     vdW  Elec       q    Type
REMARK                         _______ _______ _______ _____ _____    ______ ____
ROOT
ATOM     10  C   UNL     1      -2.512   8.088  29.111  0.00  0.00    +0.038 A 
ATOM     11  C   UNL     1      -3.279   8.984  29.900  0.00  0.00    +0.047 A 
ATOM     12  C   UNL     1      -3.818  10.211  29.335  0.00  0.00    +0.035 A 
ATOM     32  C   UNL     1      -3.560  10.493  27.962  0.00  0.00    +0.024 A 
ATOM     33  C   UNL     1      -2.782   9.594  27.146  0.00  0.00    +0.007 A 
ATOM     34  C   UNL     1      -2.245   8.383  27.699  0.00  0.00    -0.029 A 
ATOM     35  C   UNL     1      -1.413   7.460  26.779  0.00  0.00    +0.045 C 
ENDROOT
BRANCH  10   9
ATOM      4  C   UNL     1       0.693   5.743  31.807  0.00  0.00    +0.077 A 
ATOM      5  C   UNL     1       1.464   6.932  32.029  0.00  0.00    +0.048 A 
ATOM      6  C   UNL     1       1.006   8.125  31.426  0.00  0.00    +0.116 A 
ATOM      7  N   UNL     1      -0.140   8.118  30.660  0.00  0.00    -0.223 NA
ATOM      8  C   UNL     1      -0.859   6.953  30.465  0.00  0.00    +0.220 A 
ATOM      9  N   UNL     1      -2.019   6.924  29.705  0.00  0.00    -0.283 N 
ATOM     36  H   UNL     1      -2.517   6.043  29.579  0.00  0.00    +0.155 HD
ATOM     37  N   UNL     1      -0.442   5.801  31.029  0.00  0.00    -0.214 NA
BRANCH   4   3
ATOM      1  C   UNL     1       0.501   2.319  33.688  0.00  0.00    +0.020 A 
ATOM      2  C   UNL     1       0.110   3.605  33.157  0.00  0.00    +0.013 A 
ATOM      3  C   UNL     1       1.047   4.406  32.380  0.00  0.00    +0.019 A 
ATOM     38  C   UNL     1       2.382   3.874  32.155  0.00  0.00    +0.120 A 
ATOM     39  N   UNL     1       2.731   2.633  32.679  0.00  0.00    -0.263 NA
ATOM     40  C   UNL     1       1.839   1.854  33.431  0.00  0.00    +0.111 A 
ENDBRANCH   4   3
ENDBRANCH  10   9
BRANCH  12  13
ATOM     13  N   UNL     1      -4.597  11.162  30.089  0.00  0.00    -0.281 N 
ATOM     14  C   UNL     1      -4.180  12.371  30.621  0.00  0.00    +0.248 C 
ATOM     30  O   UNL     1      -3.013  12.720  30.714  0.00  0.00    -0.270 OA
ATOM     31  H   UNL     1      -5.573  10.914  30.249  0.00  0.00    +0.155 HD
BRANCH  14  15
ATOM     15  C   UNL     1      -5.208  13.324  31.140  0.00  0.00    +0.037 A 
ATOM     16  C   UNL     1      -4.832  14.646  31.647  0.00  0.00    +0.013 A 
ATOM     17  C   UNL     1      -5.842  15.539  32.157  0.00  0.00    +0.005 A 
ATOM     18  C   UNL     1      -7.239  15.114  32.160  0.00  0.00    -0.033 A 
ATOM     28  C   UNL     1      -7.585  13.799  31.646  0.00  0.00    +0.005 A 
ATOM     29  C   UNL     1      -6.598  12.920  31.146  0.00  0.00    +0.013 A 
BRANCH  18  19
ATOM     19  C   UNL     1      -8.380  15.993  32.705  0.00  0.00    +0.119 C 
BRANCH  19  20
ATOM     20  N   UNL     1      -9.759  15.420  32.676  0.00  0.00    -0.302 NA
ATOM     21  C   UNL     1     -10.519  15.814  31.406  0.00  0.00    +0.066 C 
ATOM     22  C   UNL     1     -11.951  15.188  31.382  0.00  0.00    -0.064 C 
ATOM     23  N   UNL     1     -12.718  15.626  32.631  0.00  0.00    +0.379 N 
ATOM     24  C   UNL     1     -14.084  15.086  32.582  0.00  0.00    -0.096 C 
ATOM     25  H   UNL     1     -12.793  16.738  32.608  0.00  0.00    -0.082 HD
ATOM     26  C   UNL     1     -11.968  15.240  33.898  0.00  0.00    -0.064 C 
ATOM     27  C   UNL     1     -10.536  15.843  33.898  0.00  0.00    +0.066 C 
ENDBRANCH  19  20
ENDBRANCH  18  19
ENDBRANCH  14  15
ENDBRANCH  12  13
TORSDOF 6
ENDMDL
MODEL 5
REMARK VINA RESULT:      -8.0      4.133     12.741
REMARK  Name = C:\Users\Docking\Desktop\test protocol\1iep_ligandH.pdb
REMARK  8 active torsions:
REMARK  status: ('A' for Active; 'I' for Inactive)
REMARK    1  A    between atoms: _5  and  _11
REMARK    2  A    between atoms: _19  and  _21
REMARK    3  A    between atoms: _22  and  _66
REMARK    4  A    between atoms: _27  and  _30
REMARK    5  A    between atoms: _32  and  _33
REMARK    6  A    between atoms: _38  and  _43
REMARK    7  A    between atoms: _43  and  _46
REMARK    8  A    between atoms: _53  and  _55
REMARK                            x       y       z     vdW  Elec       q    Type
REMARK                         _______ _______ _______ _____ _____    ______ ____
ROOT
ATOM     10  C   UNL     1      -7.176  14.343  30.867  0.00  0.00    +0.038 A 
ATOM     11  C   UNL     1      -7.671  15.303  29.948  0.00  0.00    +0.047 A 
ATOM     12  C   UNL     1      -6.787  15.961  28.998  0.00  0.00    +0.035 A 
ATOM     32  C   UNL     1      -5.405  15.614  29.010  0.00  0.00    +0.024 A 
ATOM     33  C   UNL     1      -4.885  14.641  29.938  0.00  0.00    +0.007 A 
ATOM     34  C   UNL     1      -5.751  13.991  30.879  0.00  0.00    -0.029 A 
ATOM     35  C   UNL     1      -5.137  12.961  31.855  0.00  0.00    +0.045 C 
ENDROOT
BRANCH  10   9
ATOM      4  C   UNL     1     -10.388  14.553  34.428  0.00  0.00    +0.077 A 
ATOM      5  C   UNL     1     -10.256  15.977  34.542  0.00  0.00    +0.048 A 
ATOM      6  C   UNL     1      -9.345  16.616  33.671  0.00  0.00    +0.116 A 
ATOM      7  N   UNL     1      -8.626  15.877  32.758  0.00  0.00    -0.223 NA
ATOM      8  C   UNL     1      -8.776  14.505  32.674  0.00  0.00    +0.220 A 
ATOM      9  N   UNL     1      -8.069  13.742  31.757  0.00  0.00    -0.283 N 
ATOM     36  H   UNL     1      -8.203  12.732  31.732  0.00  0.00    +0.155 HD
ATOM     37  N   UNL     1      -9.638  13.871  33.496  0.00  0.00    -0.214 NA
BRANCH   4   3
ATOM      1  C   UNL     1     -12.163  11.537  36.175  0.00  0.00    +0.020 A 
ATOM      2  C   UNL     1     -11.248  12.280  35.340  0.00  0.00    +0.013 A 
ATOM      3  C   UNL     1     -11.312  13.735  35.275  0.00  0.00    +0.019 A 
ATOM     38  C   UNL     1     -12.321  14.413  36.075  0.00  0.00    +0.120 A 
ATOM     39  N   UNL     1     -13.190  13.671  36.869  0.00  0.00    -0.263 NA
ATOM     40  C   UNL     1     -13.139  12.270  36.938  0.00  0.00    +0.111 A 
ENDBRANCH   4   3
ENDBRANCH  10   9
BRANCH  12  13
ATOM     13  N   UNL     1      -7.231  16.949  28.047  0.00  0.00    -0.281 N 
ATOM     14  C   UNL     1      -8.421  16.975  27.338  0.00  0.00    +0.248 C 
ATOM     30  O   UNL     1      -9.197  16.034  27.255  0.00  0.00    -0.270 OA
ATOM     31  H   UNL     1      -6.591  17.724  27.875  0.00  0.00    +0.155 HD
BRANCH  14  15
ATOM     15  C   UNL     1      -8.797  18.221  26.603  0.00  0.00    +0.037 A 
ATOM     16  C   UNL     1     -10.188  18.493  26.231  0.00  0.00    +0.013 A 
ATOM     17  C   UNL     1     -10.521  19.695  25.508  0.00  0.00    +0.005 A 
ATOM     18  C   UNL     1      -9.460  20.634  25.153  0.00  0.00    -0.033 A 
ATOM     28  C   UNL     1      -8.090  20.342  25.539  0.00  0.00    +0.005 A 
ATOM     29  C   UNL     1      -7.760  19.165  26.247  0.00  0.00    +0.013 A 
BRANCH  18  19
ATOM     19  C   UNL     1      -9.721  21.931  24.364  0.00  0.00    +0.119 C 
BRANCH  19  20
ATOM     20  N   UNL     1     -11.055  22.580  24.536  0.00  0.00    -0.302 NA
ATOM     21  C   UNL     1     -11.492  23.337  23.278  0.00  0.00    +0.066 C 
ATOM     22  C   UNL     1     -12.900  23.990  23.468  0.00  0.00    -0.064 C 
ATOM     23  N   UNL     1     -12.866  24.925  24.679  0.00  0.00    +0.379 N 
ATOM     24  C   UNL     1     -14.172  25.585  24.825  0.00  0.00    -0.096 C 
ATOM     25  H   UNL     1     -12.108  25.716  24.474  0.00  0.00    -0.082 HD
ATOM     26  C   UNL     1     -12.430  24.181  25.933  0.00  0.00    -0.064 C 
ATOM     27  C   UNL     1     -11.043  23.510  25.724  0.00  0.00    +0.066 C 
ENDBRANCH  19  20
ENDBRANCH  18  19
ENDBRANCH  14  15
ENDBRANCH  12  13
TORSDOF 6
ENDMDL
