MODEL 1
REMARK VINA RESULT:      -8.2      0.000      0.000
REMARK  Name = C:\Users\Docking\Desktop\test protocol\1iep_ligandH.pdb
REMARK  8 active torsions:
REMARK  status: ('A' for Active; 'I' for Inactive)
REMARK    1  A    between atoms: _5  and  _11
REMARK    2  A    between atoms: _19  and  _21
REMARK    3  A    between atoms: _22  and  _66
REMARK    4  A    between atoms: _27  and  _30
REMARK    5  A    between atoms: _32  and  _33
REMARK    6  A    between atoms: _38  and  _43
REMARK    7  A    between atoms: _43  and  _46
REMARK    8  A    between atoms: _53  and  _55
REMARK                            x       y       z     vdW  Elec       q    Type
REMARK                         _______ _______ _______ _____ _____    ______ ____
ROOT
ATOM     10  C   UNL     1      -6.822  14.486  30.224  0.00  0.00    +0.038 A 
ATOM     11  C   UNL     1      -7.333  15.425  29.292  0.00  0.00    +0.047 A 
ATOM     12  C   UNL     1      -6.479  16.015  28.273  0.00  0.00    +0.035 A 
ATOM     32  C   UNL     1      -5.109  15.623  28.230  0.00  0.00    +0.024 A 
ATOM     33  C   UNL     1      -4.573  14.671  29.171  0.00  0.00    +0.007 A 
ATOM     34  C   UNL     1      -5.410  14.087  30.180  0.00  0.00    -0.029 A 
ATOM     35  C   UNL     1      -4.780  13.077  31.166  0.00  0.00    +0.045 C 
ENDROOT
BRANCH  10   9
ATOM      4  C   UNL     1      -9.829  14.941  33.937  0.00  0.00    +0.077 A 
ATOM      5  C   UNL     1      -9.639  16.362  33.993  0.00  0.00    +0.048 A 
ATOM      6  C   UNL     1      -8.754  16.936  33.052  0.00  0.00    +0.116 A 
ATOM      7  N   UNL     1      -8.113  16.138  32.130  0.00  0.00    -0.223 NA
ATOM      8  C   UNL     1      -8.316  14.771  32.105  0.00  0.00    +0.220 A 
ATOM      9  N   UNL     1      -7.687  13.951  31.181  0.00  0.00    -0.283 N 
ATOM     36  H   UNL     1      -7.858  12.946  31.200  0.00  0.00    +0.155 HD
ATOM     37  N   UNL     1      -9.155  14.199  32.993  0.00  0.00    -0.214 NA
BRANCH   4   3
ATOM      1  C   UNL     1     -11.554  12.066  35.952  0.00  0.00    +0.020 A 
ATOM      2  C   UNL     1     -10.655  12.745  35.047  0.00  0.00    +0.013 A 
ATOM      3  C   UNL     1     -10.734  14.188  34.862  0.00  0.00    +0.019 A 
ATOM     38  C   UNL     1     -11.741  14.922  35.615  0.00  0.00    +0.120 A 
ATOM     39  N   UNL     1     -12.593  14.241  36.478  0.00  0.00    -0.263 NA
ATOM     40  C   UNL     1     -12.528  12.852  36.663  0.00  0.00    +0.111 A 
ENDBRANCH   4   3
ENDBRANCH  10   9
BRANCH  12  13
ATOM     13  N   UNL     1      -6.939  16.979  27.305  0.00  0.00    -0.281 N 
ATOM     14  C   UNL     1      -8.128  16.971  26.594  0.00  0.00    +0.248 C 
ATOM     30  O   UNL     1      -8.886  16.015  26.525  0.00  0.00    -0.270 OA
ATOM     31  H   UNL     1      -6.313  17.763  27.122  0.00  0.00    +0.155 HD
BRANCH  14  15
ATOM     15  C   UNL     1      -8.526  18.198  25.839  0.00  0.00    +0.037 A 
ATOM     16  C   UNL     1      -9.934  18.500  25.568  0.00  0.00    +0.013 A 
ATOM     17  C   UNL     1     -10.289  19.681  24.822  0.00  0.00    +0.005 A 
ATOM     18  C   UNL     1      -9.234  20.571  24.343  0.00  0.00    -0.033 A 
ATOM     28  C   UNL     1      -7.846  20.250  24.631  0.00  0.00    +0.005 A 
ATOM     29  C   UNL     1      -7.494  19.092  25.361  0.00  0.00    +0.013 A 
BRANCH  18  19
ATOM     19  C   UNL     1      -9.520  21.842  23.522  0.00  0.00    +0.119 C 
BRANCH  19  20
ATOM     20  N   UNL     1     -10.686  22.676  23.938  0.00  0.00    -0.302 NA
ATOM     21  C   UNL     1     -10.718  24.023  23.209  0.00  0.00    +0.066 C 
ATOM     22  C   UNL     1     -11.957  24.874  23.640  0.00  0.00    -0.064 C 
ATOM     23  N   UNL     1     -11.930  25.078  25.155  0.00  0.00    +0.379 N 
ATOM     24  C   UNL     1     -13.062  25.927  25.556  0.00  0.00    -0.096 C 
ATOM     25  H   UNL     1     -10.992  25.625  25.406  0.00  0.00    -0.082 HD
ATOM     26  C   UNL     1     -11.896  23.744  25.887  0.00  0.00    -0.064 C 
ATOM     27  C   UNL     1     -10.678  22.894  25.431  0.00  0.00    +0.066 C 
ENDBRANCH  19  20
ENDBRANCH  18  19
ENDBRANCH  14  15
ENDBRANCH  12  13
TORSDOF 6
ENDMDL
MODEL 2
REMARK VINA RESULT:      -8.2      6.229      8.434
REMARK  Name = C:\Users\Docking\Desktop\test protocol\1iep_ligandH.pdb
REMARK  8 active torsions:
REMARK  status: ('A' for Active; 'I' for Inactive)
REMARK    1  A    between atoms: _5  and  _11
REMARK    2  A    between atoms: _19  and  _21
REMARK    3  A    between atoms: _22  and  _66
REMARK    4  A    between atoms: _27  and  _30
REMARK    5  A    between atoms: _32  and  _33
REMARK    6  A    between atoms: _38  and  _43
REMARK    7  A    between atoms: _43  and  _46
REMARK    8  A    between atoms: _53  and  _55
REMARK                            x       y       z     vdW  Elec       q    Type
REMARK                         _______ _______ _______ _____ _____    ______ ____
ROOT
ATOM     10  C   UNL     1      -7.511  18.025  26.022  0.00  0.00    +0.038 A 
ATOM     11  C   UNL     1      -6.319  18.792  25.962  0.00  0.00    +0.047 A 
ATOM     12  C   UNL     1      -5.581  18.939  24.717  0.00  0.00    +0.035 A 
ATOM     32  C   UNL     1      -6.087  18.293  23.551  0.00  0.00    +0.024 A 
ATOM     33  C   UNL     1      -7.296  17.509  23.594  0.00  0.00    +0.007 A 
ATOM     34  C   UNL     1      -8.027  17.358  24.820  0.00  0.00    -0.029 A 
ATOM     35  C   UNL     1      -9.314  16.500  24.810  0.00  0.00    +0.045 C 
ENDROOT
BRANCH  10   9
ATOM      4  C   UNL     1      -8.325  15.853  30.224  0.00  0.00    +0.077 A 
ATOM      5  C   UNL     1      -7.356  14.831  29.951  0.00  0.00    +0.048 A 
ATOM      6  C   UNL     1      -6.675  14.897  28.715  0.00  0.00    +0.116 A 
ATOM      7  N   UNL     1      -6.950  15.913  27.826  0.00  0.00    -0.223 NA
ATOM      8  C   UNL     1      -7.892  16.881  28.119  0.00  0.00    +0.220 A 
ATOM      9  N   UNL     1      -8.179  17.917  27.243  0.00  0.00    -0.283 N 
ATOM     36  H   UNL     1      -8.886  18.608  27.494  0.00  0.00    +0.155 HD
ATOM     37  N   UNL     1      -8.557  16.840  29.292  0.00  0.00    -0.214 NA
BRANCH   4   3
ATOM      1  C   UNL     1      -9.441  16.592  33.899  0.00  0.00    +0.020 A 
ATOM      2  C   UNL     1      -8.629  16.552  32.705  0.00  0.00    +0.013 A 
ATOM      3  C   UNL     1      -9.124  15.922  31.488  0.00  0.00    +0.019 A 
ATOM     38  C   UNL     1     -10.457  15.338  31.512  0.00  0.00    +0.120 A 
ATOM     39  N   UNL     1     -11.216  15.390  32.677  0.00  0.00    -0.263 NA
ATOM     40  C   UNL     1     -10.749  15.992  33.855  0.00  0.00    +0.111 A 
ENDBRANCH   4   3
ENDBRANCH  10   9
BRANCH  12  13
ATOM     13  N   UNL     1      -4.361  19.698  24.597  0.00  0.00    -0.281 N 
ATOM     14  C   UNL     1      -4.154  20.870  23.888  0.00  0.00    +0.248 C 
ATOM     30  O   UNL     1      -4.937  21.331  23.070  0.00  0.00    -0.270 OA
ATOM     31  H   UNL     1      -3.553  19.327  25.095  0.00  0.00    +0.155 HD
BRANCH  14  15
ATOM     15  C   UNL     1      -2.888  21.633  24.108  0.00  0.00    +0.037 A 
ATOM     16  C   UNL     1      -1.581  20.975  24.027  0.00  0.00    +0.013 A 
ATOM     17  C   UNL     1      -0.375  21.731  24.261  0.00  0.00    +0.005 A 
ATOM     18  C   UNL     1      -0.472  23.154  24.576  0.00  0.00    -0.033 A 
ATOM     28  C   UNL     1      -1.781  23.782  24.645  0.00  0.00    +0.005 A 
ATOM     29  C   UNL     1      -2.965  23.045  24.417  0.00  0.00    +0.013 A 
BRANCH  18  19
ATOM     19  C   UNL     1       0.760  24.033  24.861  0.00  0.00    +0.119 C 
BRANCH  19  20
ATOM     20  N   UNL     1       1.437  23.855  26.180  0.00  0.00    -0.302 NA
ATOM     21  C   UNL     1       0.620  24.452  27.330  0.00  0.00    +0.066 C 
ATOM     22  C   UNL     1       1.332  24.237  28.705  0.00  0.00    -0.064 C 
ATOM     23  N   UNL     1       2.730  24.856  28.655  0.00  0.00    +0.379 N 
ATOM     24  C   UNL     1       3.380  24.707  29.965  0.00  0.00    -0.096 C 
ATOM     25  H   UNL     1       2.609  25.947  28.460  0.00  0.00    -0.082 HD
ATOM     26  C   UNL     1       3.548  24.270  27.513  0.00  0.00    -0.064 C 
ATOM     27  C   UNL     1       2.818  24.463  26.155  0.00  0.00    +0.066 C 
ENDBRANCH  19  20
ENDBRANCH  18  19
ENDBRANCH  14  15
ENDBRANCH  12  13
TORSDOF 6
ENDMDL
MODEL 3
REMARK VINA RESULT:      -8.2      6.417      8.232
REMARK  Name = C:\Users\Docking\Desktop\test protocol\1iep_ligandH.pdb
REMARK  8 active torsions:
REMARK  status: ('A' for Active; 'I' for Inactive)
REMARK    1  A    between atoms: _5  and  _11
REMARK    2  A    between atoms: _19  and  _21
REMARK    3  A    between atoms: _22  and  _66
REMARK    4  A    between atoms: _27  and  _30
REMARK    5  A    between atoms: _32  and  _33
REMARK    6  A    between atoms: _38  and  _43
REMARK    7  A    between atoms: _43  and  _46
REMARK    8  A    between atoms: _53  and  _55
REMARK                            x       y       z     vdW  Elec       q    Type
REMARK                         _______ _______ _______ _____ _____    ______ ____
ROOT
ATOM     10  C   UNL     1      -5.465  16.183  25.635  0.00  0.00    +0.038 A 
ATOM     11  C   UNL     1      -4.743  17.401  25.549  0.00  0.00    +0.047 A 
ATOM     12  C   UNL     1      -3.721  17.600  24.533  0.00  0.00    +0.035 A 
ATOM     32  C   UNL     1      -3.462  16.539  23.618  0.00  0.00    +0.024 A 
ATOM     33  C   UNL     1      -4.186  15.294  23.691  0.00  0.00    +0.007 A 
ATOM     34  C   UNL     1      -5.193  15.090  24.693  0.00  0.00    -0.029 A 
ATOM     35  C   UNL     1      -5.933  13.733  24.728  0.00  0.00    +0.045 C 
ENDROOT
BRANCH  10   9
ATOM      4  C   UNL     1      -6.820  15.047  30.097  0.00  0.00    +0.077 A 
ATOM      5  C   UNL     1      -5.486  14.669  30.469  0.00  0.00    +0.048 A 
ATOM      6  C   UNL     1      -4.482  14.776  29.481  0.00  0.00    +0.116 A 
ATOM      7  N   UNL     1      -4.799  15.227  28.218  0.00  0.00    -0.223 NA
ATOM      8  C   UNL     1      -6.095  15.582  27.891  0.00  0.00    +0.220 A 
ATOM      9  N   UNL     1      -6.435  16.046  26.630  0.00  0.00    -0.283 N 
ATOM     36  H   UNL     1      -7.404  16.290  26.427  0.00  0.00    +0.155 HD
ATOM     37  N   UNL     1      -7.072  15.488  28.817  0.00  0.00    -0.214 NA
BRANCH   4   3
ATOM      1  C   UNL     1      -9.013  15.046  33.336  0.00  0.00    +0.020 A 
ATOM      2  C   UNL     1      -7.852  15.103  32.478  0.00  0.00    +0.013 A 
ATOM      3  C   UNL     1      -7.988  14.993  31.031  0.00  0.00    +0.019 A 
ATOM     38  C   UNL     1      -9.324  14.826  30.480  0.00  0.00    +0.120 A 
ATOM     39  N   UNL     1     -10.424  14.773  31.331  0.00  0.00    -0.263 NA
ATOM     40  C   UNL     1     -10.305  14.875  32.725  0.00  0.00    +0.111 A 
ENDBRANCH   4   3
ENDBRANCH  10   9
BRANCH  12  13
ATOM     13  N   UNL     1      -2.950  18.812  24.403  0.00  0.00    -0.281 N 
ATOM     14  C   UNL     1      -3.378  20.049  23.953  0.00  0.00    +0.248 C 
ATOM     30  O   UNL     1      -4.443  20.249  23.388  0.00  0.00    -0.270 OA
ATOM     31  H   UNL     1      -1.969  18.749  24.677  0.00  0.00    +0.155 HD
BRANCH  14  15
ATOM     15  C   UNL     1      -2.488  21.235  24.144  0.00  0.00    +0.037 A 
ATOM     16  C   UNL     1      -1.029  21.100  24.132  0.00  0.00    +0.013 A 
ATOM     17  C   UNL     1      -0.194  22.257  24.336  0.00  0.00    +0.005 A 
ATOM     18  C   UNL     1      -0.817  23.561  24.552  0.00  0.00    -0.033 A 
ATOM     28  C   UNL     1      -2.267  23.667  24.553  0.00  0.00    +0.005 A 
ATOM     29  C   UNL     1      -3.089  22.535  24.355  0.00  0.00    +0.013 A 
BRANCH  18  19
ATOM     19  C   UNL     1      -0.004  24.845  24.799  0.00  0.00    +0.119 C 
BRANCH  19  20
ATOM     20  N   UNL     1       0.971  24.831  25.930  0.00  0.00    -0.302 NA
ATOM     21  C   UNL     1       0.329  24.353  27.235  0.00  0.00    +0.066 C 
ATOM     22  C   UNL     1       1.368  24.322  28.403  0.00  0.00    -0.064 C 
ATOM     23  N   UNL     1       1.977  25.715  28.577  0.00  0.00    +0.379 N 
ATOM     24  C   UNL     1       2.912  25.703  29.711  0.00  0.00    -0.096 C 
ATOM     25  H   UNL     1       1.148  26.417  28.828  0.00  0.00    -0.082 HD
ATOM     26  C   UNL     1       2.615  26.199  27.282  0.00  0.00    -0.064 C 
ATOM     27  C   UNL     1       1.581  26.198  26.122  0.00  0.00    +0.066 C 
ENDBRANCH  19  20
ENDBRANCH  18  19
ENDBRANCH  14  15
ENDBRANCH  12  13
TORSDOF 6
ENDMDL
MODEL 4
REMARK VINA RESULT:      -8.1      6.076     14.234
REMARK  Name = C:\Users\Docking\Desktop\test protocol\1iep_ligandH.pdb
REMARK  8 active torsions:
REMARK  status: ('A' for Active; 'I' for Inactive)
REMARK    1  A    between atoms: _5  and  _11
REMARK    2  A    between atoms: _19  and  _21
REMARK    3  A    between atoms: _22  and  _66
REMARK    4  A    between atoms: _27  and  _30
REMARK    5  A    between atoms: _32  and  _33
REMARK    6  A    between atoms: _38  and  _43
REMARK    7  A    between atoms: _43  and  _46
REMARK    8  A    between atoms: _53  and  _55
REMARK                            x       y       z     vdW  Elec       q    Type
REMARK                         _______ _______ _______ _____ _____    ______ ____
ROOT
ATOM     10  C   UNL     1      -8.880  14.736  32.315  0.00  0.00    +0.038 A 
ATOM     11  C   UNL     1      -9.300  13.885  33.368  0.00  0.00    +0.047 A 
ATOM     12  C   UNL     1     -10.015  14.411  34.521  0.00  0.00    +0.035 A 
ATOM     32  C   UNL     1     -10.287  15.810  34.566  0.00  0.00    +0.024 A 
ATOM     33  C   UNL     1      -9.866  16.689  33.504  0.00  0.00    +0.007 A 
ATOM     34  C   UNL     1      -9.158  16.176  32.366  0.00  0.00    -0.029 A 
ATOM     35  C   UNL     1      -8.725  17.167  31.260  0.00  0.00    +0.045 C 
ENDROOT
BRANCH  10   9
ATOM      4  C   UNL     1      -4.837  13.508  30.037  0.00  0.00    +0.077 A 
ATOM      5  C   UNL     1      -4.015  14.049  31.080  0.00  0.00    +0.048 A 
ATOM      6  C   UNL     1      -4.671  14.642  32.182  0.00  0.00    +0.116 A 
ATOM      7  N   UNL     1      -6.048  14.683  32.227  0.00  0.00    -0.223 NA
ATOM      8  C   UNL     1      -6.812  14.153  31.204  0.00  0.00    +0.220 A 
ATOM      9  N   UNL     1      -8.197  14.177  31.232  0.00  0.00    -0.283 N 
ATOM     36  H   UNL     1      -8.724  13.782  30.453  0.00  0.00    +0.155 HD
ATOM     37  N   UNL     1      -6.209  13.583  30.139  0.00  0.00    -0.214 NA
BRANCH   4   3
ATOM      1  C   UNL     1      -2.656  11.337  27.622  0.00  0.00    +0.020 A 
ATOM      2  C   UNL     1      -3.143  11.950  28.836  0.00  0.00    +0.013 A 
ATOM      3  C   UNL     1      -4.292  12.847  28.809  0.00  0.00    +0.019 A 
ATOM     38  C   UNL     1      -4.931  13.103  27.528  0.00  0.00    +0.120 A 
ATOM     39  N   UNL     1      -4.440  12.499  26.374  0.00  0.00    -0.263 NA
ATOM     40  C   UNL     1      -3.333  11.636  26.388  0.00  0.00    +0.111 A 
ENDBRANCH   4   3
ENDBRANCH  10   9
BRANCH  12  13
ATOM     13  N   UNL     1     -10.459  13.597  35.625  0.00  0.00    -0.281 N 
ATOM     14  C   UNL     1     -11.325  12.516  35.592  0.00  0.00    +0.248 C 
ATOM     30  O   UNL     1     -12.020  12.217  34.632  0.00  0.00    -0.270 OA
ATOM     31  H   UNL     1     -10.091  13.848  36.543  0.00  0.00    +0.155 HD
BRANCH  14  15
ATOM     15  C   UNL     1     -11.448  11.652  36.805  0.00  0.00    +0.037 A 
ATOM     16  C   UNL     1     -11.581  10.197  36.691  0.00  0.00    +0.013 A 
ATOM     17  C   UNL     1     -11.715   9.388  37.876  0.00  0.00    +0.005 A 
ATOM     18  C   UNL     1     -11.716  10.033  39.187  0.00  0.00    -0.033 A 
ATOM     28  C   UNL     1     -11.577  11.478  39.271  0.00  0.00    +0.005 A 
ATOM     29  C   UNL     1     -11.447  12.274  38.111  0.00  0.00    +0.013 A 
BRANCH  18  19
ATOM     19  C   UNL     1     -11.875   9.251  40.504  0.00  0.00    +0.119 C 
BRANCH  19  20
ATOM     20  N   UNL     1     -10.820   9.440  41.544  0.00  0.00    -0.302 NA
ATOM     21  C   UNL     1     -10.053   8.145  41.826  0.00  0.00    +0.066 C 
ATOM     22  C   UNL     1      -8.938   8.367  42.900  0.00  0.00    -0.064 C 
ATOM     23  N   UNL     1      -9.570   8.913  44.182  0.00  0.00    +0.379 N 
ATOM     24  C   UNL     1      -8.533   9.068  45.212  0.00  0.00    -0.096 C 
ATOM     25  H   UNL     1     -10.300   8.155  44.548  0.00  0.00    -0.082 HD
ATOM     26  C   UNL     1     -10.337  10.199  43.909  0.00  0.00    -0.064 C 
ATOM     27  C   UNL     1     -11.422   9.975  42.820  0.00  0.00    +0.066 C 
ENDBRANCH  19  20
ENDBRANCH  18  19
ENDBRANCH  14  15
ENDBRANCH  12  13
TORSDOF 6
ENDMDL
MODEL 5
REMARK VINA RESULT:      -8.1      4.062     12.450
REMARK  Name = C:\Users\Docking\Desktop\test protocol\1iep_ligandH.pdb
REMARK  8 active torsions:
REMARK  status: ('A' for Active; 'I' for Inactive)
REMARK    1  A    between atoms: _5  and  _11
REMARK    2  A    between atoms: _19  and  _21
REMARK    3  A    between atoms: _22  and  _66
REMARK    4  A    between atoms: _27  and  _30
REMARK    5  A    between atoms: _32  and  _33
REMARK    6  A    between atoms: _38  and  _43
REMARK    7  A    between atoms: _43  and  _46
REMARK    8  A    between atoms: _53  and  _55
REMARK                            x       y       z     vdW  Elec       q    Type
REMARK                         _______ _______ _______ _____ _____    ______ ____
ROOT
ATOM     10  C   UNL     1     -10.214  23.454  24.643  0.00  0.00    +0.038 A 
ATOM     11  C   UNL     1     -10.026  22.361  25.526  0.00  0.00    +0.047 A 
ATOM     12  C   UNL     1      -9.575  21.067  25.037  0.00  0.00    +0.035 A 
ATOM     32  C   UNL     1      -9.322  20.923  23.642  0.00  0.00    +0.024 A 
ATOM     33  C   UNL     1      -9.510  22.024  22.729  0.00  0.00    +0.007 A 
ATOM     34  C   UNL     1      -9.957  23.301  23.206  0.00  0.00    -0.029 A 
ATOM     35  C   UNL     1     -10.147  24.444  22.181  0.00  0.00    +0.045 C 
ENDROOT
BRANCH  10   9
ATOM      4  C   UNL     1     -13.653  26.659  25.615  0.00  0.00    +0.077 A 
ATOM      5  C   UNL     1     -14.665  25.846  25.003  0.00  0.00    +0.048 A 
ATOM      6  C   UNL     1     -14.258  24.614  24.444  0.00  0.00    +0.116 A 
ATOM      7  N   UNL     1     -12.935  24.233  24.498  0.00  0.00    -0.223 NA
ATOM      8  C   UNL     1     -11.984  25.041  25.094  0.00  0.00    +0.220 A 
ATOM      9  N   UNL     1     -10.649  24.674  25.167  0.00  0.00    -0.283 N 
ATOM     36  H   UNL     1      -9.977  25.301  25.608  0.00  0.00    +0.155 HD
ATOM     37  N   UNL     1     -12.347  26.223  25.634  0.00  0.00    -0.214 NA
BRANCH   4   3
ATOM      1  C   UNL     1     -15.081  30.227  26.342  0.00  0.00    +0.020 A 
ATOM      2  C   UNL     1     -14.851  28.960  25.687  0.00  0.00    +0.013 A 
ATOM      3  C   UNL     1     -13.927  27.985  26.252  0.00  0.00    +0.019 A 
ATOM     38  C   UNL     1     -13.246  28.326  27.492  0.00  0.00    +0.120 A 
ATOM     39  N   UNL     1     -13.485  29.554  28.100  0.00  0.00    -0.263 NA
ATOM     40  C   UNL     1     -14.371  30.501  27.564  0.00  0.00    +0.111 A 
ENDBRANCH   4   3
ENDBRANCH  10   9
BRANCH  12  13
ATOM     13  N   UNL     1      -9.373  19.919  25.885  0.00  0.00    -0.281 N 
ATOM     14  C   UNL     1      -9.884  18.641  25.724  0.00  0.00    +0.248 C 
ATOM     30  O   UNL     1     -10.770  18.345  24.936  0.00  0.00    -0.270 OA
ATOM     31  H   UNL     1      -8.783  20.065  26.704  0.00  0.00    +0.155 HD
BRANCH  14  15
ATOM     15  C   UNL     1      -9.341  17.535  26.571  0.00  0.00    +0.037 A 
ATOM     16  C   UNL     1     -10.167  16.380  26.933  0.00  0.00    +0.013 A 
ATOM     17  C   UNL     1      -9.625  15.335  27.765  0.00  0.00    +0.005 A 
ATOM     18  C   UNL     1      -8.247  15.440  28.239  0.00  0.00    -0.033 A 
ATOM     28  C   UNL     1      -7.448  16.594  27.860  0.00  0.00    +0.005 A 
ATOM     29  C   UNL     1      -7.977  17.620  27.046  0.00  0.00    +0.013 A 
BRANCH  18  19
ATOM     19  C   UNL     1      -7.593  14.383  29.148  0.00  0.00    +0.119 C 
BRANCH  19  20
ATOM     20  N   UNL     1      -6.156  14.061  28.898  0.00  0.00    -0.302 NA
ATOM     21  C   UNL     1      -5.984  13.046  27.764  0.00  0.00    +0.066 C 
ATOM     22  C   UNL     1      -4.474  12.737  27.501  0.00  0.00    -0.064 C 
ATOM     23  N   UNL     1      -3.829  12.225  28.790  0.00  0.00    +0.379 N 
ATOM     24  C   UNL     1      -2.423  11.879  28.531  0.00  0.00    -0.096 C 
ATOM     25  H   UNL     1      -4.359  11.289  29.084  0.00  0.00    -0.082 HD
ATOM     26  C   UNL     1      -3.998  13.227  29.923  0.00  0.00    -0.064 C 
ATOM     27  C   UNL     1      -5.500  13.549  30.157  0.00  0.00    +0.066 C 
ENDBRANCH  19  20
ENDBRANCH  18  19
ENDBRANCH  14  15
ENDBRANCH  12  13
TORSDOF 6
ENDMDL
