MODEL 1
REMARK VINA RESULT:     -11.8      0.000      0.000
REMARK  Name = C:\Users\Docking\Desktop\test protocol\1iep_ligandH.pdb
REMARK  8 active torsions:
REMARK  status: ('A' for Active; 'I' for Inactive)
REMARK    1  A    between atoms: _5  and  _11
REMARK    2  A    between atoms: _19  and  _21
REMARK    3  A    between atoms: _22  and  _66
REMARK    4  A    between atoms: _27  and  _30
REMARK    5  A    between atoms: _32  and  _33
REMARK    6  A    between atoms: _38  and  _43
REMARK    7  A    between atoms: _43  and  _46
REMARK    8  A    between atoms: _53  and  _55
REMARK                            x       y       z     vdW  Elec       q    Type
REMARK                         _______ _______ _______ _____ _____    ______ ____
ROOT
ATOM     10  C   UNL     1      27.220  28.171   4.184  0.00  0.00    +0.038 A 
ATOM     11  C   UNL     1      27.934  28.549   5.350  0.00  0.00    +0.047 A 
ATOM     12  C   UNL     1      27.242  28.819   6.601  0.00  0.00    +0.035 A 
ATOM     32  C   UNL     1      25.822  28.692   6.629  0.00  0.00    +0.024 A 
ATOM     33  C   UNL     1      25.081  28.310   5.453  0.00  0.00    +0.007 A 
ATOM     34  C   UNL     1      25.758  28.045   4.215  0.00  0.00    -0.029 A 
ATOM     35  C   UNL     1      24.912  27.645   2.984  0.00  0.00    +0.045 C 
ENDROOT
BRANCH  10   9
ATOM      4  C   UNL     1      29.421  29.638   0.179  0.00  0.00    +0.077 A 
ATOM      5  C   UNL     1      29.096  31.012   0.433  0.00  0.00    +0.048 A 
ATOM      6  C   UNL     1      28.355  31.298   1.602  0.00  0.00    +0.116 A 
ATOM      7  N   UNL     1      27.973  30.278   2.446  0.00  0.00    -0.223 NA
ATOM      8  C   UNL     1      28.302  28.964   2.171  0.00  0.00    +0.220 A 
ATOM      9  N   UNL     1      27.935  27.923   3.010  0.00  0.00    -0.283 N 
ATOM     36  H   UNL     1      28.191  26.966   2.768  0.00  0.00    +0.155 HD
ATOM     37  N   UNL     1      29.008  28.665   1.060  0.00  0.00    -0.214 NA
BRANCH   4   3
ATOM      1  C   UNL     1      31.684  27.525  -2.212  0.00  0.00    +0.020 A 
ATOM      2  C   UNL     1      30.946  27.924  -1.035  0.00  0.00    +0.013 A 
ATOM      3  C   UNL     1      30.202  29.177  -1.012  0.00  0.00    +0.019 A 
ATOM     38  C   UNL     1      30.224  30.009  -2.206  0.00  0.00    +0.120 A 
ATOM     39  N   UNL     1      30.944  29.599  -3.324  0.00  0.00    -0.263 NA
ATOM     40  C   UNL     1      31.665  28.397  -3.357  0.00  0.00    +0.111 A 
ENDBRANCH   4   3
ENDBRANCH  10   9
BRANCH  12  13
ATOM     13  N   UNL     1      27.912  29.215   7.815  0.00  0.00    -0.281 N 
ATOM     14  C   UNL     1      27.814  28.635   9.069  0.00  0.00    +0.248 C 
ATOM     30  O   UNL     1      26.966  27.815   9.387  0.00  0.00    -0.270 OA
ATOM     31  H   UNL     1      28.534  30.019   7.741  0.00  0.00    +0.155 HD
BRANCH  14  15
ATOM     15  C   UNL     1      28.790  29.035  10.128  0.00  0.00    +0.037 A 
ATOM     16  C   UNL     1      28.355  29.306  11.500  0.00  0.00    +0.013 A 
ATOM     17  C   UNL     1      29.315  29.706  12.498  0.00  0.00    +0.005 A 
ATOM     18  C   UNL     1      30.722  29.837  12.126  0.00  0.00    -0.033 A 
ATOM     28  C   UNL     1      31.127  29.557  10.759  0.00  0.00    +0.005 A 
ATOM     29  C   UNL     1      30.189  29.165   9.778  0.00  0.00    +0.013 A 
BRANCH  18  19
ATOM     19  C   UNL     1      31.812  30.280  13.121  0.00  0.00    +0.119 C 
BRANCH  19  20
ATOM     20  N   UNL     1      32.183  29.318  14.201  0.00  0.00    -0.302 NA
ATOM     21  C   UNL     1      33.196  29.917  15.180  0.00  0.00    +0.066 C 
ATOM     22  C   UNL     1      33.556  28.906  16.317  0.00  0.00    -0.064 C 
ATOM     23  N   UNL     1      34.100  27.618  15.696  0.00  0.00    +0.379 N 
ATOM     24  C   UNL     1      34.493  26.687  16.763  0.00  0.00    -0.096 C 
ATOM     25  H   UNL     1      35.018  27.881  15.121  0.00  0.00    -0.082 HD
ATOM     26  C   UNL     1      33.100  27.017  14.719  0.00  0.00    -0.064 C 
ATOM     27  C   UNL     1      32.726  28.040  13.610  0.00  0.00    +0.066 C 
ENDBRANCH  19  20
ENDBRANCH  18  19
ENDBRANCH  14  15
ENDBRANCH  12  13
TORSDOF 6
ENDMDL
MODEL 2
REMARK VINA RESULT:     -11.6      1.986     12.347
REMARK  Name = C:\Users\Docking\Desktop\test protocol\1iep_ligandH.pdb
REMARK  8 active torsions:
REMARK  status: ('A' for Active; 'I' for Inactive)
REMARK    1  A    between atoms: _5  and  _11
REMARK    2  A    between atoms: _19  and  _21
REMARK    3  A    between atoms: _22  and  _66
REMARK    4  A    between atoms: _27  and  _30
REMARK    5  A    between atoms: _32  and  _33
REMARK    6  A    between atoms: _38  and  _43
REMARK    7  A    between atoms: _43  and  _46
REMARK    8  A    between atoms: _53  and  _55
REMARK                            x       y       z     vdW  Elec       q    Type
REMARK                         _______ _______ _______ _____ _____    ______ ____
ROOT
ATOM     10  C   UNL     1      27.731  27.165  11.053  0.00  0.00    +0.038 A 
ATOM     11  C   UNL     1      27.988  27.366   9.673  0.00  0.00    +0.047 A 
ATOM     12  C   UNL     1      26.914  27.693   8.748  0.00  0.00    +0.035 A 
ATOM     32  C   UNL     1      25.591  27.811   9.263  0.00  0.00    +0.024 A 
ATOM     33  C   UNL     1      25.312  27.609  10.663  0.00  0.00    +0.007 A 
ATOM     34  C   UNL     1      26.366  27.284  11.580  0.00  0.00    -0.029 A 
ATOM     35  C   UNL     1      26.008  27.072  13.070  0.00  0.00    +0.045 C 
ENDROOT
BRANCH  10   9
ATOM      4  C   UNL     1      31.460  28.420  13.803  0.00  0.00    +0.077 A 
ATOM      5  C   UNL     1      31.280  29.814  13.513  0.00  0.00    +0.048 A 
ATOM      6  C   UNL     1      30.221  30.165  12.646  0.00  0.00    +0.116 A 
ATOM      7  N   UNL     1      29.408  29.187  12.115  0.00  0.00    -0.223 NA
ATOM      8  C   UNL     1      29.610  27.852  12.413  0.00  0.00    +0.220 A 
ATOM      9  N   UNL     1      28.800  26.853  11.897  0.00  0.00    -0.283 N 
ATOM     36  H   UNL     1      28.986  25.879  12.135  0.00  0.00    +0.155 HD
ATOM     37  N   UNL     1      30.616  27.491  13.237  0.00  0.00    -0.214 NA
BRANCH   4   3
ATOM      1  C   UNL     1      34.324  26.221  15.306  0.00  0.00    +0.020 A 
ATOM      2  C   UNL     1      33.299  26.689  14.402  0.00  0.00    +0.013 A 
ATOM      3  C   UNL     1      32.533  27.892  14.703  0.00  0.00    +0.019 A 
ATOM     38  C   UNL     1      32.833  28.604  15.936  0.00  0.00    +0.120 A 
ATOM     39  N   UNL     1      33.825  28.130  16.788  0.00  0.00    -0.263 NA
ATOM     40  C   UNL     1      34.567  26.972  16.509  0.00  0.00    +0.111 A 
ENDBRANCH   4   3
ENDBRANCH  10   9
BRANCH  12  13
ATOM     13  N   UNL     1      27.113  27.900   7.335  0.00  0.00    -0.281 N 
ATOM     14  C   UNL     1      26.155  28.157   6.368  0.00  0.00    +0.248 C 
ATOM     30  O   UNL     1      24.951  28.036   6.540  0.00  0.00    -0.270 OA
ATOM     31  H   UNL     1      28.078  27.851   7.007  0.00  0.00    +0.155 HD
BRANCH  14  15
ATOM     15  C   UNL     1      26.598  28.599   5.011  0.00  0.00    +0.037 A 
ATOM     16  C   UNL     1      27.832  29.367   4.827  0.00  0.00    +0.013 A 
ATOM     17  C   UNL     1      28.228  29.795   3.509  0.00  0.00    +0.005 A 
ATOM     18  C   UNL     1      27.388  29.455   2.363  0.00  0.00    -0.033 A 
ATOM     28  C   UNL     1      26.171  28.688   2.574  0.00  0.00    +0.005 A 
ATOM     29  C   UNL     1      25.780  28.267   3.864  0.00  0.00    +0.013 A 
BRANCH  18  19
ATOM     19  C   UNL     1      27.721  29.889   0.924  0.00  0.00    +0.119 C 
BRANCH  19  20
ATOM     20  N   UNL     1      29.138  29.741   0.476  0.00  0.00    -0.302 NA
ATOM     21  C   UNL     1      29.855  31.091   0.382  0.00  0.00    +0.066 C 
ATOM     22  C   UNL     1      31.343  30.915  -0.066  0.00  0.00    -0.064 C 
ATOM     23  N   UNL     1      31.385  30.185  -1.409  0.00  0.00    +0.379 N 
ATOM     24  C   UNL     1      32.780  30.070  -1.861  0.00  0.00    -0.096 C 
ATOM     25  H   UNL     1      30.839  30.812  -2.152  0.00  0.00    -0.082 HD
ATOM     26  C   UNL     1      30.672  28.843  -1.326  0.00  0.00    -0.064 C 
ATOM     27  C   UNL     1      29.203  29.026  -0.851  0.00  0.00    +0.066 C 
ENDBRANCH  19  20
ENDBRANCH  18  19
ENDBRANCH  14  15
ENDBRANCH  12  13
TORSDOF 6
ENDMDL
MODEL 3
REMARK VINA RESULT:     -11.5      3.487     13.160
REMARK  Name = C:\Users\Docking\Desktop\test protocol\1iep_ligandH.pdb
REMARK  8 active torsions:
REMARK  status: ('A' for Active; 'I' for Inactive)
REMARK    1  A    between atoms: _5  and  _11
REMARK    2  A    between atoms: _19  and  _21
REMARK    3  A    between atoms: _22  and  _66
REMARK    4  A    between atoms: _27  and  _30
REMARK    5  A    between atoms: _32  and  _33
REMARK    6  A    between atoms: _38  and  _43
REMARK    7  A    between atoms: _43  and  _46
REMARK    8  A    between atoms: _53  and  _55
REMARK                            x       y       z     vdW  Elec       q    Type
REMARK                         _______ _______ _______ _____ _____    ______ ____
ROOT
ATOM     10  C   UNL     1      32.044  26.655  15.409  0.00  0.00    +0.038 A 
ATOM     11  C   UNL     1      31.122  27.017  14.393  0.00  0.00    +0.047 A 
ATOM     12  C   UNL     1      30.363  26.008  13.671  0.00  0.00    +0.035 A 
ATOM     32  C   UNL     1      30.565  24.639  14.011  0.00  0.00    +0.024 A 
ATOM     33  C   UNL     1      31.498  24.253  15.040  0.00  0.00    +0.007 A 
ATOM     34  C   UNL     1      32.252  25.243  15.754  0.00  0.00    -0.029 A 
ATOM     35  C   UNL     1      33.244  24.771  16.842  0.00  0.00    +0.045 C 
ENDROOT
BRANCH  10   9
ATOM      4  C   UNL     1      33.715  31.144  15.718  0.00  0.00    +0.077 A 
ATOM      5  C   UNL     1      33.165  31.499  14.442  0.00  0.00    +0.048 A 
ATOM      6  C   UNL     1      32.465  30.496  13.734  0.00  0.00    +0.116 A 
ATOM      7  N   UNL     1      32.331  29.235  14.273  0.00  0.00    -0.223 NA
ATOM      8  C   UNL     1      32.875  28.924  15.506  0.00  0.00    +0.220 A 
ATOM      9  N   UNL     1      32.746  27.665  16.070  0.00  0.00    -0.283 N 
ATOM     36  H   UNL     1      33.168  27.473  16.978  0.00  0.00    +0.155 HD
ATOM     37  N   UNL     1      33.549  29.864  16.200  0.00  0.00    -0.214 NA
BRANCH   4   3
ATOM      1  C   UNL     1      36.440  32.703  18.051  0.00  0.00    +0.020 A 
ATOM      2  C   UNL     1      35.743  31.747  17.222  0.00  0.00    +0.013 A 
ATOM      3  C   UNL     1      34.478  32.095  16.587  0.00  0.00    +0.019 A 
ATOM     38  C   UNL     1      33.942  33.428  16.812  0.00  0.00    +0.120 A 
ATOM     39  N   UNL     1      34.634  34.327  17.617  0.00  0.00    -0.263 NA
ATOM     40  C   UNL     1      35.852  34.003  18.235  0.00  0.00    +0.111 A 
ENDBRANCH   4   3
ENDBRANCH  10   9
BRANCH  12  13
ATOM     13  N   UNL     1      29.419  26.316  12.625  0.00  0.00    -0.281 N 
ATOM     14  C   UNL     1      28.036  26.326  12.702  0.00  0.00    +0.248 C 
ATOM     30  O   UNL     1      27.392  25.862  13.631  0.00  0.00    -0.270 OA
ATOM     31  H   UNL     1      29.820  26.555  11.718  0.00  0.00    +0.155 HD
BRANCH  14  15
ATOM     15  C   UNL     1      27.255  26.926  11.577  0.00  0.00    +0.037 A 
ATOM     16  C   UNL     1      25.838  27.263  11.732  0.00  0.00    +0.013 A 
ATOM     17  C   UNL     1      25.103  27.825  10.626  0.00  0.00    +0.005 A 
ATOM     18  C   UNL     1      25.787  28.055   9.355  0.00  0.00    -0.033 A 
ATOM     28  C   UNL     1      27.195  27.716   9.231  0.00  0.00    +0.005 A 
ATOM     29  C   UNL     1      27.918  27.165  10.313  0.00  0.00    +0.013 A 
BRANCH  18  19
ATOM     19  C   UNL     1      25.077  28.631   8.116  0.00  0.00    +0.119 C 
BRANCH  19  20
ATOM     20  N   UNL     1      25.655  28.297   6.780  0.00  0.00    -0.302 NA
ATOM     21  C   UNL     1      26.724  29.306   6.349  0.00  0.00    +0.066 C 
ATOM     22  C   UNL     1      27.334  28.929   4.959  0.00  0.00    -0.064 C 
ATOM     23  N   UNL     1      26.215  28.847   3.919  0.00  0.00    +0.379 N 
ATOM     24  C   UNL     1      26.792  28.550   2.600  0.00  0.00    -0.096 C 
ATOM     25  H   UNL     1      25.734  29.851   3.860  0.00  0.00    -0.082 HD
ATOM     26  C   UNL     1      25.146  27.849   4.342  0.00  0.00    -0.064 C 
ATOM     27  C   UNL     1      24.568  28.216   5.737  0.00  0.00    +0.066 C 
ENDBRANCH  19  20
ENDBRANCH  18  19
ENDBRANCH  14  15
ENDBRANCH  12  13
TORSDOF 6
ENDMDL
MODEL 4
REMARK VINA RESULT:     -11.4      1.609      1.916
REMARK  Name = C:\Users\Docking\Desktop\test protocol\1iep_ligandH.pdb
REMARK  8 active torsions:
REMARK  status: ('A' for Active; 'I' for Inactive)
REMARK    1  A    between atoms: _5  and  _11
REMARK    2  A    between atoms: _19  and  _21
REMARK    3  A    between atoms: _22  and  _66
REMARK    4  A    between atoms: _27  and  _30
REMARK    5  A    between atoms: _32  and  _33
REMARK    6  A    between atoms: _38  and  _43
REMARK    7  A    between atoms: _43  and  _46
REMARK    8  A    between atoms: _53  and  _55
REMARK                            x       y       z     vdW  Elec       q    Type
REMARK                         _______ _______ _______ _____ _____    ______ ____
ROOT
ATOM     10  C   UNL     1      27.218  28.019   3.923  0.00  0.00    +0.038 A 
ATOM     11  C   UNL     1      28.001  28.207   5.091  0.00  0.00    +0.047 A 
ATOM     12  C   UNL     1      27.378  28.384   6.394  0.00  0.00    +0.035 A 
ATOM     32  C   UNL     1      25.955  28.363   6.471  0.00  0.00    +0.024 A 
ATOM     33  C   UNL     1      25.144  28.175   5.294  0.00  0.00    +0.007 A 
ATOM     34  C   UNL     1      25.753  28.001   4.006  0.00  0.00    -0.029 A 
ATOM     35  C   UNL     1      24.834  27.810   2.777  0.00  0.00    +0.045 C 
ENDROOT
BRANCH  10   9
ATOM      4  C   UNL     1      29.503  29.754   0.075  0.00  0.00    +0.077 A 
ATOM      5  C   UNL     1      29.365  31.108   0.530  0.00  0.00    +0.048 A 
ATOM      6  C   UNL     1      28.694  31.315   1.756  0.00  0.00    +0.116 A 
ATOM      7  N   UNL     1      28.201  30.241   2.466  0.00  0.00    -0.223 NA
ATOM      8  C   UNL     1      28.349  28.949   1.997  0.00  0.00    +0.220 A 
ATOM      9  N   UNL     1      27.869  27.854   2.698  0.00  0.00    -0.283 N 
ATOM     36  H   UNL     1      27.991  26.916   2.316  0.00  0.00    +0.155 HD
ATOM     37  N   UNL     1      28.985  28.725   0.829  0.00  0.00    -0.214 NA
BRANCH   4   3
ATOM      1  C   UNL     1      31.598  27.820  -2.602  0.00  0.00    +0.020 A 
ATOM      2  C   UNL     1      30.954  28.141  -1.350  0.00  0.00    +0.013 A 
ATOM      3  C   UNL     1      30.190  29.373  -1.199  0.00  0.00    +0.019 A 
ATOM     38  C   UNL     1      30.096  30.266  -2.345  0.00  0.00    +0.120 A 
ATOM     39  N   UNL     1      30.728  29.931  -3.538  0.00  0.00    -0.263 NA
ATOM     40  C   UNL     1      31.467  28.749  -3.694  0.00  0.00    +0.111 A 
ENDBRANCH   4   3
ENDBRANCH  10   9
BRANCH  12  13
ATOM     13  N   UNL     1      28.121  28.586   7.613  0.00  0.00    -0.281 N 
ATOM     14  C   UNL     1      27.889  29.525   8.606  0.00  0.00    +0.248 C 
ATOM     30  O   UNL     1      27.133  30.478   8.493  0.00  0.00    -0.270 OA
ATOM     31  H   UNL     1      28.913  27.962   7.763  0.00  0.00    +0.155 HD
BRANCH  14  15
ATOM     15  C   UNL     1      28.614  29.394   9.906  0.00  0.00    +0.037 A 
ATOM     16  C   UNL     1      30.073  29.505   9.977  0.00  0.00    +0.013 A 
ATOM     17  C   UNL     1      30.749  29.357  11.242  0.00  0.00    +0.005 A 
ATOM     18  C   UNL     1      29.964  29.099  12.447  0.00  0.00    -0.033 A 
ATOM     28  C   UNL     1      28.518  28.999  12.349  0.00  0.00    +0.005 A 
ATOM     29  C   UNL     1      27.852  29.142  11.111  0.00  0.00    +0.013 A 
BRANCH  18  19
ATOM     19  C   UNL     1      30.603  28.907  13.836  0.00  0.00    +0.119 C 
BRANCH  19  20
ATOM     20  N   UNL     1      30.299  27.636  14.558  0.00  0.00    -0.302 NA
ATOM     21  C   UNL     1      31.186  27.451  15.793  0.00  0.00    +0.066 C 
ATOM     22  C   UNL     1      30.839  26.128  16.550  0.00  0.00    -0.064 C 
ATOM     23  N   UNL     1      30.988  24.943  15.594  0.00  0.00    +0.379 N 
ATOM     24  C   UNL     1      30.720  23.692  16.317  0.00  0.00    -0.096 C 
ATOM     25  H   UNL     1      32.050  24.915  15.253  0.00  0.00    -0.082 HD
ATOM     26  C   UNL     1      30.112  25.120  14.361  0.00  0.00    -0.064 C 
ATOM     27  C   UNL     1      30.445  26.452  13.634  0.00  0.00    +0.066 C 
ENDBRANCH  19  20
ENDBRANCH  18  19
ENDBRANCH  14  15
ENDBRANCH  12  13
TORSDOF 6
ENDMDL
MODEL 5
REMARK VINA RESULT:     -11.3      5.120     14.824
REMARK  Name = C:\Users\Docking\Desktop\test protocol\1iep_ligandH.pdb
REMARK  8 active torsions:
REMARK  status: ('A' for Active; 'I' for Inactive)
REMARK    1  A    between atoms: _5  and  _11
REMARK    2  A    between atoms: _19  and  _21
REMARK    3  A    between atoms: _22  and  _66
REMARK    4  A    between atoms: _27  and  _30
REMARK    5  A    between atoms: _32  and  _33
REMARK    6  A    between atoms: _38  and  _43
REMARK    7  A    between atoms: _43  and  _46
REMARK    8  A    between atoms: _53  and  _55
REMARK                            x       y       z     vdW  Elec       q    Type
REMARK                         _______ _______ _______ _____ _____    ______ ____
ROOT
ATOM     10  C   UNL     1      34.231  30.780  17.068  0.00  0.00    +0.038 A 
ATOM     11  C   UNL     1      33.710  30.377  15.812  0.00  0.00    +0.047 A 
ATOM     12  C   UNL     1      33.257  31.356  14.836  0.00  0.00    +0.035 A 
ATOM     32  C   UNL     1      33.352  32.738  15.171  0.00  0.00    +0.024 A 
ATOM     33  C   UNL     1      33.878  33.165  16.444  0.00  0.00    +0.007 A 
ATOM     34  C   UNL     1      34.324  32.204  17.411  0.00  0.00    -0.029 A 
ATOM     35  C   UNL     1      34.873  32.720  18.762  0.00  0.00    +0.045 C 
ENDROOT
BRANCH  10   9
ATOM      4  C   UNL     1      34.168  26.292  18.769  0.00  0.00    +0.077 A 
ATOM      5  C   UNL     1      33.194  25.876  17.801  0.00  0.00    +0.048 A 
ATOM      6  C   UNL     1      32.730  26.849  16.888  0.00  0.00    +0.116 A 
ATOM      7  N   UNL     1      33.211  28.139  16.947  0.00  0.00    -0.223 NA
ATOM      8  C   UNL     1      34.149  28.508  17.894  0.00  0.00    +0.220 A 
ATOM      9  N   UNL     1      34.652  29.798  17.967  0.00  0.00    -0.283 N 
ATOM     36  H   UNL     1      35.337  30.032  18.685  0.00  0.00    +0.155 HD
ATOM     37  N   UNL     1      34.606  27.598  18.779  0.00  0.00    -0.214 NA
BRANCH   4   3
ATOM      1  C   UNL     1      36.710  24.297  20.973  0.00  0.00    +0.020 A 
ATOM      2  C   UNL     1      36.193  25.191  19.962  0.00  0.00    +0.013 A 
ATOM      3  C   UNL     1      34.757  25.379  19.799  0.00  0.00    +0.019 A 
ATOM     38  C   UNL     1      33.864  24.644  20.682  0.00  0.00    +0.120 A 
ATOM     39  N   UNL     1      34.391  23.789  21.645  0.00  0.00    -0.263 NA
ATOM     40  C   UNL     1      35.771  23.598  21.810  0.00  0.00    +0.111 A 
ENDBRANCH   4   3
ENDBRANCH  10   9
BRANCH  12  13
ATOM     13  N   UNL     1      32.712  31.006  13.548  0.00  0.00    -0.281 N 
ATOM     14  C   UNL     1      32.416  29.742  13.063  0.00  0.00    +0.248 C 
ATOM     30  O   UNL     1      32.778  28.699  13.587  0.00  0.00    -0.270 OA
ATOM     31  H   UNL     1      32.520  31.784  12.917  0.00  0.00    +0.155 HD
BRANCH  14  15
ATOM     15  C   UNL     1      31.616  29.619  11.807  0.00  0.00    +0.037 A 
ATOM     16  C   UNL     1      30.188  29.294  11.845  0.00  0.00    +0.013 A 
ATOM     17  C   UNL     1      29.443  29.165  10.618  0.00  0.00    +0.005 A 
ATOM     18  C   UNL     1      30.125  29.363   9.341  0.00  0.00    -0.033 A 
ATOM     28  C   UNL     1      31.541  29.691   9.333  0.00  0.00    +0.005 A 
ATOM     29  C   UNL     1      32.275  29.817  10.534  0.00  0.00    +0.013 A 
BRANCH  18  19
ATOM     19  C   UNL     1      29.414  29.224   7.982  0.00  0.00    +0.119 C 
BRANCH  19  20
ATOM     20  N   UNL     1      27.936  29.011   8.003  0.00  0.00    -0.302 NA
ATOM     21  C   UNL     1      27.445  28.272   6.755  0.00  0.00    +0.066 C 
ATOM     22  C   UNL     1      25.900  28.037   6.803  0.00  0.00    -0.064 C 
ATOM     23  N   UNL     1      25.187  29.382   6.951  0.00  0.00    +0.379 N 
ATOM     24  C   UNL     1      23.732  29.170   6.939  0.00  0.00    -0.096 C 
ATOM     25  H   UNL     1      25.446  30.002   6.062  0.00  0.00    -0.082 HD
ATOM     26  C   UNL     1      25.671  30.125   8.189  0.00  0.00    -0.064 C 
ATOM     27  C   UNL     1      27.212  30.327   8.144  0.00  0.00    +0.066 C 
ENDBRANCH  19  20
ENDBRANCH  18  19
ENDBRANCH  14  15
ENDBRANCH  12  13
TORSDOF 6
ENDMDL
