MODEL 1
REMARK VINA RESULT:      -8.2      0.000      0.000
REMARK  Name = C:\Users\Docking\Desktop\test protocol\1iep_ligandH.pdb
REMARK  8 active torsions:
REMARK  status: ('A' for Active; 'I' for Inactive)
REMARK    1  A    between atoms: _5  and  _11
REMARK    2  A    between atoms: _19  and  _21
REMARK    3  A    between atoms: _22  and  _66
REMARK    4  A    between atoms: _27  and  _30
REMARK    5  A    between atoms: _32  and  _33
REMARK    6  A    between atoms: _38  and  _43
REMARK    7  A    between atoms: _43  and  _46
REMARK    8  A    between atoms: _53  and  _55
REMARK                            x       y       z     vdW  Elec       q    Type
REMARK                         _______ _______ _______ _____ _____    ______ ____
ROOT
ATOM     10  C   UNL     1      19.480  60.555   8.004  0.00  0.00    +0.038 A 
ATOM     11  C   UNL     1      20.623  60.834   7.212  0.00  0.00    +0.047 A 
ATOM     12  C   UNL     1      21.467  59.763   6.705  0.00  0.00    +0.035 A 
ATOM     32  C   UNL     1      21.115  58.418   7.022  0.00  0.00    +0.024 A 
ATOM     33  C   UNL     1      19.957  58.117   7.826  0.00  0.00    +0.007 A 
ATOM     34  C   UNL     1      19.123  59.170   8.331  0.00  0.00    -0.029 A 
ATOM     35  C   UNL     1      17.897  58.789   9.194  0.00  0.00    +0.045 C 
ENDROOT
BRANCH  10   9
ATOM      4  C   UNL     1      18.254  63.755  11.365  0.00  0.00    +0.077 A 
ATOM      5  C   UNL     1      19.220  63.239  12.292  0.00  0.00    +0.048 A 
ATOM      6  C   UNL     1      20.008  62.145  11.868  0.00  0.00    +0.116 A 
ATOM      7  N   UNL     1      19.834  61.615  10.608  0.00  0.00    -0.223 NA
ATOM      8  C   UNL     1      18.892  62.135   9.739  0.00  0.00    +0.220 A 
ATOM      9  N   UNL     1      18.706  61.622   8.464  0.00  0.00    -0.283 N 
ATOM     36  H   UNL     1      17.996  62.029   7.856  0.00  0.00    +0.155 HD
ATOM     37  N   UNL     1      18.127  63.178  10.121  0.00  0.00    -0.214 NA
BRANCH   4   3
ATOM      1  C   UNL     1      15.102  65.897  12.244  0.00  0.00    +0.020 A 
ATOM      2  C   UNL     1      15.932  64.749  11.960  0.00  0.00    +0.013 A 
ATOM      3  C   UNL     1      17.350  64.909  11.666  0.00  0.00    +0.019 A 
ATOM     38  C   UNL     1      17.903  66.255  11.668  0.00  0.00    +0.120 A 
ATOM     39  N   UNL     1      17.079  67.343  11.944  0.00  0.00    -0.263 NA
ATOM     40  C   UNL     1      15.712  67.201  12.227  0.00  0.00    +0.111 A 
ENDBRANCH   4   3
ENDBRANCH  10   9
BRANCH  12  13
ATOM     13  N   UNL     1      22.644  59.985   5.903  0.00  0.00    -0.281 N 
ATOM     14  C   UNL     1      22.721  60.558   4.644  0.00  0.00    +0.248 C 
ATOM     30  O   UNL     1      21.759  60.773   3.922  0.00  0.00    -0.270 OA
ATOM     31  H   UNL     1      23.528  59.683   6.313  0.00  0.00    +0.155 HD
BRANCH  14  15
ATOM     15  C   UNL     1      24.063  60.933   4.102  0.00  0.00    +0.037 A 
ATOM     16  C   UNL     1      24.603  62.283   4.277  0.00  0.00    +0.013 A 
ATOM     17  C   UNL     1      25.892  62.623   3.730  0.00  0.00    +0.005 A 
ATOM     18  C   UNL     1      26.652  61.609   3.003  0.00  0.00    -0.033 A 
ATOM     28  C   UNL     1      26.095  60.275   2.848  0.00  0.00    +0.005 A 
ATOM     29  C   UNL     1      24.831  59.939   3.383  0.00  0.00    +0.013 A 
BRANCH  18  19
ATOM     19  C   UNL     1      28.026  61.889   2.367  0.00  0.00    +0.119 C 
BRANCH  19  20
ATOM     20  N   UNL     1      28.905  62.886   3.049  0.00  0.00    -0.302 NA
ATOM     21  C   UNL     1      29.324  64.020   2.109  0.00  0.00    +0.066 C 
ATOM     22  C   UNL     1      30.223  65.066   2.845  0.00  0.00    -0.064 C 
ATOM     23  N   UNL     1      31.451  64.360   3.423  0.00  0.00    +0.379 N 
ATOM     24  C   UNL     1      32.328  65.350   4.066  0.00  0.00    -0.096 C 
ATOM     25  H   UNL     1      32.014  63.910   2.573  0.00  0.00    -0.082 HD
ATOM     26  C   UNL     1      31.044  63.229   4.357  0.00  0.00    -0.064 C 
ATOM     27  C   UNL     1      30.125  62.211   3.624  0.00  0.00    +0.066 C 
ENDBRANCH  19  20
ENDBRANCH  18  19
ENDBRANCH  14  15
ENDBRANCH  12  13
TORSDOF 6
ENDMDL
MODEL 2
REMARK VINA RESULT:      -7.5     15.429     19.321
REMARK  Name = C:\Users\Docking\Desktop\test protocol\1iep_ligandH.pdb
REMARK  8 active torsions:
REMARK  status: ('A' for Active; 'I' for Inactive)
REMARK    1  A    between atoms: _5  and  _11
REMARK    2  A    between atoms: _19  and  _21
REMARK    3  A    between atoms: _22  and  _66
REMARK    4  A    between atoms: _27  and  _30
REMARK    5  A    between atoms: _32  and  _33
REMARK    6  A    between atoms: _38  and  _43
REMARK    7  A    between atoms: _43  and  _46
REMARK    8  A    between atoms: _53  and  _55
REMARK                            x       y       z     vdW  Elec       q    Type
REMARK                         _______ _______ _______ _____ _____    ______ ____
ROOT
ATOM     10  C   UNL     1      37.147  64.737   1.978  0.00  0.00    +0.038 A 
ATOM     11  C   UNL     1      36.868  63.684   1.070  0.00  0.00    +0.047 A 
ATOM     12  C   UNL     1      35.651  63.682   0.272  0.00  0.00    +0.035 A 
ATOM     32  C   UNL     1      34.742  64.769   0.423  0.00  0.00    +0.024 A 
ATOM     33  C   UNL     1      35.010  65.847   1.343  0.00  0.00    +0.007 A 
ATOM     34  C   UNL     1      36.207  65.853   2.134  0.00  0.00    -0.029 A 
ATOM     35  C   UNL     1      36.439  67.031   3.109  0.00  0.00    +0.045 C 
ENDROOT
BRANCH  10   9
ATOM      4  C   UNL     1      41.810  65.704   2.574  0.00  0.00    +0.077 A 
ATOM      5  C   UNL     1      41.904  66.336   1.289  0.00  0.00    +0.048 A 
ATOM      6  C   UNL     1      40.731  66.384   0.503  0.00  0.00    +0.116 A 
ATOM      7  N   UNL     1      39.557  65.839   0.977  0.00  0.00    -0.223 NA
ATOM      8  C   UNL     1      39.502  65.236   2.220  0.00  0.00    +0.220 A 
ATOM      9  N   UNL     1      38.330  64.689   2.719  0.00  0.00    -0.283 N 
ATOM     36  H   UNL     1      38.332  64.246   3.638  0.00  0.00    +0.155 HD
ATOM     37  N   UNL     1      40.608  65.176   2.989  0.00  0.00    -0.214 NA
BRANCH   4   3
ATOM      1  C   UNL     1      45.186  64.614   4.222  0.00  0.00    +0.020 A 
ATOM      2  C   UNL     1      44.099  64.700   3.274  0.00  0.00    +0.013 A 
ATOM      3  C   UNL     1      42.962  65.577   3.522  0.00  0.00    +0.019 A 
ATOM     38  C   UNL     1      42.956  66.361   4.748  0.00  0.00    +0.120 A 
ATOM     39  N   UNL     1      44.016  66.257   5.643  0.00  0.00    -0.263 NA
ATOM     40  C   UNL     1      45.115  65.415   5.416  0.00  0.00    +0.111 A 
ENDBRANCH   4   3
ENDBRANCH  10   9
BRANCH  12  13
ATOM     13  N   UNL     1      35.310  62.636  -0.661  0.00  0.00    -0.281 N 
ATOM     14  C   UNL     1      35.986  62.269  -1.813  0.00  0.00    +0.248 C 
ATOM     30  O   UNL     1      36.874  62.929  -2.333  0.00  0.00    -0.270 OA
ATOM     31  H   UNL     1      34.469  62.102  -0.445  0.00  0.00    +0.155 HD
BRANCH  14  15
ATOM     15  C   UNL     1      35.612  60.993  -2.494  0.00  0.00    +0.037 A 
ATOM     16  C   UNL     1      35.769  60.829  -3.942  0.00  0.00    +0.013 A 
ATOM     17  C   UNL     1      35.384  59.593  -4.576  0.00  0.00    +0.005 A 
ATOM     18  C   UNL     1      34.839  58.510  -3.761  0.00  0.00    -0.033 A 
ATOM     28  C   UNL     1      34.699  58.697  -2.327  0.00  0.00    +0.005 A 
ATOM     29  C   UNL     1      35.074  59.907  -1.702  0.00  0.00    +0.013 A 
BRANCH  18  19
ATOM     19  C   UNL     1      34.383  57.164  -4.356  0.00  0.00    +0.119 C 
BRANCH  19  20
ATOM     20  N   UNL     1      32.919  56.981  -4.590  0.00  0.00    -0.302 NA
ATOM     21  C   UNL     1      32.278  56.074  -3.536  0.00  0.00    +0.066 C 
ATOM     22  C   UNL     1      30.743  55.912  -3.782  0.00  0.00    -0.064 C 
ATOM     23  N   UNL     1      30.511  55.356  -5.188  0.00  0.00    +0.379 N 
ATOM     24  C   UNL     1      29.072  55.148  -5.402  0.00  0.00    -0.096 C 
ATOM     25  H   UNL     1      31.009  54.360  -5.244  0.00  0.00    -0.082 HD
ATOM     26  C   UNL     1      31.148  56.250  -6.243  0.00  0.00    -0.064 C 
ATOM     27  C   UNL     1      32.668  56.429  -5.971  0.00  0.00    +0.066 C 
ENDBRANCH  19  20
ENDBRANCH  18  19
ENDBRANCH  14  15
ENDBRANCH  12  13
TORSDOF 6
ENDMDL
MODEL 3
REMARK VINA RESULT:      -7.5      8.222     18.345
REMARK  Name = C:\Users\Docking\Desktop\test protocol\1iep_ligandH.pdb
REMARK  8 active torsions:
REMARK  status: ('A' for Active; 'I' for Inactive)
REMARK    1  A    between atoms: _5  and  _11
REMARK    2  A    between atoms: _19  and  _21
REMARK    3  A    between atoms: _22  and  _66
REMARK    4  A    between atoms: _27  and  _30
REMARK    5  A    between atoms: _32  and  _33
REMARK    6  A    between atoms: _38  and  _43
REMARK    7  A    between atoms: _43  and  _46
REMARK    8  A    between atoms: _53  and  _55
REMARK                            x       y       z     vdW  Elec       q    Type
REMARK                         _______ _______ _______ _____ _____    ______ ____
ROOT
ATOM     10  C   UNL     1      38.656  65.230   2.481  0.00  0.00    +0.038 A 
ATOM     11  C   UNL     1      37.343  65.142   3.010  0.00  0.00    +0.047 A 
ATOM     12  C   UNL     1      36.176  65.241   2.148  0.00  0.00    +0.035 A 
ATOM     32  C   UNL     1      36.382  65.428   0.750  0.00  0.00    +0.024 A 
ATOM     33  C   UNL     1      37.710  65.521   0.195  0.00  0.00    +0.007 A 
ATOM     34  C   UNL     1      38.865  65.426   1.041  0.00  0.00    -0.029 A 
ATOM     35  C   UNL     1      40.264  65.539   0.392  0.00  0.00    +0.045 C 
ENDROOT
BRANCH  10   9
ATOM      4  C   UNL     1      41.964  67.170   5.367  0.00  0.00    +0.077 A 
ATOM      5  C   UNL     1      41.510  68.503   5.090  0.00  0.00    +0.048 A 
ATOM      6  C   UNL     1      40.427  68.646   4.194  0.00  0.00    +0.116 A 
ATOM      7  N   UNL     1      39.849  67.533   3.623  0.00  0.00    -0.223 NA
ATOM      8  C   UNL     1      40.312  66.262   3.911  0.00  0.00    +0.220 A 
ATOM      9  N   UNL     1      39.741  65.128   3.354  0.00  0.00    -0.283 N 
ATOM     36  H   UNL     1      40.117  64.209   3.586  0.00  0.00    +0.155 HD
ATOM     37  N   UNL     1      41.346  66.099   4.762  0.00  0.00    -0.214 NA
BRANCH   4   3
ATOM      1  C   UNL     1      44.147  66.754   8.586  0.00  0.00    +0.020 A 
ATOM      2  C   UNL     1      43.025  67.075   7.734  0.00  0.00    +0.013 A 
ATOM      3  C   UNL     1      43.096  66.856   6.295  0.00  0.00    +0.019 A 
ATOM     38  C   UNL     1      44.326  66.306   5.745  0.00  0.00    +0.120 A 
ATOM     39  N   UNL     1      45.391  66.007   6.591  0.00  0.00    -0.263 NA
ATOM     40  C   UNL     1      45.334  66.215   7.977  0.00  0.00    +0.111 A 
ENDBRANCH   4   3
ENDBRANCH  10   9
BRANCH  12  13
ATOM     13  N   UNL     1      34.819  65.167   2.630  0.00  0.00    -0.281 N 
ATOM     14  C   UNL     1      33.825  66.126   2.527  0.00  0.00    +0.248 C 
ATOM     30  O   UNL     1      34.015  67.286   2.191  0.00  0.00    -0.270 OA
ATOM     31  H   UNL     1      34.560  64.302   3.105  0.00  0.00    +0.155 HD
BRANCH  14  15
ATOM     15  C   UNL     1      32.418  65.747   2.859  0.00  0.00    +0.037 A 
ATOM     16  C   UNL     1      31.312  66.056   1.949  0.00  0.00    +0.013 A 
ATOM     17  C   UNL     1      29.962  65.694   2.302  0.00  0.00    +0.005 A 
ATOM     18  C   UNL     1      29.711  65.017   3.572  0.00  0.00    -0.033 A 
ATOM     28  C   UNL     1      30.827  64.717   4.453  0.00  0.00    +0.005 A 
ATOM     29  C   UNL     1      32.151  65.071   4.111  0.00  0.00    +0.013 A 
BRANCH  18  19
ATOM     19  C   UNL     1      28.300  64.612   4.039  0.00  0.00    +0.119 C 
BRANCH  19  20
ATOM     20  N   UNL     1      27.643  63.476   3.326  0.00  0.00    -0.302 NA
ATOM     21  C   UNL     1      26.283  63.126   3.935  0.00  0.00    +0.066 C 
ATOM     22  C   UNL     1      25.600  61.950   3.164  0.00  0.00    -0.064 C 
ATOM     23  N   UNL     1      26.526  60.733   3.171  0.00  0.00    +0.379 N 
ATOM     24  C   UNL     1      25.862  59.607   2.496  0.00  0.00    -0.096 C 
ATOM     25  H   UNL     1      26.691  60.440   4.234  0.00  0.00    -0.082 HD
ATOM     26  C   UNL     1      27.882  61.073   2.569  0.00  0.00    -0.064 C 
ATOM     27  C   UNL     1      28.539  62.262   3.325  0.00  0.00    +0.066 C 
ENDBRANCH  19  20
ENDBRANCH  18  19
ENDBRANCH  14  15
ENDBRANCH  12  13
TORSDOF 6
ENDMDL
MODEL 4
REMARK VINA RESULT:      -7.4     15.728     19.575
REMARK  Name = C:\Users\Docking\Desktop\test protocol\1iep_ligandH.pdb
REMARK  8 active torsions:
REMARK  status: ('A' for Active; 'I' for Inactive)
REMARK    1  A    between atoms: _5  and  _11
REMARK    2  A    between atoms: _19  and  _21
REMARK    3  A    between atoms: _22  and  _66
REMARK    4  A    between atoms: _27  and  _30
REMARK    5  A    between atoms: _32  and  _33
REMARK    6  A    between atoms: _38  and  _43
REMARK    7  A    between atoms: _43  and  _46
REMARK    8  A    between atoms: _53  and  _55
REMARK                            x       y       z     vdW  Elec       q    Type
REMARK                         _______ _______ _______ _____ _____    ______ ____
ROOT
ATOM     10  C   UNL     1      37.179  64.785   1.993  0.00  0.00    +0.038 A 
ATOM     11  C   UNL     1      36.864  63.728   1.101  0.00  0.00    +0.047 A 
ATOM     12  C   UNL     1      35.643  63.749   0.310  0.00  0.00    +0.035 A 
ATOM     32  C   UNL     1      34.766  64.865   0.451  0.00  0.00    +0.024 A 
ATOM     33  C   UNL     1      35.071  65.947   1.354  0.00  0.00    +0.007 A 
ATOM     34  C   UNL     1      36.272  65.930   2.138  0.00  0.00    -0.029 A 
ATOM     35  C   UNL     1      36.544  67.114   3.095  0.00  0.00    +0.045 C 
ENDROOT
BRANCH  10   9
ATOM      4  C   UNL     1      41.839  65.749   2.613  0.00  0.00    +0.077 A 
ATOM      5  C   UNL     1      41.926  66.432   1.354  0.00  0.00    +0.048 A 
ATOM      6  C   UNL     1      40.751  66.507   0.574  0.00  0.00    +0.116 A 
ATOM      7  N   UNL     1      39.581  65.938   1.029  0.00  0.00    -0.223 NA
ATOM      8  C   UNL     1      39.532  65.285   2.247  0.00  0.00    +0.220 A 
ATOM      9  N   UNL     1      38.364  64.712   2.728  0.00  0.00    -0.283 N 
ATOM     36  H   UNL     1      38.371  64.233   3.628  0.00  0.00    +0.155 HD
ATOM     37  N   UNL     1      40.641  65.199   3.010  0.00  0.00    -0.214 NA
BRANCH   4   3
ATOM      1  C   UNL     1      45.217  64.597   4.214  0.00  0.00    +0.020 A 
ATOM      2  C   UNL     1      44.127  64.715   3.274  0.00  0.00    +0.013 A 
ATOM      3  C   UNL     1      42.995  65.590   3.552  0.00  0.00    +0.019 A 
ATOM     38  C   UNL     1      42.998  66.339   4.799  0.00  0.00    +0.120 A 
ATOM     39  N   UNL     1      44.062  66.204   5.686  0.00  0.00    -0.263 NA
ATOM     40  C   UNL     1      45.155  65.364   5.430  0.00  0.00    +0.111 A 
ENDBRANCH   4   3
ENDBRANCH  10   9
BRANCH  12  13
ATOM     13  N   UNL     1      35.266  62.701  -0.605  0.00  0.00    -0.281 N 
ATOM     14  C   UNL     1      35.999  62.191  -1.664  0.00  0.00    +0.248 C 
ATOM     30  O   UNL     1      37.009  62.708  -2.118  0.00  0.00    -0.270 OA
ATOM     31  H   UNL     1      34.347  62.285  -0.455  0.00  0.00    +0.155 HD
BRANCH  14  15
ATOM     15  C   UNL     1      35.536  60.932  -2.323  0.00  0.00    +0.037 A 
ATOM     16  C   UNL     1      35.811  60.670  -3.738  0.00  0.00    +0.013 A 
ATOM     17  C   UNL     1      35.338  59.455  -4.353  0.00  0.00    +0.005 A 
ATOM     18  C   UNL     1      34.585  58.492  -3.552  0.00  0.00    -0.033 A 
ATOM     28  C   UNL     1      34.331  58.776  -2.150  0.00  0.00    +0.005 A 
ATOM     29  C   UNL     1      34.793  59.966  -1.543  0.00  0.00    +0.013 A 
BRANCH  18  19
ATOM     19  C   UNL     1      34.024  57.180  -4.131  0.00  0.00    +0.119 C 
BRANCH  19  20
ATOM     20  N   UNL     1      34.544  56.742  -5.461  0.00  0.00    -0.302 NA
ATOM     21  C   UNL     1      33.669  57.243  -6.613  0.00  0.00    +0.066 C 
ATOM     22  C   UNL     1      34.239  56.795  -7.998  0.00  0.00    -0.064 C 
ATOM     23  N   UNL     1      34.354  55.270  -8.029  0.00  0.00    +0.379 N 
ATOM     24  C   UNL     1      34.836  54.841  -9.351  0.00  0.00    -0.096 C 
ATOM     25  H   UNL     1      33.331  54.851  -7.890  0.00  0.00    -0.082 HD
ATOM     26  C   UNL     1      35.221  54.762  -6.885  0.00  0.00    -0.064 C 
ATOM     27  C   UNL     1      34.661  55.238  -5.515  0.00  0.00    +0.066 C 
ENDBRANCH  19  20
ENDBRANCH  18  19
ENDBRANCH  14  15
ENDBRANCH  12  13
TORSDOF 6
ENDMDL
MODEL 5
REMARK VINA RESULT:      -7.3     15.333     19.737
REMARK  Name = C:\Users\Docking\Desktop\test protocol\1iep_ligandH.pdb
REMARK  8 active torsions:
REMARK  status: ('A' for Active; 'I' for Inactive)
REMARK    1  A    between atoms: _5  and  _11
REMARK    2  A    between atoms: _19  and  _21
REMARK    3  A    between atoms: _22  and  _66
REMARK    4  A    between atoms: _27  and  _30
REMARK    5  A    between atoms: _32  and  _33
REMARK    6  A    between atoms: _38  and  _43
REMARK    7  A    between atoms: _43  and  _46
REMARK    8  A    between atoms: _53  and  _55
REMARK                            x       y       z     vdW  Elec       q    Type
REMARK                         _______ _______ _______ _____ _____    ______ ____
ROOT
ATOM     10  C   UNL     1      35.904  64.738   1.451  0.00  0.00    +0.038 A 
ATOM     11  C   UNL     1      37.142  64.687   2.141  0.00  0.00    +0.047 A 
ATOM     12  C   UNL     1      37.651  65.843   2.861  0.00  0.00    +0.035 A 
ATOM     32  C   UNL     1      36.871  67.036   2.860  0.00  0.00    +0.024 A 
ATOM     33  C   UNL     1      35.611  67.107   2.163  0.00  0.00    +0.007 A 
ATOM     34  C   UNL     1      35.105  65.970   1.449  0.00  0.00    -0.029 A 
ATOM     35  C   UNL     1      33.751  66.104   0.714  0.00  0.00    +0.045 C 
ENDROOT
BRANCH  10   9
ATOM      4  C   UNL     1      35.703  61.937  -2.442  0.00  0.00    +0.077 A 
ATOM      5  C   UNL     1      36.523  62.835  -3.203  0.00  0.00    +0.048 A 
ATOM      6  C   UNL     1      36.970  64.010  -2.558  0.00  0.00    +0.116 A 
ATOM      7  N   UNL     1      36.618  64.258  -1.249  0.00  0.00    -0.223 NA
ATOM      8  C   UNL     1      35.824  63.372  -0.544  0.00  0.00    +0.220 A 
ATOM      9  N   UNL     1      35.464  63.598   0.775  0.00  0.00    -0.283 N 
ATOM     36  H   UNL     1      34.870  62.923   1.258  0.00  0.00    +0.155 HD
ATOM     37  N   UNL     1      35.383  62.244  -1.138  0.00  0.00    -0.214 NA
BRANCH   4   3
ATOM      1  C   UNL     1      34.474  58.236  -2.743  0.00  0.00    +0.020 A 
ATOM      2  C   UNL     1      35.009  59.451  -2.172  0.00  0.00    +0.013 A 
ATOM      3  C   UNL     1      35.156  60.653  -2.983  0.00  0.00    +0.019 A 
ATOM     38  C   UNL     1      34.749  60.593  -4.379  0.00  0.00    +0.120 A 
ATOM     39  N   UNL     1      34.239  59.408  -4.901  0.00  0.00    -0.263 NA
ATOM     40  C   UNL     1      34.094  58.245  -4.131  0.00  0.00    +0.111 A 
ENDBRANCH   4   3
ENDBRANCH  10   9
BRANCH  12  13
ATOM     13  N   UNL     1      38.905  65.853   3.573  0.00  0.00    -0.281 N 
ATOM     14  C   UNL     1      40.185  65.832   3.044  0.00  0.00    +0.248 C 
ATOM     30  O   UNL     1      40.446  65.585   1.876  0.00  0.00    -0.270 OA
ATOM     31  H   UNL     1      38.841  65.877   4.591  0.00  0.00    +0.155 HD
BRANCH  14  15
ATOM     15  C   UNL     1      41.343  66.111   3.946  0.00  0.00    +0.037 A 
ATOM     16  C   UNL     1      41.199  66.968   5.125  0.00  0.00    +0.013 A 
ATOM     17  C   UNL     1      42.337  67.235   5.969  0.00  0.00    +0.005 A 
ATOM     18  C   UNL     1      43.630  66.642   5.636  0.00  0.00    -0.033 A 
ATOM     28  C   UNL     1      43.744  65.791   4.463  0.00  0.00    +0.005 A 
ATOM     29  C   UNL     1      42.631  65.528   3.633  0.00  0.00    +0.013 A 
BRANCH  18  19
ATOM     19  C   UNL     1      44.903  66.890   6.468  0.00  0.00    +0.119 C 
BRANCH  19  20
ATOM     20  N   UNL     1      44.720  67.355   7.875  0.00  0.00    -0.302 NA
ATOM     21  C   UNL     1      45.535  68.617   8.173  0.00  0.00    +0.066 C 
ATOM     22  C   UNL     1      45.315  69.103   9.642  0.00  0.00    -0.064 C 
ATOM     23  N   UNL     1      45.685  67.978  10.610  0.00  0.00    +0.379 N 
ATOM     24  C   UNL     1      45.535  68.451  11.994  0.00  0.00    -0.096 C 
ATOM     25  H   UNL     1      46.762  67.736  10.450  0.00  0.00    -0.082 HD
ATOM     26  C   UNL     1      44.881  66.719  10.319  0.00  0.00    -0.064 C 
ATOM     27  C   UNL     1      45.084  66.261   8.848  0.00  0.00    +0.066 C 
ENDBRANCH  19  20
ENDBRANCH  18  19
ENDBRANCH  14  15
ENDBRANCH  12  13
TORSDOF 6
ENDMDL
