MODEL 1
REMARK VINA RESULT:     -11.6      0.000      0.000
REMARK  Name = C:\Users\Docking\Desktop\test protocol\1iep_ligandH.pdb
REMARK  8 active torsions:
REMARK  status: ('A' for Active; 'I' for Inactive)
REMARK    1  A    between atoms: _5  and  _11
REMARK    2  A    between atoms: _19  and  _21
REMARK    3  A    between atoms: _22  and  _66
REMARK    4  A    between atoms: _27  and  _30
REMARK    5  A    between atoms: _32  and  _33
REMARK    6  A    between atoms: _38  and  _43
REMARK    7  A    between atoms: _43  and  _46
REMARK    8  A    between atoms: _53  and  _55
REMARK                            x       y       z     vdW  Elec       q    Type
REMARK                         _______ _______ _______ _____ _____    ______ ____
ROOT
ATOM     10  C   UNL     1      11.784  22.519  13.856  0.00  0.00    +0.038 A 
ATOM     11  C   UNL     1      11.149  23.107  14.980  0.00  0.00    +0.047 A 
ATOM     12  C   UNL     1      11.479  24.457  15.410  0.00  0.00    +0.035 A 
ATOM     32  C   UNL     1      12.458  25.182  14.669  0.00  0.00    +0.024 A 
ATOM     33  C   UNL     1      13.113  24.599  13.525  0.00  0.00    +0.007 A 
ATOM     34  C   UNL     1      12.794  23.267  13.098  0.00  0.00    -0.029 A 
ATOM     35  C   UNL     1      13.533  22.691  11.868  0.00  0.00    +0.045 C 
ENDROOT
BRANCH  10   9
ATOM      4  C   UNL     1       8.894  19.384  11.653  0.00  0.00    +0.077 A 
ATOM      5  C   UNL     1       8.001  20.420  11.221  0.00  0.00    +0.048 A 
ATOM      6  C   UNL     1       8.318  21.746  11.593  0.00  0.00    +0.116 A 
ATOM      7  N   UNL     1       9.446  22.004  12.341  0.00  0.00    -0.223 NA
ATOM      8  C   UNL     1      10.285  20.982  12.742  0.00  0.00    +0.220 A 
ATOM      9  N   UNL     1      11.429  21.220  13.488  0.00  0.00    -0.283 N 
ATOM     36  H   UNL     1      12.019  20.437  13.771  0.00  0.00    +0.155 HD
ATOM     37  N   UNL     1      10.004  19.707  12.401  0.00  0.00    -0.214 NA
BRANCH   4   3
ATOM      1  C   UNL     1       7.501  16.041  10.175  0.00  0.00    +0.020 A 
ATOM      2  C   UNL     1       7.647  17.452  10.448  0.00  0.00    +0.013 A 
ATOM      3  C   UNL     1       8.698  17.934  11.336  0.00  0.00    +0.019 A 
ATOM     38  C   UNL     1       9.590  16.954  11.936  0.00  0.00    +0.120 A 
ATOM     39  N   UNL     1       9.424  15.601  11.656  0.00  0.00    -0.263 NA
ATOM     40  C   UNL     1       8.416  15.126  10.804  0.00  0.00    +0.111 A 
ENDBRANCH   4   3
ENDBRANCH  10   9
BRANCH  12  13
ATOM     13  N   UNL     1      10.873  25.103  16.548  0.00  0.00    -0.281 N 
ATOM     14  C   UNL     1      10.143  24.519  17.570  0.00  0.00    +0.248 C 
ATOM     30  O   UNL     1       9.715  23.374  17.547  0.00  0.00    -0.270 OA
ATOM     31  H   UNL     1      10.998  26.114  16.608  0.00  0.00    +0.155 HD
BRANCH  14  15
ATOM     15  C   UNL     1       9.829  25.328  18.787  0.00  0.00    +0.037 A 
ATOM     16  C   UNL     1      10.791  26.291  19.328  0.00  0.00    +0.013 A 
ATOM     17  C   UNL     1      10.470  27.046  20.513  0.00  0.00    +0.005 A 
ATOM     18  C   UNL     1       9.179  26.842  21.165  0.00  0.00    -0.033 A 
ATOM     28  C   UNL     1       8.241  25.883  20.604  0.00  0.00    +0.005 A 
ATOM     29  C   UNL     1       8.552  25.141  19.443  0.00  0.00    +0.013 A 
BRANCH  18  19
ATOM     19  C   UNL     1       8.761  27.588  22.445  0.00  0.00    +0.119 C 
BRANCH  19  20
ATOM     20  N   UNL     1       8.373  26.758  23.625  0.00  0.00    -0.302 NA
ATOM     21  C   UNL     1       7.865  27.615  24.788  0.00  0.00    +0.066 C 
ATOM     22  C   UNL     1       7.443  26.729  26.005  0.00  0.00    -0.064 C 
ATOM     23  N   UNL     1       8.630  25.871  26.444  0.00  0.00    +0.379 N 
ATOM     24  C   UNL     1       8.254  25.080  27.624  0.00  0.00    -0.096 C 
ATOM     25  H   UNL     1       9.452  26.561  26.746  0.00  0.00    -0.082 HD
ATOM     26  C   UNL     1       9.144  25.018  25.293  0.00  0.00    -0.064 C 
ATOM     27  C   UNL     1       9.533  25.906  24.078  0.00  0.00    +0.066 C 
ENDBRANCH  19  20
ENDBRANCH  18  19
ENDBRANCH  14  15
ENDBRANCH  12  13
TORSDOF 6
ENDMDL
MODEL 2
REMARK VINA RESULT:     -11.5      0.826      1.222
REMARK  Name = C:\Users\Docking\Desktop\test protocol\1iep_ligandH.pdb
REMARK  8 active torsions:
REMARK  status: ('A' for Active; 'I' for Inactive)
REMARK    1  A    between atoms: _5  and  _11
REMARK    2  A    between atoms: _19  and  _21
REMARK    3  A    between atoms: _22  and  _66
REMARK    4  A    between atoms: _27  and  _30
REMARK    5  A    between atoms: _32  and  _33
REMARK    6  A    between atoms: _38  and  _43
REMARK    7  A    between atoms: _43  and  _46
REMARK    8  A    between atoms: _53  and  _55
REMARK                            x       y       z     vdW  Elec       q    Type
REMARK                         _______ _______ _______ _____ _____    ______ ____
ROOT
ATOM     10  C   UNL     1      11.821  22.710  14.091  0.00  0.00    +0.038 A 
ATOM     11  C   UNL     1      11.174  23.302  15.205  0.00  0.00    +0.047 A 
ATOM     12  C   UNL     1      11.503  24.652  15.637  0.00  0.00    +0.035 A 
ATOM     32  C   UNL     1      12.494  25.371  14.909  0.00  0.00    +0.024 A 
ATOM     33  C   UNL     1      13.163  24.785  13.774  0.00  0.00    +0.007 A 
ATOM     34  C   UNL     1      12.844  23.453  13.345  0.00  0.00    -0.029 A 
ATOM     35  C   UNL     1      13.597  22.872  12.125  0.00  0.00    +0.045 C 
ENDROOT
BRANCH  10   9
ATOM      4  C   UNL     1       8.996  19.591  11.783  0.00  0.00    +0.077 A 
ATOM      5  C   UNL     1       8.139  20.634  11.298  0.00  0.00    +0.048 A 
ATOM      6  C   UNL     1       8.456  21.960  11.671  0.00  0.00    +0.116 A 
ATOM      7  N   UNL     1       9.551  22.211  12.470  0.00  0.00    -0.223 NA
ATOM      8  C   UNL     1      10.355  21.181  12.922  0.00  0.00    +0.220 A 
ATOM      9  N   UNL     1      11.466  21.412  13.719  0.00  0.00    -0.283 N 
ATOM     36  H   UNL     1      12.029  20.624  14.039  0.00  0.00    +0.155 HD
ATOM     37  N   UNL     1      10.073  19.907  12.581  0.00  0.00    -0.214 NA
BRANCH   4   3
ATOM      1  C   UNL     1       7.567  16.244  10.349  0.00  0.00    +0.020 A 
ATOM      2  C   UNL     1       7.718  17.655  10.618  0.00  0.00    +0.013 A 
ATOM      3  C   UNL     1       8.794  18.140  11.473  0.00  0.00    +0.019 A 
ATOM     38  C   UNL     1       9.708  17.163  12.045  0.00  0.00    +0.120 A 
ATOM     39  N   UNL     1       9.537  15.809  11.770  0.00  0.00    -0.263 NA
ATOM     40  C   UNL     1       8.504  15.331  10.950  0.00  0.00    +0.111 A 
ENDBRANCH   4   3
ENDBRANCH  10   9
BRANCH  12  13
ATOM     13  N   UNL     1      10.885  25.302  16.767  0.00  0.00    -0.281 N 
ATOM     14  C   UNL     1      10.331  24.711  17.891  0.00  0.00    +0.248 C 
ATOM     30  O   UNL     1      10.091  23.518  17.997  0.00  0.00    -0.270 OA
ATOM     31  H   UNL     1      10.852  26.321  16.733  0.00  0.00    +0.155 HD
BRANCH  14  15
ATOM     15  C   UNL     1       9.980  25.573  19.060  0.00  0.00    +0.037 A 
ATOM     16  C   UNL     1       8.749  25.354  19.824  0.00  0.00    +0.013 A 
ATOM     17  C   UNL     1       8.427  26.211  20.937  0.00  0.00    +0.005 A 
ATOM     18  C   UNL     1       9.338  27.295  21.295  0.00  0.00    -0.033 A 
ATOM     28  C   UNL     1      10.555  27.487  20.523  0.00  0.00    +0.005 A 
ATOM     29  C   UNL     1      10.875  26.650  19.431  0.00  0.00    +0.013 A 
BRANCH  18  19
ATOM     19  C   UNL     1       9.064  28.271  22.454  0.00  0.00    +0.119 C 
BRANCH  19  20
ATOM     20  N   UNL     1       8.280  27.751  23.614  0.00  0.00    -0.302 NA
ATOM     21  C   UNL     1       7.269  28.779  24.131  0.00  0.00    +0.066 C 
ATOM     22  C   UNL     1       6.442  28.211  25.330  0.00  0.00    -0.064 C 
ATOM     23  N   UNL     1       7.396  27.781  26.446  0.00  0.00    +0.379 N 
ATOM     24  C   UNL     1       6.619  27.300  27.597  0.00  0.00    -0.096 C 
ATOM     25  H   UNL     1       7.962  28.684  26.773  0.00  0.00    -0.082 HD
ATOM     26  C   UNL     1       8.406  26.761  25.940  0.00  0.00    -0.064 C 
ATOM     27  C   UNL     1       9.202  27.325  24.730  0.00  0.00    +0.066 C 
ENDBRANCH  19  20
ENDBRANCH  18  19
ENDBRANCH  14  15
ENDBRANCH  12  13
TORSDOF 6
ENDMDL
MODEL 3
REMARK VINA RESULT:     -11.2      1.683      2.089
REMARK  Name = C:\Users\Docking\Desktop\test protocol\1iep_ligandH.pdb
REMARK  8 active torsions:
REMARK  status: ('A' for Active; 'I' for Inactive)
REMARK    1  A    between atoms: _5  and  _11
REMARK    2  A    between atoms: _19  and  _21
REMARK    3  A    between atoms: _22  and  _66
REMARK    4  A    between atoms: _27  and  _30
REMARK    5  A    between atoms: _32  and  _33
REMARK    6  A    between atoms: _38  and  _43
REMARK    7  A    between atoms: _43  and  _46
REMARK    8  A    between atoms: _53  and  _55
REMARK                            x       y       z     vdW  Elec       q    Type
REMARK                         _______ _______ _______ _____ _____    ______ ____
ROOT
ATOM     10  C   UNL     1      11.626  22.564  14.236  0.00  0.00    +0.038 A 
ATOM     11  C   UNL     1      10.971  23.114  15.368  0.00  0.00    +0.047 A 
ATOM     12  C   UNL     1      11.281  24.455  15.837  0.00  0.00    +0.035 A 
ATOM     32  C   UNL     1      12.261  25.210  15.129  0.00  0.00    +0.024 A 
ATOM     33  C   UNL     1      12.936  24.666  13.977  0.00  0.00    +0.007 A 
ATOM     34  C   UNL     1      12.637  23.342  13.511  0.00  0.00    -0.029 A 
ATOM     35  C   UNL     1      13.397  22.808  12.274  0.00  0.00    +0.045 C 
ENDROOT
BRANCH  10   9
ATOM      4  C   UNL     1       8.932  19.481  11.729  0.00  0.00    +0.077 A 
ATOM      5  C   UNL     1       8.108  20.533  11.209  0.00  0.00    +0.048 A 
ATOM      6  C   UNL     1       8.406  21.853  11.616  0.00  0.00    +0.116 A 
ATOM      7  N   UNL     1       9.453  22.091  12.480  0.00  0.00    -0.223 NA
ATOM      8  C   UNL     1      10.227  21.053  12.965  0.00  0.00    +0.220 A 
ATOM      9  N   UNL     1      11.290  21.271  13.828  0.00  0.00    -0.283 N 
ATOM     36  H   UNL     1      11.832  20.478  14.170  0.00  0.00    +0.155 HD
ATOM     37  N   UNL     1       9.962  19.784  12.592  0.00  0.00    -0.214 NA
BRANCH   4   3
ATOM      1  C   UNL     1       7.559  16.153  10.201  0.00  0.00    +0.020 A 
ATOM      2  C   UNL     1       7.696  17.561  10.497  0.00  0.00    +0.013 A 
ATOM      3  C   UNL     1       8.745  18.035  11.390  0.00  0.00    +0.019 A 
ATOM     38  C   UNL     1       9.647  17.052  11.971  0.00  0.00    +0.120 A 
ATOM     39  N   UNL     1       9.490  15.703  11.669  0.00  0.00    -0.263 NA
ATOM     40  C   UNL     1       8.482  15.234  10.812  0.00  0.00    +0.111 A 
ENDBRANCH   4   3
ENDBRANCH  10   9
BRANCH  12  13
ATOM     13  N   UNL     1      10.655  25.064  16.985  0.00  0.00    -0.281 N 
ATOM     14  C   UNL     1      10.933  24.843  18.324  0.00  0.00    +0.248 C 
ATOM     30  O   UNL     1      11.621  23.924  18.744  0.00  0.00    -0.270 OA
ATOM     31  H   UNL     1       9.917  25.739  16.786  0.00  0.00    +0.155 HD
BRANCH  14  15
ATOM     15  C   UNL     1      10.351  25.767  19.344  0.00  0.00    +0.037 A 
ATOM     16  C   UNL     1      11.046  26.994  19.742  0.00  0.00    +0.013 A 
ATOM     17  C   UNL     1      10.471  27.859  20.741  0.00  0.00    +0.005 A 
ATOM     18  C   UNL     1       9.192  27.500  21.349  0.00  0.00    -0.033 A 
ATOM     28  C   UNL     1       8.522  26.280  20.932  0.00  0.00    +0.005 A 
ATOM     29  C   UNL     1       9.083  25.429  19.954  0.00  0.00    +0.013 A 
BRANCH  18  19
ATOM     19  C   UNL     1       8.515  28.353  22.438  0.00  0.00    +0.119 C 
BRANCH  19  20
ATOM     20  N   UNL     1       9.405  29.036  23.424  0.00  0.00    -0.302 NA
ATOM     21  C   UNL     1       9.520  28.251  24.734  0.00  0.00    +0.066 C 
ATOM     22  C   UNL     1      10.473  28.968  25.745  0.00  0.00    -0.064 C 
ATOM     23  N   UNL     1       9.962  30.385  26.007  0.00  0.00    +0.379 N 
ATOM     24  C   UNL     1      10.822  31.042  27.001  0.00  0.00    -0.096 C 
ATOM     25  H   UNL     1       8.941  30.301  26.446  0.00  0.00    -0.082 HD
ATOM     26  C   UNL     1       9.842  31.172  24.709  0.00  0.00    -0.064 C 
ATOM     27  C   UNL     1       8.916  30.436  23.700  0.00  0.00    +0.066 C 
ENDBRANCH  19  20
ENDBRANCH  18  19
ENDBRANCH  14  15
ENDBRANCH  12  13
TORSDOF 6
ENDMDL
MODEL 4
REMARK VINA RESULT:     -11.0      1.493      2.118
REMARK  Name = C:\Users\Docking\Desktop\test protocol\1iep_ligandH.pdb
REMARK  8 active torsions:
REMARK  status: ('A' for Active; 'I' for Inactive)
REMARK    1  A    between atoms: _5  and  _11
REMARK    2  A    between atoms: _19  and  _21
REMARK    3  A    between atoms: _22  and  _66
REMARK    4  A    between atoms: _27  and  _30
REMARK    5  A    between atoms: _32  and  _33
REMARK    6  A    between atoms: _38  and  _43
REMARK    7  A    between atoms: _43  and  _46
REMARK    8  A    between atoms: _53  and  _55
REMARK                            x       y       z     vdW  Elec       q    Type
REMARK                         _______ _______ _______ _____ _____    ______ ____
ROOT
ATOM     10  C   UNL     1      11.714  22.794  14.995  0.00  0.00    +0.038 A 
ATOM     11  C   UNL     1      11.226  23.103  16.291  0.00  0.00    +0.047 A 
ATOM     12  C   UNL     1      11.592  24.343  16.957  0.00  0.00    +0.035 A 
ATOM     32  C   UNL     1      12.456  25.248  16.274  0.00  0.00    +0.024 A 
ATOM     33  C   UNL     1      12.962  24.949  14.957  0.00  0.00    +0.007 A 
ATOM     34  C   UNL     1      12.606  23.727  14.296  0.00  0.00    -0.029 A 
ATOM     35  C   UNL     1      13.184  23.456  12.887  0.00  0.00    +0.045 C 
ENDROOT
BRANCH  10   9
ATOM      4  C   UNL     1       8.975  20.237  11.997  0.00  0.00    +0.077 A 
ATOM      5  C   UNL     1       8.228  21.394  11.597  0.00  0.00    +0.048 A 
ATOM      6  C   UNL     1       8.575  22.628  12.193  0.00  0.00    +0.116 A 
ATOM      7  N   UNL     1       9.595  22.687  13.117  0.00  0.00    -0.223 NA
ATOM      8  C   UNL     1      10.295  21.551  13.481  0.00  0.00    +0.220 A 
ATOM      9  N   UNL     1      11.330  21.590  14.402  0.00  0.00    -0.283 N 
ATOM     36  H   UNL     1      11.817  20.728  14.650  0.00  0.00    +0.155 HD
ATOM     37  N   UNL     1       9.982  20.361  12.928  0.00  0.00    -0.214 NA
BRANCH   4   3
ATOM      1  C   UNL     1       7.515  17.233   9.960  0.00  0.00    +0.020 A 
ATOM      2  C   UNL     1       7.712  18.578  10.450  0.00  0.00    +0.013 A 
ATOM      3  C   UNL     1       8.729  18.863  11.454  0.00  0.00    +0.019 A 
ATOM     38  C   UNL     1       9.537  17.756  11.945  0.00  0.00    +0.120 A 
ATOM     39  N   UNL     1       9.324  16.472  11.455  0.00  0.00    -0.263 NA
ATOM     40  C   UNL     1       8.347  16.185  10.490  0.00  0.00    +0.111 A 
ENDBRANCH   4   3
ENDBRANCH  10   9
BRANCH  12  13
ATOM     13  N   UNL     1      11.133  24.707  18.275  0.00  0.00    -0.281 N 
ATOM     14  C   UNL     1       9.846  25.030  18.670  0.00  0.00    +0.248 C 
ATOM     30  O   UNL     1       8.925  25.264  17.901  0.00  0.00    -0.270 OA
ATOM     31  H   UNL     1      11.845  24.728  19.006  0.00  0.00    +0.155 HD
BRANCH  14  15
ATOM     15  C   UNL     1       9.539  25.120  20.130  0.00  0.00    +0.037 A 
ATOM     16  C   UNL     1       9.320  23.917  20.936  0.00  0.00    +0.013 A 
ATOM     17  C   UNL     1       9.009  24.033  22.339  0.00  0.00    +0.005 A 
ATOM     18  C   UNL     1       8.917  25.359  22.945  0.00  0.00    -0.033 A 
ATOM     28  C   UNL     1       9.144  26.536  22.123  0.00  0.00    +0.005 A 
ATOM     29  C   UNL     1       9.448  26.426  20.747  0.00  0.00    +0.013 A 
BRANCH  18  19
ATOM     19  C   UNL     1       8.569  25.578  24.429  0.00  0.00    +0.119 C 
BRANCH  19  20
ATOM     20  N   UNL     1       7.961  26.890  24.803  0.00  0.00    -0.302 NA
ATOM     21  C   UNL     1       8.890  27.721  25.692  0.00  0.00    +0.066 C 
ATOM     22  C   UNL     1       8.247  29.099  26.055  0.00  0.00    -0.064 C 
ATOM     23  N   UNL     1       6.902  28.866  26.745  0.00  0.00    +0.379 N 
ATOM     24  C   UNL     1       6.322  30.158  27.139  0.00  0.00    -0.096 C 
ATOM     25  H   UNL     1       7.096  28.284  27.676  0.00  0.00    -0.082 HD
ATOM     26  C   UNL     1       5.973  28.038  25.868  0.00  0.00    -0.064 C 
ATOM     27  C   UNL     1       6.633  26.683  25.489  0.00  0.00    +0.066 C 
ENDBRANCH  19  20
ENDBRANCH  18  19
ENDBRANCH  14  15
ENDBRANCH  12  13
TORSDOF 6
ENDMDL
MODEL 5
REMARK VINA RESULT:     -10.9      2.097     12.618
REMARK  Name = C:\Users\Docking\Desktop\test protocol\1iep_ligandH.pdb
REMARK  8 active torsions:
REMARK  status: ('A' for Active; 'I' for Inactive)
REMARK    1  A    between atoms: _5  and  _11
REMARK    2  A    between atoms: _19  and  _21
REMARK    3  A    between atoms: _22  and  _66
REMARK    4  A    between atoms: _27  and  _30
REMARK    5  A    between atoms: _32  and  _33
REMARK    6  A    between atoms: _38  and  _43
REMARK    7  A    between atoms: _43  and  _46
REMARK    8  A    between atoms: _53  and  _55
REMARK                            x       y       z     vdW  Elec       q    Type
REMARK                         _______ _______ _______ _____ _____    ______ ____
ROOT
ATOM     10  C   UNL     1      10.818  25.156  18.473  0.00  0.00    +0.038 A 
ATOM     11  C   UNL     1      10.117  24.409  17.493  0.00  0.00    +0.047 A 
ATOM     12  C   UNL     1      10.824  23.715  16.427  0.00  0.00    +0.035 A 
ATOM     32  C   UNL     1      12.246  23.803  16.392  0.00  0.00    +0.024 A 
ATOM     33  C   UNL     1      12.974  24.559  17.380  0.00  0.00    +0.007 A 
ATOM     34  C   UNL     1      12.282  25.247  18.432  0.00  0.00    -0.029 A 
ATOM     35  C   UNL     1      13.114  26.048  19.460  0.00  0.00    +0.045 C 
ENDROOT
BRANCH  10   9
ATOM      4  C   UNL     1       8.657  25.229  22.759  0.00  0.00    +0.077 A 
ATOM      5  C   UNL     1       8.986  23.856  23.014  0.00  0.00    +0.048 A 
ATOM      6  C   UNL     1       9.706  23.165  22.014  0.00  0.00    +0.116 A 
ATOM      7  N   UNL     1      10.065  23.808  20.849  0.00  0.00    -0.223 NA
ATOM      8  C   UNL     1       9.731  25.133  20.634  0.00  0.00    +0.220 A 
ATOM      9  N   UNL     1      10.088  25.802  19.474  0.00  0.00    -0.283 N 
ATOM     36  H   UNL     1       9.816  26.777  19.350  0.00  0.00    +0.155 HD
ATOM     37  N   UNL     1       9.042  25.815  21.573  0.00  0.00    -0.214 NA
BRANCH   4   3
ATOM      1  C   UNL     1       6.242  26.441  25.587  0.00  0.00    +0.020 A 
ATOM      2  C   UNL     1       6.944  25.562  24.680  0.00  0.00    +0.013 A 
ATOM      3  C   UNL     1       7.903  26.094  23.720  0.00  0.00    +0.019 A 
ATOM     38  C   UNL     1       8.131  27.531  23.704  0.00  0.00    +0.120 A 
ATOM     39  N   UNL     1       7.440  28.353  24.589  0.00  0.00    -0.263 NA
ATOM     40  C   UNL     1       6.513  27.852  25.516  0.00  0.00    +0.111 A 
ENDBRANCH   4   3
ENDBRANCH  10   9
BRANCH  12  13
ATOM     13  N   UNL     1      10.165  22.948  15.400  0.00  0.00    -0.281 N 
ATOM     14  C   UNL     1      10.441  22.928  14.042  0.00  0.00    +0.248 C 
ATOM     30  O   UNL     1      11.162  23.734  13.472  0.00  0.00    -0.270 OA
ATOM     31  H   UNL     1       9.402  22.346  15.711  0.00  0.00    +0.155 HD
BRANCH  14  15
ATOM     15  C   UNL     1       9.815  21.869  13.193  0.00  0.00    +0.037 A 
ATOM     16  C   UNL     1      10.325  20.496  13.193  0.00  0.00    +0.013 A 
ATOM     17  C   UNL     1       9.714  19.498  12.352  0.00  0.00    +0.005 A 
ATOM     18  C   UNL     1       8.583  19.870  11.504  0.00  0.00    -0.033 A 
ATOM     28  C   UNL     1       8.094  21.239  11.528  0.00  0.00    +0.005 A 
ATOM     29  C   UNL     1       8.692  22.220  12.351  0.00  0.00    +0.013 A 
BRANCH  18  19
ATOM     19  C   UNL     1       7.883  18.876  10.559  0.00  0.00    +0.119 C 
BRANCH  19  20
ATOM     20  N   UNL     1       8.049  17.421  10.853  0.00  0.00    -0.302 NA
ATOM     21  C   UNL     1       9.520  16.998  10.849  0.00  0.00    +0.066 C 
ATOM     22  C   UNL     1       9.677  15.478  11.180  0.00  0.00    -0.064 C 
ATOM     23  N   UNL     1       8.874  14.654  10.172  0.00  0.00    +0.379 N 
ATOM     24  C   UNL     1       9.066  13.222  10.445  0.00  0.00    -0.096 C 
ATOM     25  H   UNL     1       9.287  14.864   9.158  0.00  0.00    -0.082 HD
ATOM     26  C   UNL     1       7.410  15.070  10.168  0.00  0.00    -0.064 C 
ATOM     27  C   UNL     1       7.267  16.588   9.867  0.00  0.00    +0.066 C 
ENDBRANCH  19  20
ENDBRANCH  18  19
ENDBRANCH  14  15
ENDBRANCH  12  13
TORSDOF 6
ENDMDL
