MODEL 1
REMARK VINA RESULT:      -8.7      0.000      0.000
REMARK  Name = C:\Users\Docking\Desktop\test protocol\1iep_ligandH.pdb
REMARK  8 active torsions:
REMARK  status: ('A' for Active; 'I' for Inactive)
REMARK    1  A    between atoms: _5  and  _11
REMARK    2  A    between atoms: _19  and  _21
REMARK    3  A    between atoms: _22  and  _66
REMARK    4  A    between atoms: _27  and  _30
REMARK    5  A    between atoms: _32  and  _33
REMARK    6  A    between atoms: _38  and  _43
REMARK    7  A    between atoms: _43  and  _46
REMARK    8  A    between atoms: _53  and  _55
REMARK                            x       y       z     vdW  Elec       q    Type
REMARK                         _______ _______ _______ _____ _____    ______ ____
ROOT
ATOM     10  C   UNL     1      45.251 102.440  29.513  0.00  0.00    +0.038 A 
ATOM     11  C   UNL     1      46.604 102.800  29.286  0.00  0.00    +0.047 A 
ATOM     12  C   UNL     1      47.602 102.675  30.337  0.00  0.00    +0.035 A 
ATOM     32  C   UNL     1      47.187 102.178  31.607  0.00  0.00    +0.024 A 
ATOM     33  C   UNL     1      45.815 101.808  31.855  0.00  0.00    +0.007 A 
ATOM     34  C   UNL     1      44.826 101.931  30.823  0.00  0.00    -0.029 A 
ATOM     35  C   UNL     1      43.369 101.526  31.146  0.00  0.00    +0.045 C 
ENDROOT
BRANCH  10   9
ATOM      4  C   UNL     1      42.454 105.104  26.664  0.00  0.00    +0.077 A 
ATOM      5  C   UNL     1      42.829 106.318  27.331  0.00  0.00    +0.048 A 
ATOM      6  C   UNL     1      43.739 106.212  28.407  0.00  0.00    +0.116 A 
ATOM      7  N   UNL     1      44.230 104.980  28.779  0.00  0.00    -0.223 NA
ATOM      8  C   UNL     1      43.847 103.829  28.115  0.00  0.00    +0.220 A 
ATOM      9  N   UNL     1      44.335 102.580  28.468  0.00  0.00    -0.283 N 
ATOM     36  H   UNL     1      44.021 101.754  27.958  0.00  0.00    +0.155 HD
ATOM     37  N   UNL     1      42.978 103.903  27.086  0.00  0.00    -0.214 NA
BRANCH   4   3
ATOM      1  C   UNL     1      40.845 105.584  23.131  0.00  0.00    +0.020 A 
ATOM      2  C   UNL     1      41.796 105.663  24.216  0.00  0.00    +0.013 A 
ATOM      3  C   UNL     1      41.505 105.053  25.507  0.00  0.00    +0.019 A 
ATOM     38  C   UNL     1      40.233 104.365  25.669  0.00  0.00    +0.120 A 
ATOM     39  N   UNL     1      39.336 104.306  24.607  0.00  0.00    -0.263 NA
ATOM     40  C   UNL     1      39.605 104.891  23.360  0.00  0.00    +0.111 A 
ENDBRANCH   4   3
ENDBRANCH  10   9
BRANCH  12  13
ATOM     13  N   UNL     1      48.988 103.033  30.168  0.00  0.00    -0.281 N 
ATOM     14  C   UNL     1      50.103 102.230  30.348  0.00  0.00    +0.248 C 
ATOM     30  O   UNL     1      50.085 101.135  30.891  0.00  0.00    -0.270 OA
ATOM     31  H   UNL     1      49.170 103.995  29.882  0.00  0.00    +0.155 HD
BRANCH  14  15
ATOM     15  C   UNL     1      51.431 102.720  29.868  0.00  0.00    +0.037 A 
ATOM     16  C   UNL     1      52.672 102.338  30.546  0.00  0.00    +0.013 A 
ATOM     17  C   UNL     1      53.938 102.838  30.072  0.00  0.00    +0.005 A 
ATOM     18  C   UNL     1      53.969 103.725  28.912  0.00  0.00    -0.033 A 
ATOM     28  C   UNL     1      52.723 104.084  28.255  0.00  0.00    +0.005 A 
ATOM     29  C   UNL     1      51.480 103.596  28.717  0.00  0.00    +0.013 A 
BRANCH  18  19
ATOM     19  C   UNL     1      55.272 104.323  28.350  0.00  0.00    +0.119 C 
BRANCH  19  20
ATOM     20  N   UNL     1      56.127 105.107  29.292  0.00  0.00    -0.302 NA
ATOM     21  C   UNL     1      55.437 106.392  29.759  0.00  0.00    +0.066 C 
ATOM     22  C   UNL     1      56.336 107.188  30.761  0.00  0.00    -0.064 C 
ATOM     23  N   UNL     1      57.678 107.503  30.099  0.00  0.00    +0.379 N 
ATOM     24  C   UNL     1      58.503 108.301  31.018  0.00  0.00    -0.096 C 
ATOM     25  H   UNL     1      57.473 108.127  29.199  0.00  0.00    -0.082 HD
ATOM     26  C   UNL     1      58.369 106.230  29.630  0.00  0.00    -0.064 C 
ATOM     27  C   UNL     1      57.456 105.432  28.657  0.00  0.00    +0.066 C 
ENDBRANCH  19  20
ENDBRANCH  18  19
ENDBRANCH  14  15
ENDBRANCH  12  13
TORSDOF 6
ENDMDL
MODEL 2
REMARK VINA RESULT:      -8.6      0.993      1.602
REMARK  Name = C:\Users\Docking\Desktop\test protocol\1iep_ligandH.pdb
REMARK  8 active torsions:
REMARK  status: ('A' for Active; 'I' for Inactive)
REMARK    1  A    between atoms: _5  and  _11
REMARK    2  A    between atoms: _19  and  _21
REMARK    3  A    between atoms: _22  and  _66
REMARK    4  A    between atoms: _27  and  _30
REMARK    5  A    between atoms: _32  and  _33
REMARK    6  A    between atoms: _38  and  _43
REMARK    7  A    between atoms: _43  and  _46
REMARK    8  A    between atoms: _53  and  _55
REMARK                            x       y       z     vdW  Elec       q    Type
REMARK                         _______ _______ _______ _____ _____    ______ ____
ROOT
ATOM     10  C   UNL     1      45.481 102.795  28.781  0.00  0.00    +0.038 A 
ATOM     11  C   UNL     1      46.857 103.124  28.676  0.00  0.00    +0.047 A 
ATOM     12  C   UNL     1      47.752 102.985  29.814  0.00  0.00    +0.035 A 
ATOM     32  C   UNL     1      47.213 102.504  31.043  0.00  0.00    +0.024 A 
ATOM     33  C   UNL     1      45.817 102.166  31.168  0.00  0.00    +0.007 A 
ATOM     34  C   UNL     1      44.929 102.304  30.050  0.00  0.00    -0.029 A 
ATOM     35  C   UNL     1      43.440 101.933  30.242  0.00  0.00    +0.045 C 
ENDROOT
BRANCH  10   9
ATOM      4  C   UNL     1      42.790 105.462  25.835  0.00  0.00    +0.077 A 
ATOM      5  C   UNL     1      43.003 106.646  26.616  0.00  0.00    +0.048 A 
ATOM      6  C   UNL     1      43.805 106.524  27.773  0.00  0.00    +0.116 A 
ATOM      7  N   UNL     1      44.349 105.305  28.113  0.00  0.00    -0.223 NA
ATOM      8  C   UNL     1      44.123 104.182  27.338  0.00  0.00    +0.220 A 
ATOM      9  N   UNL     1      44.666 102.947  27.657  0.00  0.00    -0.283 N 
ATOM     36  H   UNL     1      44.470 102.141  27.064  0.00  0.00    +0.155 HD
ATOM     37  N   UNL     1      43.359 104.272  26.230  0.00  0.00    -0.214 NA
BRANCH   4   3
ATOM      1  C   UNL     1      39.766 105.345  23.356  0.00  0.00    +0.020 A 
ATOM      2  C   UNL     1      40.512 105.373  24.593  0.00  0.00    +0.013 A 
ATOM      3  C   UNL     1      41.968 105.430  24.584  0.00  0.00    +0.019 A 
ATOM     38  C   UNL     1      42.645 105.459  23.295  0.00  0.00    +0.120 A 
ATOM     39  N   UNL     1      41.900 105.429  22.121  0.00  0.00    -0.263 NA
ATOM     40  C   UNL     1      40.498 105.372  22.117  0.00  0.00    +0.111 A 
ENDBRANCH   4   3
ENDBRANCH  10   9
BRANCH  12  13
ATOM     13  N   UNL     1      49.156 103.311  29.770  0.00  0.00    -0.281 N 
ATOM     14  C   UNL     1      50.234 102.460  29.954  0.00  0.00    +0.248 C 
ATOM     30  O   UNL     1      50.151 101.325  30.398  0.00  0.00    -0.270 OA
ATOM     31  H   UNL     1      49.383 104.287  29.580  0.00  0.00    +0.155 HD
BRANCH  14  15
ATOM     15  C   UNL     1      51.604 102.947  29.607  0.00  0.00    +0.037 A 
ATOM     16  C   UNL     1      51.820 103.896  28.512  0.00  0.00    +0.013 A 
ATOM     17  C   UNL     1      53.154 104.335  28.188  0.00  0.00    +0.005 A 
ATOM     18  C   UNL     1      54.283 103.827  28.962  0.00  0.00    -0.033 A 
ATOM     28  C   UNL     1      54.041 102.890  30.047  0.00  0.00    +0.005 A 
ATOM     29  C   UNL     1      52.735 102.456  30.367  0.00  0.00    +0.013 A 
BRANCH  18  19
ATOM     19  C   UNL     1      55.743 104.225  28.672  0.00  0.00    +0.119 C 
BRANCH  19  20
ATOM     20  N   UNL     1      56.230 105.509  29.259  0.00  0.00    -0.302 NA
ATOM     21  C   UNL     1      57.625 105.881  28.748  0.00  0.00    +0.066 C 
ATOM     22  C   UNL     1      58.111 107.238  29.355  0.00  0.00    -0.064 C 
ATOM     23  N   UNL     1      58.100 107.143  30.881  0.00  0.00    +0.379 N 
ATOM     24  C   UNL     1      58.611 108.397  31.454  0.00  0.00    -0.096 C 
ATOM     25  H   UNL     1      58.801 106.327  31.174  0.00  0.00    -0.082 HD
ATOM     26  C   UNL     1      56.718 106.771  31.398  0.00  0.00    -0.064 C 
ATOM     27  C   UNL     1      56.232 105.436  30.766  0.00  0.00    +0.066 C 
ENDBRANCH  19  20
ENDBRANCH  18  19
ENDBRANCH  14  15
ENDBRANCH  12  13
TORSDOF 6
ENDMDL
MODEL 3
REMARK VINA RESULT:      -8.6     17.207     22.797
REMARK  Name = C:\Users\Docking\Desktop\test protocol\1iep_ligandH.pdb
REMARK  8 active torsions:
REMARK  status: ('A' for Active; 'I' for Inactive)
REMARK    1  A    between atoms: _5  and  _11
REMARK    2  A    between atoms: _19  and  _21
REMARK    3  A    between atoms: _22  and  _66
REMARK    4  A    between atoms: _27  and  _30
REMARK    5  A    between atoms: _32  and  _33
REMARK    6  A    between atoms: _38  and  _43
REMARK    7  A    between atoms: _43  and  _46
REMARK    8  A    between atoms: _53  and  _55
REMARK                            x       y       z     vdW  Elec       q    Type
REMARK                         _______ _______ _______ _____ _____    ______ ____
ROOT
ATOM     10  C   UNL     1      60.812  87.572  32.451  0.00  0.00    +0.038 A 
ATOM     11  C   UNL     1      59.435  87.827  32.227  0.00  0.00    +0.047 A 
ATOM     12  C   UNL     1      58.676  88.694  33.116  0.00  0.00    +0.035 A 
ATOM     32  C   UNL     1      59.352  89.287  34.221  0.00  0.00    +0.024 A 
ATOM     33  C   UNL     1      60.752  89.037  34.465  0.00  0.00    +0.007 A 
ATOM     34  C   UNL     1      61.505  88.181  33.593  0.00  0.00    -0.029 A 
ATOM     35  C   UNL     1      63.001  87.944  33.906  0.00  0.00    +0.045 C 
ENDROOT
BRANCH  10   9
ATOM      4  C   UNL     1      62.340  83.241  31.057  0.00  0.00    +0.077 A 
ATOM      5  C   UNL     1      61.757  82.601  32.201  0.00  0.00    +0.048 A 
ATOM      6  C   UNL     1      61.079  83.424  33.128  0.00  0.00    +0.116 A 
ATOM      7  N   UNL     1      60.996  84.783  32.917  0.00  0.00    -0.223 NA
ATOM      8  C   UNL     1      61.570  85.368  31.804  0.00  0.00    +0.220 A 
ATOM      9  N   UNL     1      61.492  86.732  31.567  0.00  0.00    -0.283 N 
ATOM     36  H   UNL     1      61.936  87.126  30.738  0.00  0.00    +0.155 HD
ATOM     37  N   UNL     1      62.225  84.605  30.904  0.00  0.00    -0.214 NA
BRANCH   4   3
ATOM      1  C   UNL     1      64.217  82.379  27.735  0.00  0.00    +0.020 A 
ATOM      2  C   UNL     1      63.498  83.132  28.736  0.00  0.00    +0.013 A 
ATOM      3  C   UNL     1      63.086  82.507  29.986  0.00  0.00    +0.019 A 
ATOM     38  C   UNL     1      63.421  81.106  30.194  0.00  0.00    +0.120 A 
ATOM     39  N   UNL     1      64.113  80.405  29.212  0.00  0.00    -0.263 NA
ATOM     40  C   UNL     1      64.513  80.996  28.004  0.00  0.00    +0.111 A 
ENDBRANCH   4   3
ENDBRANCH  10   9
BRANCH  12  13
ATOM     13  N   UNL     1      57.274  88.983  32.943  0.00  0.00    -0.281 N 
ATOM     14  C   UNL     1      56.214  88.555  33.725  0.00  0.00    +0.248 C 
ATOM     30  O   UNL     1      56.290  87.679  34.573  0.00  0.00    -0.270 OA
ATOM     31  H   UNL     1      57.034  89.575  32.148  0.00  0.00    +0.155 HD
BRANCH  14  15
ATOM     15  C   UNL     1      54.871  89.182  33.527  0.00  0.00    +0.037 A 
ATOM     16  C   UNL     1      54.706  90.376  32.695  0.00  0.00    +0.013 A 
ATOM     17  C   UNL     1      53.402  90.971  32.534  0.00  0.00    +0.005 A 
ATOM     18  C   UNL     1      52.253  90.369  33.206  0.00  0.00    -0.033 A 
ATOM     28  C   UNL     1      52.445  89.182  34.021  0.00  0.00    +0.005 A 
ATOM     29  C   UNL     1      53.721  88.597  34.182  0.00  0.00    +0.013 A 
BRANCH  18  19
ATOM     19  C   UNL     1      50.829  90.949  33.107  0.00  0.00    +0.119 C 
BRANCH  19  20
ATOM     20  N   UNL     1      50.133  91.273  34.388  0.00  0.00    -0.302 NA
ATOM     21  C   UNL     1      48.751  91.887  34.151  0.00  0.00    +0.066 C 
ATOM     22  C   UNL     1      48.027  92.200  35.501  0.00  0.00    -0.064 C 
ATOM     23  N   UNL     1      48.900  93.137  36.338  0.00  0.00    +0.379 N 
ATOM     24  C   UNL     1      48.197  93.480  37.583  0.00  0.00    -0.096 C 
ATOM     25  H   UNL     1      49.038  94.079  35.758  0.00  0.00    -0.082 HD
ATOM     26  C   UNL     1      50.277  92.535  36.577  0.00  0.00    -0.064 C 
ATOM     27  C   UNL     1      50.975  92.201  35.229  0.00  0.00    +0.066 C 
ENDBRANCH  19  20
ENDBRANCH  18  19
ENDBRANCH  14  15
ENDBRANCH  12  13
TORSDOF 6
ENDMDL
MODEL 4
REMARK VINA RESULT:      -8.5      1.986      2.943
REMARK  Name = C:\Users\Docking\Desktop\test protocol\1iep_ligandH.pdb
REMARK  8 active torsions:
REMARK  status: ('A' for Active; 'I' for Inactive)
REMARK    1  A    between atoms: _5  and  _11
REMARK    2  A    between atoms: _19  and  _21
REMARK    3  A    between atoms: _22  and  _66
REMARK    4  A    between atoms: _27  and  _30
REMARK    5  A    between atoms: _32  and  _33
REMARK    6  A    between atoms: _38  and  _43
REMARK    7  A    between atoms: _43  and  _46
REMARK    8  A    between atoms: _53  and  _55
REMARK                            x       y       z     vdW  Elec       q    Type
REMARK                         _______ _______ _______ _____ _____    ______ ____
ROOT
ATOM     10  C   UNL     1      46.231 102.731  29.386  0.00  0.00    +0.038 A 
ATOM     11  C   UNL     1      47.537 103.152  29.027  0.00  0.00    +0.047 A 
ATOM     12  C   UNL     1      48.632 103.103  29.983  0.00  0.00    +0.035 A 
ATOM     32  C   UNL     1      48.362 102.616  31.295  0.00  0.00    +0.024 A 
ATOM     33  C   UNL     1      47.040 102.185  31.677  0.00  0.00    +0.007 A 
ATOM     34  C   UNL     1      45.955 102.234  30.739  0.00  0.00    -0.029 A 
ATOM     35  C   UNL     1      44.557 101.765  31.205  0.00  0.00    +0.045 C 
ENDROOT
BRANCH  10   9
ATOM      4  C   UNL     1      42.803 105.110  27.014  0.00  0.00    +0.077 A 
ATOM      5  C   UNL     1      43.034 106.311  27.765  0.00  0.00    +0.048 A 
ATOM      6  C   UNL     1      44.039 106.272  28.757  0.00  0.00    +0.116 A 
ATOM      7  N   UNL     1      44.754 105.114  28.974  0.00  0.00    -0.223 NA
ATOM      8  C   UNL     1      44.504 103.973  28.233  0.00  0.00    +0.220 A 
ATOM      9  N   UNL     1      45.216 102.799  28.428  0.00  0.00    -0.283 N 
ATOM     36  H   UNL     1      44.997 101.977  27.866  0.00  0.00    +0.155 HD
ATOM     37  N   UNL     1      43.549 103.984  27.281  0.00  0.00    -0.214 NA
BRANCH   4   3
ATOM      1  C   UNL     1      40.870 105.547  23.641  0.00  0.00    +0.020 A 
ATOM      2  C   UNL     1      41.889 105.694  24.656  0.00  0.00    +0.013 A 
ATOM      3  C   UNL     1      41.777 104.995  25.930  0.00  0.00    +0.019 A 
ATOM     38  C   UNL     1      40.613 104.149  26.147  0.00  0.00    +0.120 A 
ATOM     39  N   UNL     1      39.648 104.028  25.153  0.00  0.00    -0.263 NA
ATOM     40  C   UNL     1      39.744 104.697  23.924  0.00  0.00    +0.111 A 
ENDBRANCH   4   3
ENDBRANCH  10   9
BRANCH  12  13
ATOM     13  N   UNL     1      49.977 103.524  29.679  0.00  0.00    -0.281 N 
ATOM     14  C   UNL     1      51.130 102.757  29.675  0.00  0.00    +0.248 C 
ATOM     30  O   UNL     1      51.212 101.631  30.144  0.00  0.00    -0.270 OA
ATOM     31  H   UNL     1      50.093 104.508  29.436  0.00  0.00    +0.155 HD
BRANCH  14  15
ATOM     15  C   UNL     1      52.376 103.327  29.078  0.00  0.00    +0.037 A 
ATOM     16  C   UNL     1      52.343 104.061  27.810  0.00  0.00    +0.013 A 
ATOM     17  C   UNL     1      53.562 104.586  27.247  0.00  0.00    +0.005 A 
ATOM     18  C   UNL     1      54.824 104.380  27.954  0.00  0.00    -0.033 A 
ATOM     28  C   UNL     1      54.827 103.653  29.212  0.00  0.00    +0.005 A 
ATOM     29  C   UNL     1      53.634 103.136  29.766  0.00  0.00    +0.013 A 
BRANCH  18  19
ATOM     19  C   UNL     1      56.176 104.887  27.416  0.00  0.00    +0.119 C 
BRANCH  19  20
ATOM     20  N   UNL     1      57.217 103.862  27.107  0.00  0.00    -0.302 NA
ATOM     21  C   UNL     1      58.514 104.496  26.598  0.00  0.00    +0.066 C 
ATOM     22  C   UNL     1      59.600 103.411  26.302  0.00  0.00    -0.064 C 
ATOM     23  N   UNL     1      59.051 102.409  25.284  0.00  0.00    +0.379 N 
ATOM     24  C   UNL     1      60.089 101.421  24.959  0.00  0.00    -0.096 C 
ATOM     25  H   UNL     1      58.814 102.971  24.350  0.00  0.00    -0.082 HD
ATOM     26  C   UNL     1      57.759 101.776  25.781  0.00  0.00    -0.064 C 
ATOM     27  C   UNL     1      56.697 102.865  26.101  0.00  0.00    +0.066 C 
ENDBRANCH  19  20
ENDBRANCH  18  19
ENDBRANCH  14  15
ENDBRANCH  12  13
TORSDOF 6
ENDMDL
MODEL 5
REMARK VINA RESULT:      -8.5      2.051      2.861
REMARK  Name = C:\Users\Docking\Desktop\test protocol\1iep_ligandH.pdb
REMARK  8 active torsions:
REMARK  status: ('A' for Active; 'I' for Inactive)
REMARK    1  A    between atoms: _5  and  _11
REMARK    2  A    between atoms: _19  and  _21
REMARK    3  A    between atoms: _22  and  _66
REMARK    4  A    between atoms: _27  and  _30
REMARK    5  A    between atoms: _32  and  _33
REMARK    6  A    between atoms: _38  and  _43
REMARK    7  A    between atoms: _43  and  _46
REMARK    8  A    between atoms: _53  and  _55
REMARK                            x       y       z     vdW  Elec       q    Type
REMARK                         _______ _______ _______ _____ _____    ______ ____
ROOT
ATOM     10  C   UNL     1      45.363 102.784  28.851  0.00  0.00    +0.038 A 
ATOM     11  C   UNL     1      46.740 103.094  28.710  0.00  0.00    +0.047 A 
ATOM     12  C   UNL     1      47.664 102.944  29.824  0.00  0.00    +0.035 A 
ATOM     32  C   UNL     1      47.151 102.472  31.067  0.00  0.00    +0.024 A 
ATOM     33  C   UNL     1      45.754 102.153  31.229  0.00  0.00    +0.007 A 
ATOM     34  C   UNL     1      44.838 102.302  30.134  0.00  0.00    -0.029 A 
ATOM     35  C   UNL     1      43.350 101.951  30.366  0.00  0.00    +0.045 C 
ENDROOT
BRANCH  10   9
ATOM      4  C   UNL     1      43.419 105.455  25.369  0.00  0.00    +0.077 A 
ATOM      5  C   UNL     1      44.119 106.631  25.799  0.00  0.00    +0.048 A 
ATOM      6  C   UNL     1      44.964 106.508  26.925  0.00  0.00    +0.116 A 
ATOM      7  N   UNL     1      45.092 105.294  27.565  0.00  0.00    -0.223 NA
ATOM      8  C   UNL     1      44.402 104.180  27.125  0.00  0.00    +0.220 A 
ATOM      9  N   UNL     1      44.522 102.948  27.749  0.00  0.00    -0.283 N 
ATOM     36  H   UNL     1      43.989 102.151  27.398  0.00  0.00    +0.155 HD
ATOM     37  N   UNL     1      43.587 104.272  26.053  0.00  0.00    -0.214 NA
BRANCH   4   3
ATOM      1  C   UNL     1      40.191 105.352  23.162  0.00  0.00    +0.020 A 
ATOM      2  C   UNL     1      41.042 105.380  24.330  0.00  0.00    +0.013 A 
ATOM      3  C   UNL     1      42.492 105.424  24.194  0.00  0.00    +0.019 A 
ATOM     38  C   UNL     1      43.054 105.441  22.852  0.00  0.00    +0.120 A 
ATOM     39  N   UNL     1      42.210 105.412  21.746  0.00  0.00    -0.263 NA
ATOM     40  C   UNL     1      40.813 105.367  21.865  0.00  0.00    +0.111 A 
ENDBRANCH   4   3
ENDBRANCH  10   9
BRANCH  12  13
ATOM     13  N   UNL     1      49.070 103.250  29.742  0.00  0.00    -0.281 N 
ATOM     14  C   UNL     1      50.141 102.428  30.054  0.00  0.00    +0.248 C 
ATOM     30  O   UNL     1      50.046 101.370  30.657  0.00  0.00    -0.270 OA
ATOM     31  H   UNL     1      49.305 104.187  29.414  0.00  0.00    +0.155 HD
BRANCH  14  15
ATOM     15  C   UNL     1      51.516 102.850  29.650  0.00  0.00    +0.037 A 
ATOM     16  C   UNL     1      52.698 102.398  30.390  0.00  0.00    +0.013 A 
ATOM     17  C   UNL     1      54.012 102.833  29.989  0.00  0.00    +0.005 A 
ATOM     18  C   UNL     1      54.152 103.725  28.841  0.00  0.00    -0.033 A 
ATOM     28  C   UNL     1      52.964 104.154  28.122  0.00  0.00    +0.005 A 
ATOM     29  C   UNL     1      51.674 103.730  28.512  0.00  0.00    +0.013 A 
BRANCH  18  19
ATOM     19  C   UNL     1      55.514 104.257  28.356  0.00  0.00    +0.119 C 
BRANCH  19  20
ATOM     20  N   UNL     1      55.831 104.103  26.905  0.00  0.00    -0.302 NA
ATOM     21  C   UNL     1      56.761 102.915  26.643  0.00  0.00    +0.066 C 
ATOM     22  C   UNL     1      57.064 102.755  25.117  0.00  0.00    -0.064 C 
ATOM     23  N   UNL     1      57.676 104.051  24.583  0.00  0.00    +0.379 N 
ATOM     24  C   UNL     1      58.015 103.883  23.162  0.00  0.00    -0.096 C 
ATOM     25  H   UNL     1      58.625 104.231  25.139  0.00  0.00    -0.082 HD
ATOM     26  C   UNL     1      56.758 105.237  24.841  0.00  0.00    -0.064 C 
ATOM     27  C   UNL     1      56.440 105.370  26.357  0.00  0.00    +0.066 C 
ENDBRANCH  19  20
ENDBRANCH  18  19
ENDBRANCH  14  15
ENDBRANCH  12  13
TORSDOF 6
ENDMDL
