MODEL 1
REMARK VINA RESULT:     -11.1      0.000      0.000
REMARK  Name = C:\Users\Docking\Desktop\test protocol\1iep_ligandH.pdb
REMARK  8 active torsions:
REMARK  status: ('A' for Active; 'I' for Inactive)
REMARK    1  A    between atoms: _5  and  _11
REMARK    2  A    between atoms: _19  and  _21
REMARK    3  A    between atoms: _22  and  _66
REMARK    4  A    between atoms: _27  and  _30
REMARK    5  A    between atoms: _32  and  _33
REMARK    6  A    between atoms: _38  and  _43
REMARK    7  A    between atoms: _43  and  _46
REMARK    8  A    between atoms: _53  and  _55
REMARK                            x       y       z     vdW  Elec       q    Type
REMARK                         _______ _______ _______ _____ _____    ______ ____
ROOT
ATOM     10  C   UNL     1      -2.941  24.206   8.405  0.00  0.00    +0.038 A 
ATOM     11  C   UNL     1      -2.308  25.395   8.848  0.00  0.00    +0.047 A 
ATOM     12  C   UNL     1      -2.417  25.837  10.229  0.00  0.00    +0.035 A 
ATOM     32  C   UNL     1      -3.178  25.040  11.135  0.00  0.00    +0.024 A 
ATOM     33  C   UNL     1      -3.829  23.830  10.701  0.00  0.00    +0.007 A 
ATOM     34  C   UNL     1      -3.727  23.391   9.339  0.00  0.00    -0.029 A 
ATOM     35  C   UNL     1      -4.452  22.088   8.928  0.00  0.00    +0.045 C 
ENDROOT
BRANCH  10   9
ATOM      4  C   UNL     1      -0.799  21.710   4.910  0.00  0.00    +0.077 A 
ATOM      5  C   UNL     1       0.142  21.127   5.823  0.00  0.00    +0.048 A 
ATOM      6  C   UNL     1       0.045  21.501   7.182  0.00  0.00    +0.116 A 
ATOM      7  N   UNL     1      -0.924  22.392   7.587  0.00  0.00    -0.223 NA
ATOM      8  C   UNL     1      -1.815  22.937   6.680  0.00  0.00    +0.220 A 
ATOM      9  N   UNL     1      -2.803  23.830   7.067  0.00  0.00    -0.283 N 
ATOM     36  H   UNL     1      -3.436  24.215   6.367  0.00  0.00    +0.155 HD
ATOM     37  N   UNL     1      -1.743  22.597   5.377  0.00  0.00    -0.214 NA
BRANCH   4   3
ATOM      1  C   UNL     1      -0.089  20.109   1.412  0.00  0.00    +0.020 A 
ATOM      2  C   UNL     1      -0.025  20.357   2.834  0.00  0.00    +0.013 A 
ATOM      3  C   UNL     1      -0.826  21.411   3.443  0.00  0.00    +0.019 A 
ATOM     38  C   UNL     1      -1.690  22.201   2.579  0.00  0.00    +0.120 A 
ATOM     39  N   UNL     1      -1.729  21.941   1.213  0.00  0.00    -0.263 NA
ATOM     40  C   UNL     1      -0.961  20.930   0.615  0.00  0.00    +0.111 A 
ENDBRANCH   4   3
ENDBRANCH  10   9
BRANCH  12  13
ATOM     13  N   UNL     1      -1.803  27.039  10.735  0.00  0.00    -0.281 N 
ATOM     14  C   UNL     1      -2.290  28.334  10.675  0.00  0.00    +0.248 C 
ATOM     30  O   UNL     1      -3.235  28.686   9.985  0.00  0.00    -0.270 OA
ATOM     31  H   UNL     1      -0.898  26.921  11.192  0.00  0.00    +0.155 HD
BRANCH  14  15
ATOM     15  C   UNL     1      -1.622  29.395  11.489  0.00  0.00    +0.037 A 
ATOM     16  C   UNL     1      -0.277  29.873  11.157  0.00  0.00    +0.013 A 
ATOM     17  C   UNL     1       0.351  30.885  11.969  0.00  0.00    +0.005 A 
ATOM     18  C   UNL     1      -0.367  31.428  13.120  0.00  0.00    -0.033 A 
ATOM     28  C   UNL     1      -1.702  30.940  13.422  0.00  0.00    +0.005 A 
ATOM     29  C   UNL     1      -2.320  29.947  12.630  0.00  0.00    +0.013 A 
BRANCH  18  19
ATOM     19  C   UNL     1       0.235  32.495  14.053  0.00  0.00    +0.119 C 
BRANCH  19  20
ATOM     20  N   UNL     1       0.942  33.644  13.413  0.00  0.00    -0.302 NA
ATOM     21  C   UNL     1       1.848  34.384  14.401  0.00  0.00    +0.066 C 
ATOM     22  C   UNL     1       2.598  35.568  13.708  0.00  0.00    -0.064 C 
ATOM     23  N   UNL     1       1.575  36.524  13.091  0.00  0.00    +0.379 N 
ATOM     24  C   UNL     1       2.274  37.669  12.490  0.00  0.00    -0.096 C 
ATOM     25  H   UNL     1       0.936  36.914  13.917  0.00  0.00    -0.082 HD
ATOM     26  C   UNL     1       0.668  35.796  12.109  0.00  0.00    -0.064 C 
ATOM     27  C   UNL     1      -0.049  34.603  12.800  0.00  0.00    +0.066 C 
ENDBRANCH  19  20
ENDBRANCH  18  19
ENDBRANCH  14  15
ENDBRANCH  12  13
TORSDOF 6
ENDMDL
MODEL 2
REMARK VINA RESULT:     -10.7      0.832      1.181
REMARK  Name = C:\Users\Docking\Desktop\test protocol\1iep_ligandH.pdb
REMARK  8 active torsions:
REMARK  status: ('A' for Active; 'I' for Inactive)
REMARK    1  A    between atoms: _5  and  _11
REMARK    2  A    between atoms: _19  and  _21
REMARK    3  A    between atoms: _22  and  _66
REMARK    4  A    between atoms: _27  and  _30
REMARK    5  A    between atoms: _32  and  _33
REMARK    6  A    between atoms: _38  and  _43
REMARK    7  A    between atoms: _43  and  _46
REMARK    8  A    between atoms: _53  and  _55
REMARK                            x       y       z     vdW  Elec       q    Type
REMARK                         _______ _______ _______ _____ _____    ______ ____
ROOT
ATOM     10  C   UNL     1      -2.869  24.432   8.240  0.00  0.00    +0.038 A 
ATOM     11  C   UNL     1      -2.251  25.650   8.623  0.00  0.00    +0.047 A 
ATOM     12  C   UNL     1      -2.368  26.159   9.981  0.00  0.00    +0.035 A 
ATOM     32  C   UNL     1      -3.119  25.399  10.924  0.00  0.00    +0.024 A 
ATOM     33  C   UNL     1      -3.754  24.159  10.552  0.00  0.00    +0.007 A 
ATOM     34  C   UNL     1      -3.645  23.654   9.213  0.00  0.00    -0.029 A 
ATOM     35  C   UNL     1      -4.352  22.323   8.868  0.00  0.00    +0.045 C 
ENDROOT
BRANCH  10   9
ATOM      4  C   UNL     1      -0.785  21.684   4.902  0.00  0.00    +0.077 A 
ATOM      5  C   UNL     1       0.108  21.097   5.858  0.00  0.00    +0.048 A 
ATOM      6  C   UNL     1       0.004  21.535   7.197  0.00  0.00    +0.116 A 
ATOM      7  N   UNL     1      -0.928  22.489   7.543  0.00  0.00    -0.223 NA
ATOM      8  C   UNL     1      -1.774  23.036   6.596  0.00  0.00    +0.220 A 
ATOM      9  N   UNL     1      -2.724  23.991   6.923  0.00  0.00    -0.283 N 
ATOM     36  H   UNL     1      -3.324  24.375   6.193  0.00  0.00    +0.155 HD
ATOM     37  N   UNL     1      -1.693  22.636   5.310  0.00  0.00    -0.214 NA
BRANCH   4   3
ATOM      1  C   UNL     1      -0.082  19.904   1.490  0.00  0.00    +0.020 A 
ATOM      2  C   UNL     1      -0.033  20.211   2.901  0.00  0.00    +0.013 A 
ATOM      3  C   UNL     1      -0.800  21.323   3.449  0.00  0.00    +0.019 A 
ATOM     38  C   UNL     1      -1.614  22.109   2.535  0.00  0.00    +0.120 A 
ATOM     39  N   UNL     1      -1.641  21.791   1.181  0.00  0.00    -0.263 NA
ATOM     40  C   UNL     1      -0.905  20.725   0.642  0.00  0.00    +0.111 A 
ENDBRANCH   4   3
ENDBRANCH  10   9
BRANCH  12  13
ATOM     13  N   UNL     1      -1.770  27.393  10.426  0.00  0.00    -0.281 N 
ATOM     14  C   UNL     1      -2.361  28.643  10.511  0.00  0.00    +0.248 C 
ATOM     30  O   UNL     1      -3.438  28.934  10.012  0.00  0.00    -0.270 OA
ATOM     31  H   UNL     1      -0.793  27.338  10.713  0.00  0.00    +0.155 HD
BRANCH  14  15
ATOM     15  C   UNL     1      -1.644  29.732  11.243  0.00  0.00    +0.037 A 
ATOM     16  C   UNL     1      -0.329  30.205  10.804  0.00  0.00    +0.013 A 
ATOM     17  C   UNL     1       0.348  31.245  11.538  0.00  0.00    +0.005 A 
ATOM     18  C   UNL     1      -0.292  31.819  12.720  0.00  0.00    -0.033 A 
ATOM     28  C   UNL     1      -1.599  31.334  13.130  0.00  0.00    +0.005 A 
ATOM     29  C   UNL     1      -2.265  30.315  12.413  0.00  0.00    +0.013 A 
BRANCH  18  19
ATOM     19  C   UNL     1       0.366  32.917  13.576  0.00  0.00    +0.119 C 
BRANCH  19  20
ATOM     20  N   UNL     1       0.462  34.283  12.981  0.00  0.00    -0.302 NA
ATOM     21  C   UNL     1      -0.684  34.565  12.004  0.00  0.00    +0.066 C 
ATOM     22  C   UNL     1      -0.581  36.007  11.408  0.00  0.00    -0.064 C 
ATOM     23  N   UNL     1       0.774  36.175  10.718  0.00  0.00    +0.379 N 
ATOM     24  C   UNL     1       0.850  37.510  10.106  0.00  0.00    -0.096 C 
ATOM     25  H   UNL     1       0.830  35.423   9.897  0.00  0.00    -0.082 HD
ATOM     26  C   UNL     1       1.918  35.894  11.681  0.00  0.00    -0.064 C 
ATOM     27  C   UNL     1       1.790  34.470  12.290  0.00  0.00    +0.066 C 
ENDBRANCH  19  20
ENDBRANCH  18  19
ENDBRANCH  14  15
ENDBRANCH  12  13
TORSDOF 6
ENDMDL
MODEL 3
REMARK VINA RESULT:     -10.7      1.423      2.011
REMARK  Name = C:\Users\Docking\Desktop\test protocol\1iep_ligandH.pdb
REMARK  8 active torsions:
REMARK  status: ('A' for Active; 'I' for Inactive)
REMARK    1  A    between atoms: _5  and  _11
REMARK    2  A    between atoms: _19  and  _21
REMARK    3  A    between atoms: _22  and  _66
REMARK    4  A    between atoms: _27  and  _30
REMARK    5  A    between atoms: _32  and  _33
REMARK    6  A    between atoms: _38  and  _43
REMARK    7  A    between atoms: _43  and  _46
REMARK    8  A    between atoms: _53  and  _55
REMARK                            x       y       z     vdW  Elec       q    Type
REMARK                         _______ _______ _______ _____ _____    ______ ____
ROOT
ATOM     10  C   UNL     1      -3.024  24.312   8.440  0.00  0.00    +0.038 A 
ATOM     11  C   UNL     1      -2.377  25.497   8.878  0.00  0.00    +0.047 A 
ATOM     12  C   UNL     1      -2.503  25.959  10.251  0.00  0.00    +0.035 A 
ATOM     32  C   UNL     1      -3.293  25.189  11.154  0.00  0.00    +0.024 A 
ATOM     33  C   UNL     1      -3.958  23.983  10.726  0.00  0.00    +0.007 A 
ATOM     34  C   UNL     1      -3.840  23.524   9.371  0.00  0.00    -0.029 A 
ATOM     35  C   UNL     1      -4.580  22.228   8.966  0.00  0.00    +0.045 C 
ENDROOT
BRANCH  10   9
ATOM      4  C   UNL     1      -0.842  21.756   5.013  0.00  0.00    +0.077 A 
ATOM      5  C   UNL     1       0.085  21.185   5.947  0.00  0.00    +0.048 A 
ATOM      6  C   UNL     1      -0.029  21.581   7.299  0.00  0.00    +0.116 A 
ATOM      7  N   UNL     1      -1.001  22.481   7.677  0.00  0.00    -0.223 NA
ATOM      8  C   UNL     1      -1.878  23.014   6.751  0.00  0.00    +0.220 A 
ATOM      9  N   UNL     1      -2.869  23.915   7.110  0.00  0.00    -0.283 N 
ATOM     36  H   UNL     1      -3.492  24.291   6.396  0.00  0.00    +0.155 HD
ATOM     37  N   UNL     1      -1.790  22.653   5.454  0.00  0.00    -0.214 NA
BRANCH   4   3
ATOM      1  C   UNL     1      -0.115  20.079   1.555  0.00  0.00    +0.020 A 
ATOM      2  C   UNL     1      -0.070  20.348   2.974  0.00  0.00    +0.013 A 
ATOM      3  C   UNL     1      -0.851  21.435   3.551  0.00  0.00    +0.019 A 
ATOM     38  C   UNL     1      -1.675  22.236   2.658  0.00  0.00    +0.120 A 
ATOM     39  N   UNL     1      -1.697  21.955   1.296  0.00  0.00    -0.263 NA
ATOM     40  C   UNL     1      -0.948  20.913   0.729  0.00  0.00    +0.111 A 
ENDBRANCH   4   3
ENDBRANCH  10   9
BRANCH  12  13
ATOM     13  N   UNL     1      -1.876  27.158  10.751  0.00  0.00    -0.281 N 
ATOM     14  C   UNL     1      -2.370  28.452  10.724  0.00  0.00    +0.248 C 
ATOM     30  O   UNL     1      -3.340  28.808  10.071  0.00  0.00    -0.270 OA
ATOM     31  H   UNL     1      -0.956  27.038  11.175  0.00  0.00    +0.155 HD
BRANCH  14  15
ATOM     15  C   UNL     1      -1.679  29.505  11.528  0.00  0.00    +0.037 A 
ATOM     16  C   UNL     1      -2.314  30.100  12.707  0.00  0.00    +0.013 A 
ATOM     17  C   UNL     1      -1.633  31.127  13.454  0.00  0.00    +0.005 A 
ATOM     18  C   UNL     1      -0.306  31.564  13.026  0.00  0.00    -0.033 A 
ATOM     28  C   UNL     1       0.303  30.953  11.856  0.00  0.00    +0.005 A 
ATOM     29  C   UNL     1      -0.363  29.947  11.120  0.00  0.00    +0.013 A 
BRANCH  18  19
ATOM     19  C   UNL     1       0.485  32.668  13.751  0.00  0.00    +0.119 C 
BRANCH  19  20
ATOM     20  N   UNL     1      -0.262  33.518  14.726  0.00  0.00    -0.302 NA
ATOM     21  C   UNL     1      -0.330  34.981  14.279  0.00  0.00    +0.066 C 
ATOM     22  C   UNL     1      -1.135  35.850  15.299  0.00  0.00    -0.064 C 
ATOM     23  N   UNL     1      -0.491  35.736  16.682  0.00  0.00    +0.379 N 
ATOM     24  C   UNL     1      -1.211  36.598  17.631  0.00  0.00    -0.096 C 
ATOM     25  H   UNL     1       0.553  36.119  16.601  0.00  0.00    -0.082 HD
ATOM     26  C   UNL     1      -0.417  34.284  17.133  0.00  0.00    -0.064 C 
ATOM     27  C   UNL     1       0.359  33.423  16.098  0.00  0.00    +0.066 C 
ENDBRANCH  19  20
ENDBRANCH  18  19
ENDBRANCH  14  15
ENDBRANCH  12  13
TORSDOF 6
ENDMDL
MODEL 4
REMARK VINA RESULT:     -10.4      1.948      2.454
REMARK  Name = C:\Users\Docking\Desktop\test protocol\1iep_ligandH.pdb
REMARK  8 active torsions:
REMARK  status: ('A' for Active; 'I' for Inactive)
REMARK    1  A    between atoms: _5  and  _11
REMARK    2  A    between atoms: _19  and  _21
REMARK    3  A    between atoms: _22  and  _66
REMARK    4  A    between atoms: _27  and  _30
REMARK    5  A    between atoms: _32  and  _33
REMARK    6  A    between atoms: _38  and  _43
REMARK    7  A    between atoms: _43  and  _46
REMARK    8  A    between atoms: _53  and  _55
REMARK                            x       y       z     vdW  Elec       q    Type
REMARK                         _______ _______ _______ _____ _____    ______ ____
ROOT
ATOM     10  C   UNL     1      -3.342  24.673   8.596  0.00  0.00    +0.038 A 
ATOM     11  C   UNL     1      -2.842  25.966   8.894  0.00  0.00    +0.047 A 
ATOM     12  C   UNL     1      -3.082  26.585  10.189  0.00  0.00    +0.035 A 
ATOM     32  C   UNL     1      -3.833  25.857  11.157  0.00  0.00    +0.024 A 
ATOM     33  C   UNL     1      -4.349  24.542  10.870  0.00  0.00    +0.007 A 
ATOM     34  C   UNL     1      -4.118  23.927   9.594  0.00  0.00    -0.029 A 
ATOM     35  C   UNL     1      -4.702  22.518   9.340  0.00  0.00    +0.045 C 
ENDROOT
BRANCH  10   9
ATOM      4  C   UNL     1      -0.815  21.855   5.645  0.00  0.00    +0.077 A 
ATOM      5  C   UNL     1       0.080  21.459   6.693  0.00  0.00    +0.048 A 
ATOM      6  C   UNL     1      -0.140  22.009   7.976  0.00  0.00    +0.116 A 
ATOM      7  N   UNL     1      -1.181  22.888   8.183  0.00  0.00    -0.223 NA
ATOM      8  C   UNL     1      -2.025  23.250   7.150  0.00  0.00    +0.220 A 
ATOM      9  N   UNL     1      -3.083  24.126   7.337  0.00  0.00    -0.283 N 
ATOM     36  H   UNL     1      -3.678  24.374   6.547  0.00  0.00    +0.155 HD
ATOM     37  N   UNL     1      -1.835  22.740   5.915  0.00  0.00    -0.214 NA
BRANCH   4   3
ATOM      1  C   UNL     1       0.116  19.736   2.491  0.00  0.00    +0.020 A 
ATOM      2  C   UNL     1       0.051  20.174   3.866  0.00  0.00    +0.013 A 
ATOM      3  C   UNL     1      -0.714  21.358   4.236  0.00  0.00    +0.019 A 
ATOM     38  C   UNL     1      -1.409  22.082   3.182  0.00  0.00    +0.120 A 
ATOM     39  N   UNL     1      -1.327  21.637   1.866  0.00  0.00    -0.263 NA
ATOM     40  C   UNL     1      -0.592  20.500   1.498  0.00  0.00    +0.111 A 
ENDBRANCH   4   3
ENDBRANCH  10   9
BRANCH  12  13
ATOM     13  N   UNL     1      -2.606  27.898  10.546  0.00  0.00    -0.281 N 
ATOM     14  C   UNL     1      -2.296  28.378  11.808  0.00  0.00    +0.248 C 
ATOM     30  O   UNL     1      -2.585  27.813  12.852  0.00  0.00    -0.270 OA
ATOM     31  H   UNL     1      -2.483  28.555   9.775  0.00  0.00    +0.155 HD
BRANCH  14  15
ATOM     15  C   UNL     1      -1.572  29.680  11.928  0.00  0.00    +0.037 A 
ATOM     16  C   UNL     1      -2.120  30.784  12.720  0.00  0.00    +0.013 A 
ATOM     17  C   UNL     1      -1.410  32.035  12.805  0.00  0.00    +0.005 A 
ATOM     18  C   UNL     1      -0.141  32.188  12.097  0.00  0.00    -0.033 A 
ATOM     28  C   UNL     1       0.382  31.075  11.323  0.00  0.00    +0.005 A 
ATOM     29  C   UNL     1      -0.312  29.848  11.236  0.00  0.00    +0.013 A 
BRANCH  18  19
ATOM     19  C   UNL     1       0.674  33.495  12.115  0.00  0.00    +0.119 C 
BRANCH  19  20
ATOM     20  N   UNL     1       0.621  34.350  10.892  0.00  0.00    -0.302 NA
ATOM     21  C   UNL     1      -0.785  34.405  10.289  0.00  0.00    +0.066 C 
ATOM     22  C   UNL     1      -0.827  35.323   9.024  0.00  0.00    -0.064 C 
ATOM     23  N   UNL     1       0.183  34.814   7.995  0.00  0.00    +0.379 N 
ATOM     24  C   UNL     1       0.105  35.639   6.781  0.00  0.00    -0.096 C 
ATOM     25  H   UNL     1      -0.112  33.775   7.717  0.00  0.00    -0.082 HD
ATOM     26  C   UNL     1       1.584  34.753   8.586  0.00  0.00    -0.064 C 
ATOM     27  C   UNL     1       1.609  33.863   9.860  0.00  0.00    +0.066 C 
ENDBRANCH  19  20
ENDBRANCH  18  19
ENDBRANCH  14  15
ENDBRANCH  12  13
TORSDOF 6
ENDMDL
MODEL 5
REMARK VINA RESULT:     -10.4      1.670      2.162
REMARK  Name = C:\Users\Docking\Desktop\test protocol\1iep_ligandH.pdb
REMARK  8 active torsions:
REMARK  status: ('A' for Active; 'I' for Inactive)
REMARK    1  A    between atoms: _5  and  _11
REMARK    2  A    between atoms: _19  and  _21
REMARK    3  A    between atoms: _22  and  _66
REMARK    4  A    between atoms: _27  and  _30
REMARK    5  A    between atoms: _32  and  _33
REMARK    6  A    between atoms: _38  and  _43
REMARK    7  A    between atoms: _43  and  _46
REMARK    8  A    between atoms: _53  and  _55
REMARK                            x       y       z     vdW  Elec       q    Type
REMARK                         _______ _______ _______ _____ _____    ______ ____
ROOT
ATOM     10  C   UNL     1      -3.155  25.090   8.367  0.00  0.00    +0.038 A 
ATOM     11  C   UNL     1      -2.711  26.429   8.513  0.00  0.00    +0.047 A 
ATOM     12  C   UNL     1      -2.952  27.171   9.741  0.00  0.00    +0.035 A 
ATOM     32  C   UNL     1      -3.645  26.518  10.801  0.00  0.00    +0.024 A 
ATOM     33  C   UNL     1      -4.104  25.157  10.669  0.00  0.00    +0.007 A 
ATOM     34  C   UNL     1      -3.872  24.421   9.459  0.00  0.00    -0.029 A 
ATOM     35  C   UNL     1      -4.392  22.967   9.371  0.00  0.00    +0.045 C 
ENDROOT
BRANCH  10   9
ATOM      4  C   UNL     1      -0.759  21.857   5.750  0.00  0.00    +0.077 A 
ATOM      5  C   UNL     1       0.066  21.481   6.862  0.00  0.00    +0.048 A 
ATOM      6  C   UNL     1      -0.154  22.148   8.088  0.00  0.00    +0.116 A 
ATOM      7  N   UNL     1      -1.128  23.118   8.183  0.00  0.00    -0.223 NA
ATOM      8  C   UNL     1      -1.905  23.458   7.091  0.00  0.00    +0.220 A 
ATOM      9  N   UNL     1      -2.897  24.424   7.167  0.00  0.00    -0.283 N 
ATOM     36  H   UNL     1      -3.443  24.651   6.336  0.00  0.00    +0.155 HD
ATOM     37  N   UNL     1      -1.715  22.836   5.909  0.00  0.00    -0.214 NA
BRANCH   4   3
ATOM      1  C   UNL     1       0.130  19.436   2.809  0.00  0.00    +0.020 A 
ATOM      2  C   UNL     1       0.055  19.989   4.142  0.00  0.00    +0.013 A 
ATOM      3  C   UNL     1      -0.651  21.240   4.390  0.00  0.00    +0.019 A 
ATOM     38  C   UNL     1      -1.275  21.911   3.260  0.00  0.00    +0.120 A 
ATOM     39  N   UNL     1      -1.184  21.355   1.988  0.00  0.00    -0.263 NA
ATOM     40  C   UNL     1      -0.507  20.153   1.736  0.00  0.00    +0.111 A 
ENDBRANCH   4   3
ENDBRANCH  10   9
BRANCH  12  13
ATOM     13  N   UNL     1      -2.533  28.536   9.944  0.00  0.00    -0.281 N 
ATOM     14  C   UNL     1      -1.360  28.989  10.527  0.00  0.00    +0.248 C 
ATOM     30  O   UNL     1      -0.586  28.285  11.158  0.00  0.00    -0.270 OA
ATOM     31  H   UNL     1      -3.178  29.255   9.619  0.00  0.00    +0.155 HD
BRANCH  14  15
ATOM     15  C   UNL     1      -1.004  30.435  10.402  0.00  0.00    +0.037 A 
ATOM     16  C   UNL     1      -2.031  31.453  10.168  0.00  0.00    +0.013 A 
ATOM     17  C   UNL     1      -1.658  32.839  10.034  0.00  0.00    +0.005 A 
ATOM     18  C   UNL     1      -0.250  33.215  10.137  0.00  0.00    -0.033 A 
ATOM     28  C   UNL     1       0.748  32.185  10.376  0.00  0.00    +0.005 A 
ATOM     29  C   UNL     1       0.386  30.825  10.506  0.00  0.00    +0.013 A 
BRANCH  18  19
ATOM     19  C   UNL     1       0.242  34.667   9.987  0.00  0.00    +0.119 C 
BRANCH  19  20
ATOM     20  N   UNL     1       0.816  35.323  11.199  0.00  0.00    -0.302 NA
ATOM     21  C   UNL     1       0.369  36.782  11.329  0.00  0.00    +0.066 C 
ATOM     22  C   UNL     1       0.962  37.447  12.614  0.00  0.00    -0.064 C 
ATOM     23  N   UNL     1       2.488  37.349  12.578  0.00  0.00    +0.379 N 
ATOM     24  C   UNL     1       3.050  38.024  13.757  0.00  0.00    -0.096 C 
ATOM     25  H   UNL     1       2.840  37.897  11.674  0.00  0.00    -0.082 HD
ATOM     26  C   UNL     1       2.941  35.902  12.447  0.00  0.00    -0.064 C 
ATOM     27  C   UNL     1       2.323  35.242  11.182  0.00  0.00    +0.066 C 
ENDBRANCH  19  20
ENDBRANCH  18  19
ENDBRANCH  14  15
ENDBRANCH  12  13
TORSDOF 6
ENDMDL
