MODEL 1
REMARK VINA RESULT:      -8.6      0.000      0.000
REMARK  Name = C:\Users\Docking\Desktop\test protocol\1iep_ligandH.pdb
REMARK  8 active torsions:
REMARK  status: ('A' for Active; 'I' for Inactive)
REMARK    1  A    between atoms: _5  and  _11
REMARK    2  A    between atoms: _19  and  _21
REMARK    3  A    between atoms: _22  and  _66
REMARK    4  A    between atoms: _27  and  _30
REMARK    5  A    between atoms: _32  and  _33
REMARK    6  A    between atoms: _38  and  _43
REMARK    7  A    between atoms: _43  and  _46
REMARK    8  A    between atoms: _53  and  _55
REMARK                            x       y       z     vdW  Elec       q    Type
REMARK                         _______ _______ _______ _____ _____    ______ ____
ROOT
ATOM     10  C   UNL     1      60.222  87.500  32.485  0.00  0.00    +0.038 A 
ATOM     11  C   UNL     1      58.827  87.724  32.358  0.00  0.00    +0.047 A 
ATOM     12  C   UNL     1      58.232  88.996  32.739  0.00  0.00    +0.035 A 
ATOM     32  C   UNL     1      59.087  90.018  33.242  0.00  0.00    +0.024 A 
ATOM     33  C   UNL     1      60.507  89.807  33.379  0.00  0.00    +0.007 A 
ATOM     34  C   UNL     1      61.099  88.554  33.007  0.00  0.00    -0.029 A 
ATOM     35  C   UNL     1      62.626  88.381  33.181  0.00  0.00    +0.045 C 
ENDROOT
BRANCH  10   9
ATOM      4  C   UNL     1      61.033  82.833  33.260  0.00  0.00    +0.077 A 
ATOM      5  C   UNL     1      60.394  82.875  34.544  0.00  0.00    +0.048 A 
ATOM      6  C   UNL     1      59.876  84.118  34.971  0.00  0.00    +0.116 A 
ATOM      7  N   UNL     1      59.993  85.230  34.166  0.00  0.00    -0.223 NA
ATOM      8  C   UNL     1      60.617  85.156  32.934  0.00  0.00    +0.220 A 
ATOM      9  N   UNL     1      60.740  86.260  32.104  0.00  0.00    -0.283 N 
ATOM     36  H   UNL     1      61.213  86.166  31.206  0.00  0.00    +0.155 HD
ATOM     37  N   UNL     1      61.121  83.981  32.504  0.00  0.00    -0.214 NA
BRANCH   4   3
ATOM      1  C   UNL     1      61.796  79.087  32.435  0.00  0.00    +0.020 A 
ATOM      2  C   UNL     1      61.189  80.252  33.036  0.00  0.00    +0.013 A 
ATOM      3  C   UNL     1      61.627  81.593  32.669  0.00  0.00    +0.019 A 
ATOM     38  C   UNL     1      62.688  81.721  31.681  0.00  0.00    +0.120 A 
ATOM     39  N   UNL     1      63.254  80.580  31.120  0.00  0.00    -0.263 NA
ATOM     40  C   UNL     1      62.842  79.285  31.467  0.00  0.00    +0.111 A 
ENDBRANCH   4   3
ENDBRANCH  10   9
BRANCH  12  13
ATOM     13  N   UNL     1      56.821  89.279  32.640  0.00  0.00    -0.281 N 
ATOM     14  C   UNL     1      55.854  89.143  33.623  0.00  0.00    +0.248 C 
ATOM     30  O   UNL     1      56.021  88.552  34.679  0.00  0.00    -0.270 OA
ATOM     31  H   UNL     1      56.496  89.620  31.735  0.00  0.00    +0.155 HD
BRANCH  14  15
ATOM     15  C   UNL     1      54.503  89.738  33.393  0.00  0.00    +0.037 A 
ATOM     16  C   UNL     1      54.328  90.928  32.557  0.00  0.00    +0.013 A 
ATOM     17  C   UNL     1      53.015  91.492  32.366  0.00  0.00    +0.005 A 
ATOM     18  C   UNL     1      51.865  90.863  33.011  0.00  0.00    -0.033 A 
ATOM     28  C   UNL     1      52.066  89.679  33.831  0.00  0.00    +0.005 A 
ATOM     29  C   UNL     1      53.352  89.125  34.021  0.00  0.00    +0.013 A 
BRANCH  18  19
ATOM     19  C   UNL     1      50.431  91.408  32.880  0.00  0.00    +0.119 C 
BRANCH  19  20
ATOM     20  N   UNL     1      50.144  92.736  33.501  0.00  0.00    -0.302 NA
ATOM     21  C   UNL     1      50.769  92.866  34.893  0.00  0.00    +0.066 C 
ATOM     22  C   UNL     1      50.478  94.269  35.518  0.00  0.00    -0.064 C 
ATOM     23  N   UNL     1      48.967  94.493  35.580  0.00  0.00    +0.379 N 
ATOM     24  C   UNL     1      48.689  95.787  36.221  0.00  0.00    -0.096 C 
ATOM     25  H   UNL     1      48.532  93.695  36.226  0.00  0.00    -0.082 HD
ATOM     26  C   UNL     1      48.337  94.363  34.200  0.00  0.00    -0.064 C 
ATOM     27  C   UNL     1      48.657  92.977  33.575  0.00  0.00    +0.066 C 
ENDBRANCH  19  20
ENDBRANCH  18  19
ENDBRANCH  14  15
ENDBRANCH  12  13
TORSDOF 6
ENDMDL
MODEL 2
REMARK VINA RESULT:      -8.6      2.890     12.753
REMARK  Name = C:\Users\Docking\Desktop\test protocol\1iep_ligandH.pdb
REMARK  8 active torsions:
REMARK  status: ('A' for Active; 'I' for Inactive)
REMARK    1  A    between atoms: _5  and  _11
REMARK    2  A    between atoms: _19  and  _21
REMARK    3  A    between atoms: _22  and  _66
REMARK    4  A    between atoms: _27  and  _30
REMARK    5  A    between atoms: _32  and  _33
REMARK    6  A    between atoms: _38  and  _43
REMARK    7  A    between atoms: _43  and  _46
REMARK    8  A    between atoms: _53  and  _55
REMARK                            x       y       z     vdW  Elec       q    Type
REMARK                         _______ _______ _______ _____ _____    ______ ____
ROOT
ATOM     10  C   UNL     1      59.683  87.928  32.207  0.00  0.00    +0.038 A 
ATOM     11  C   UNL     1      59.675  86.533  32.461  0.00  0.00    +0.047 A 
ATOM     12  C   UNL     1      60.914  85.798  32.665  0.00  0.00    +0.035 A 
ATOM     32  C   UNL     1      62.143  86.517  32.606  0.00  0.00    +0.024 A 
ATOM     33  C   UNL     1      62.170  87.935  32.347  0.00  0.00    +0.007 A 
ATOM     34  C   UNL     1      60.951  88.664  32.143  0.00  0.00    -0.029 A 
ATOM     35  C   UNL     1      61.040  90.183  31.863  0.00  0.00    +0.045 C 
ENDROOT
BRANCH  10   9
ATOM      4  C   UNL     1      55.600  89.830  33.864  0.00  0.00    +0.077 A 
ATOM      5  C   UNL     1      55.909  89.464  35.216  0.00  0.00    +0.048 A 
ATOM      6  C   UNL     1      57.125  88.780  35.442  0.00  0.00    +0.116 A 
ATOM      7  N   UNL     1      57.962  88.491  34.386  0.00  0.00    -0.223 NA
ATOM      8  C   UNL     1      57.634  88.857  33.094  0.00  0.00    +0.220 A 
ATOM      9  N   UNL     1      58.464  88.583  32.018  0.00  0.00    -0.283 N 
ATOM     36  H   UNL     1      58.183  88.864  31.079  0.00  0.00    +0.155 HD
ATOM     37  N   UNL     1      56.477  89.509  32.852  0.00  0.00    -0.214 NA
BRANCH   4   3
ATOM      1  C   UNL     1      52.033  91.435  33.923  0.00  0.00    +0.020 A 
ATOM      2  C   UNL     1      53.213  90.722  34.357  0.00  0.00    +0.013 A 
ATOM      3  C   UNL     1      54.354  90.559  33.466  0.00  0.00    +0.019 A 
ATOM     38  C   UNL     1      54.271  91.136  32.132  0.00  0.00    +0.120 A 
ATOM     39  N   UNL     1      53.122  91.816  31.742  0.00  0.00    -0.263 NA
ATOM     40  C   UNL     1      52.016  91.977  32.590  0.00  0.00    +0.111 A 
ENDBRANCH   4   3
ENDBRANCH  10   9
BRANCH  12  13
ATOM     13  N   UNL     1      60.968  84.380  32.919  0.00  0.00    -0.281 N 
ATOM     14  C   UNL     1      60.545  83.700  34.049  0.00  0.00    +0.248 C 
ATOM     30  O   UNL     1      60.248  84.235  35.107  0.00  0.00    -0.270 OA
ATOM     31  H   UNL     1      61.368  83.807  32.175  0.00  0.00    +0.155 HD
BRANCH  14  15
ATOM     15  C   UNL     1      60.450  82.209  34.002  0.00  0.00    +0.037 A 
ATOM     16  C   UNL     1      59.374  81.538  33.268  0.00  0.00    +0.013 A 
ATOM     17  C   UNL     1      59.296  80.099  33.253  0.00  0.00    +0.005 A 
ATOM     18  C   UNL     1      60.301  79.320  33.974  0.00  0.00    -0.033 A 
ATOM     28  C   UNL     1      61.361  80.011  34.689  0.00  0.00    +0.005 A 
ATOM     29  C   UNL     1      61.439  81.422  34.707  0.00  0.00    +0.013 A 
BRANCH  18  19
ATOM     19  C   UNL     1      60.284  77.781  34.030  0.00  0.00    +0.119 C 
BRANCH  19  20
ATOM     20  N   UNL     1      59.824  77.058  32.807  0.00  0.00    -0.302 NA
ATOM     21  C   UNL     1      58.392  76.534  32.954  0.00  0.00    +0.066 C 
ATOM     22  C   UNL     1      57.919  75.799  31.657  0.00  0.00    -0.064 C 
ATOM     23  N   UNL     1      58.884  74.656  31.341  0.00  0.00    +0.379 N 
ATOM     24  C   UNL     1      58.410  73.927  30.156  0.00  0.00    -0.096 C 
ATOM     25  H   UNL     1      58.865  73.949  32.203  0.00  0.00    -0.082 HD
ATOM     26  C   UNL     1      60.310  75.167  31.196  0.00  0.00    -0.064 C 
ATOM     27  C   UNL     1      60.760  75.921  32.479  0.00  0.00    +0.066 C 
ENDBRANCH  19  20
ENDBRANCH  18  19
ENDBRANCH  14  15
ENDBRANCH  12  13
TORSDOF 6
ENDMDL
MODEL 3
REMARK VINA RESULT:      -8.5     12.379     15.518
REMARK  Name = C:\Users\Docking\Desktop\test protocol\1iep_ligandH.pdb
REMARK  8 active torsions:
REMARK  status: ('A' for Active; 'I' for Inactive)
REMARK    1  A    between atoms: _5  and  _11
REMARK    2  A    between atoms: _19  and  _21
REMARK    3  A    between atoms: _22  and  _66
REMARK    4  A    between atoms: _27  and  _30
REMARK    5  A    between atoms: _32  and  _33
REMARK    6  A    between atoms: _38  and  _43
REMARK    7  A    between atoms: _43  and  _46
REMARK    8  A    between atoms: _53  and  _55
REMARK                            x       y       z     vdW  Elec       q    Type
REMARK                         _______ _______ _______ _____ _____    ______ ____
ROOT
ATOM     10  C   UNL     1      57.606  86.241  47.007  0.00  0.00    +0.038 A 
ATOM     11  C   UNL     1      56.697  85.890  45.977  0.00  0.00    +0.047 A 
ATOM     12  C   UNL     1      57.170  85.446  44.675  0.00  0.00    +0.035 A 
ATOM     32  C   UNL     1      58.577  85.371  44.457  0.00  0.00    +0.024 A 
ATOM     33  C   UNL     1      59.515  85.725  45.493  0.00  0.00    +0.007 A 
ATOM     34  C   UNL     1      59.054  86.166  46.779  0.00  0.00    -0.029 A 
ATOM     35  C   UNL     1      60.105  86.539  47.850  0.00  0.00    +0.045 C 
ENDROOT
BRANCH  10   9
ATOM      4  C   UNL     1      56.429  89.667  50.157  0.00  0.00    +0.077 A 
ATOM      5  C   UNL     1      56.893  90.709  49.286  0.00  0.00    +0.048 A 
ATOM      6  C   UNL     1      57.434  90.320  48.040  0.00  0.00    +0.116 A 
ATOM      7  N   UNL     1      57.501  88.987  47.700  0.00  0.00    -0.223 NA
ATOM      8  C   UNL     1      57.046  88.007  48.563  0.00  0.00    +0.220 A 
ATOM      9  N   UNL     1      57.096  86.660  48.238  0.00  0.00    -0.283 N 
ATOM     36  H   UNL     1      56.757  85.967  48.905  0.00  0.00    +0.155 HD
ATOM     37  N   UNL     1      56.526  88.352  49.760  0.00  0.00    -0.214 NA
BRANCH   4   3
ATOM      1  C   UNL     1      53.906  89.882  53.138  0.00  0.00    +0.020 A 
ATOM      2  C   UNL     1      54.436  89.621  51.820  0.00  0.00    +0.013 A 
ATOM      3  C   UNL     1      55.828  89.918  51.505  0.00  0.00    +0.019 A 
ATOM     38  C   UNL     1      56.663  90.481  52.555  0.00  0.00    +0.120 A 
ATOM     39  N   UNL     1      56.125  90.723  53.815  0.00  0.00    -0.263 NA
ATOM     40  C   UNL     1      54.786  90.443  54.129  0.00  0.00    +0.111 A 
ENDBRANCH   4   3
ENDBRANCH  10   9
BRANCH  12  13
ATOM     13  N   UNL     1      56.295  85.084  43.588  0.00  0.00    -0.281 N 
ATOM     14  C   UNL     1      55.345  85.873  42.960  0.00  0.00    +0.248 C 
ATOM     30  O   UNL     1      54.954  86.952  43.381  0.00  0.00    -0.270 OA
ATOM     31  H   UNL     1      56.386  84.130  43.239  0.00  0.00    +0.155 HD
BRANCH  14  15
ATOM     15  C   UNL     1      54.731  85.388  41.686  0.00  0.00    +0.037 A 
ATOM     16  C   UNL     1      55.029  84.054  41.159  0.00  0.00    +0.013 A 
ATOM     17  C   UNL     1      54.436  83.618  39.919  0.00  0.00    +0.005 A 
ATOM     18  C   UNL     1      53.537  84.517  39.200  0.00  0.00    -0.033 A 
ATOM     28  C   UNL     1      53.255  85.833  39.748  0.00  0.00    +0.005 A 
ATOM     29  C   UNL     1      53.835  86.265  40.962  0.00  0.00    +0.013 A 
BRANCH  18  19
ATOM     19  C   UNL     1      52.877  84.143  37.860  0.00  0.00    +0.119 C 
BRANCH  19  20
ATOM     20  N   UNL     1      53.118  82.763  37.340  0.00  0.00    -0.302 NA
ATOM     21  C   UNL     1      53.796  82.777  35.967  0.00  0.00    +0.066 C 
ATOM     22  C   UNL     1      54.061  81.326  35.449  0.00  0.00    -0.064 C 
ATOM     23  N   UNL     1      52.739  80.558  35.392  0.00  0.00    +0.379 N 
ATOM     24  C   UNL     1      52.977  79.212  34.850  0.00  0.00    -0.096 C 
ATOM     25  H   UNL     1      52.067  81.095  34.683  0.00  0.00    -0.082 HD
ATOM     26  C   UNL     1      52.057  80.542  36.753  0.00  0.00    -0.064 C 
ATOM     27  C   UNL     1      51.825  81.988  37.272  0.00  0.00    +0.066 C 
ENDBRANCH  19  20
ENDBRANCH  18  19
ENDBRANCH  14  15
ENDBRANCH  12  13
TORSDOF 6
ENDMDL
MODEL 4
REMARK VINA RESULT:      -8.5      3.755      6.931
REMARK  Name = C:\Users\Docking\Desktop\test protocol\1iep_ligandH.pdb
REMARK  8 active torsions:
REMARK  status: ('A' for Active; 'I' for Inactive)
REMARK    1  A    between atoms: _5  and  _11
REMARK    2  A    between atoms: _19  and  _21
REMARK    3  A    between atoms: _22  and  _66
REMARK    4  A    between atoms: _27  and  _30
REMARK    5  A    between atoms: _32  and  _33
REMARK    6  A    between atoms: _38  and  _43
REMARK    7  A    between atoms: _43  and  _46
REMARK    8  A    between atoms: _53  and  _55
REMARK                            x       y       z     vdW  Elec       q    Type
REMARK                         _______ _______ _______ _____ _____    ______ ____
ROOT
ATOM     10  C   UNL     1      61.169  89.040  32.543  0.00  0.00    +0.038 A 
ATOM     11  C   UNL     1      59.794  89.387  32.560  0.00  0.00    +0.047 A 
ATOM     12  C   UNL     1      58.760  88.367  32.477  0.00  0.00    +0.035 A 
ATOM     32  C   UNL     1      59.163  87.003  32.382  0.00  0.00    +0.024 A 
ATOM     33  C   UNL     1      60.556  86.633  32.362  0.00  0.00    +0.007 A 
ATOM     34  C   UNL     1      61.580  87.635  32.441  0.00  0.00    -0.029 A 
ATOM     35  C   UNL     1      63.058  87.181  32.409  0.00  0.00    +0.045 C 
ENDROOT
BRANCH  10   9
ATOM      4  C   UNL     1      63.785  92.199  35.037  0.00  0.00    +0.077 A 
ATOM      5  C   UNL     1      63.187  91.802  36.280  0.00  0.00    +0.048 A 
ATOM      6  C   UNL     1      62.205  90.787  36.232  0.00  0.00    +0.116 A 
ATOM      7  N   UNL     1      61.856  90.217  35.027  0.00  0.00    -0.223 NA
ATOM      8  C   UNL     1      62.451  90.624  33.847  0.00  0.00    +0.220 A 
ATOM      9  N   UNL     1      62.120  90.060  32.625  0.00  0.00    -0.283 N 
ATOM     36  H   UNL     1      62.576  90.393  31.776  0.00  0.00    +0.155 HD
ATOM     37  N   UNL     1      63.390  91.593  33.865  0.00  0.00    -0.214 NA
BRANCH   4   3
ATOM      1  C   UNL     1      66.382  94.740  33.591  0.00  0.00    +0.020 A 
ATOM      2  C   UNL     1      65.365  93.716  33.645  0.00  0.00    +0.013 A 
ATOM      3  C   UNL     1      64.839  93.256  34.924  0.00  0.00    +0.019 A 
ATOM     38  C   UNL     1      65.368  93.857  36.139  0.00  0.00    +0.120 A 
ATOM     39  N   UNL     1      66.349  94.840  36.056  0.00  0.00    -0.263 NA
ATOM     40  C   UNL     1      66.864  95.290  34.831  0.00  0.00    +0.111 A 
ENDBRANCH   4   3
ENDBRANCH  10   9
BRANCH  12  13
ATOM     13  N   UNL     1      57.348  88.660  32.482  0.00  0.00    -0.281 N 
ATOM     14  C   UNL     1      56.561  89.044  33.555  0.00  0.00    +0.248 C 
ATOM     30  O   UNL     1      56.912  88.989  34.724  0.00  0.00    -0.270 OA
ATOM     31  H   UNL     1      56.871  88.572  31.584  0.00  0.00    +0.155 HD
BRANCH  14  15
ATOM     15  C   UNL     1      55.180  89.551  33.293  0.00  0.00    +0.037 A 
ATOM     16  C   UNL     1      54.946  90.701  32.415  0.00  0.00    +0.013 A 
ATOM     17  C   UNL     1      53.605  91.180  32.193  0.00  0.00    +0.005 A 
ATOM     18  C   UNL     1      52.486  90.507  32.848  0.00  0.00    -0.033 A 
ATOM     28  C   UNL     1      52.746  89.366  33.710  0.00  0.00    +0.005 A 
ATOM     29  C   UNL     1      54.060  88.894  33.931  0.00  0.00    +0.013 A 
BRANCH  18  19
ATOM     19  C   UNL     1      51.024  90.963  32.685  0.00  0.00    +0.119 C 
BRANCH  19  20
ATOM     20  N   UNL     1      50.295  91.377  33.921  0.00  0.00    -0.302 NA
ATOM     21  C   UNL     1      48.828  91.711  33.637  0.00  0.00    +0.066 C 
ATOM     22  C   UNL     1      48.074  92.120  34.944  0.00  0.00    -0.064 C 
ATOM     23  N   UNL     1      48.786  93.310  35.589  0.00  0.00    +0.379 N 
ATOM     24  C   UNL     1      48.047  93.734  36.787  0.00  0.00    -0.096 C 
ATOM     25  H   UNL     1      48.762  94.154  34.861  0.00  0.00    -0.082 HD
ATOM     26  C   UNL     1      50.246  92.987  35.873  0.00  0.00    -0.064 C 
ATOM     27  C   UNL     1      50.979  92.553  34.572  0.00  0.00    +0.066 C 
ENDBRANCH  19  20
ENDBRANCH  18  19
ENDBRANCH  14  15
ENDBRANCH  12  13
TORSDOF 6
ENDMDL
MODEL 5
REMARK VINA RESULT:      -8.3      2.102      2.676
REMARK  Name = C:\Users\Docking\Desktop\test protocol\1iep_ligandH.pdb
REMARK  8 active torsions:
REMARK  status: ('A' for Active; 'I' for Inactive)
REMARK    1  A    between atoms: _5  and  _11
REMARK    2  A    between atoms: _19  and  _21
REMARK    3  A    between atoms: _22  and  _66
REMARK    4  A    between atoms: _27  and  _30
REMARK    5  A    between atoms: _32  and  _33
REMARK    6  A    between atoms: _38  and  _43
REMARK    7  A    between atoms: _43  and  _46
REMARK    8  A    between atoms: _53  and  _55
REMARK                            x       y       z     vdW  Elec       q    Type
REMARK                         _______ _______ _______ _____ _____    ______ ____
ROOT
ATOM     10  C   UNL     1      60.644  87.096  33.633  0.00  0.00    +0.038 A 
ATOM     11  C   UNL     1      59.255  87.379  33.599  0.00  0.00    +0.047 A 
ATOM     12  C   UNL     1      58.708  88.348  32.662  0.00  0.00    +0.035 A 
ATOM     32  C   UNL     1      59.604  89.008  31.771  0.00  0.00    +0.024 A 
ATOM     33  C   UNL     1      61.019  88.732  31.793  0.00  0.00    +0.007 A 
ATOM     34  C   UNL     1      61.565  87.780  32.717  0.00  0.00    -0.029 A 
ATOM     35  C   UNL     1      63.091  87.529  32.701  0.00  0.00    +0.045 C 
ENDROOT
BRANCH  10   9
ATOM      4  C   UNL     1      61.330  82.575  35.092  0.00  0.00    +0.077 A 
ATOM      5  C   UNL     1      60.670  82.039  33.936  0.00  0.00    +0.048 A 
ATOM      6  C   UNL     1      60.162  82.961  32.993  0.00  0.00    +0.116 A 
ATOM      7  N   UNL     1      60.309  84.315  33.201  0.00  0.00    -0.223 NA
ATOM      8  C   UNL     1      60.949  84.799  34.328  0.00  0.00    +0.220 A 
ATOM      9  N   UNL     1      61.115  86.157  34.553  0.00  0.00    -0.283 N 
ATOM     36  H   UNL     1      61.587  86.473  35.400  0.00  0.00    +0.155 HD
ATOM     37  N   UNL     1      61.442  83.939  35.243  0.00  0.00    -0.214 NA
BRANCH   4   3
ATOM      1  C   UNL     1      62.520  79.502  37.199  0.00  0.00    +0.020 A 
ATOM      2  C   UNL     1      61.934  80.272  36.126  0.00  0.00    +0.013 A 
ATOM      3  C   UNL     1      61.922  81.729  36.175  0.00  0.00    +0.019 A 
ATOM     38  C   UNL     1      62.517  82.380  37.333  0.00  0.00    +0.120 A 
ATOM     39  N   UNL     1      63.072  81.612  38.352  0.00  0.00    -0.263 NA
ATOM     40  C   UNL     1      63.088  80.210  38.316  0.00  0.00    +0.111 A 
ENDBRANCH   4   3
ENDBRANCH  10   9
BRANCH  12  13
ATOM     13  N   UNL     1      57.307  88.683  32.586  0.00  0.00    -0.281 N 
ATOM     14  C   UNL     1      56.454  89.015  33.626  0.00  0.00    +0.248 C 
ATOM     30  O   UNL     1      56.716  88.864  34.810  0.00  0.00    -0.270 OA
ATOM     31  H   UNL     1      56.895  88.675  31.653  0.00  0.00    +0.155 HD
BRANCH  14  15
ATOM     15  C   UNL     1      55.109  89.581  33.303  0.00  0.00    +0.037 A 
ATOM     16  C   UNL     1      54.969  90.784  32.478  0.00  0.00    +0.013 A 
ATOM     17  C   UNL     1      53.661  91.320  32.196  0.00  0.00    +0.005 A 
ATOM     18  C   UNL     1      52.481  90.651  32.739  0.00  0.00    -0.033 A 
ATOM     28  C   UNL     1      52.648  89.456  33.550  0.00  0.00    +0.005 A 
ATOM     29  C   UNL     1      53.929  88.929  33.829  0.00  0.00    +0.013 A 
BRANCH  18  19
ATOM     19  C   UNL     1      51.047  91.164  32.507  0.00  0.00    +0.119 C 
BRANCH  19  20
ATOM     20  N   UNL     1      50.262  91.567  33.711  0.00  0.00    -0.302 NA
ATOM     21  C   UNL     1      48.757  91.368  33.509  0.00  0.00    +0.066 C 
ATOM     22  C   UNL     1      47.952  91.774  34.786  0.00  0.00    -0.064 C 
ATOM     23  N   UNL     1      48.263  93.229  35.141  0.00  0.00    +0.379 N 
ATOM     24  C   UNL     1      47.464  93.630  36.308  0.00  0.00    -0.096 C 
ATOM     25  H   UNL     1      47.947  93.862  34.280  0.00  0.00    -0.082 HD
ATOM     26  C   UNL     1      49.758  93.436  35.342  0.00  0.00    -0.064 C 
ATOM     27  C   UNL     1      50.551  93.002  34.077  0.00  0.00    +0.066 C 
ENDBRANCH  19  20
ENDBRANCH  18  19
ENDBRANCH  14  15
ENDBRANCH  12  13
TORSDOF 6
ENDMDL
