MODEL 1
REMARK VINA RESULT:      -8.8      0.000      0.000
REMARK  Name = C:\Users\Docking\Desktop\test protocol\1iep_ligandH.pdb
REMARK  8 active torsions:
REMARK  status: ('A' for Active; 'I' for Inactive)
REMARK    1  A    between atoms: _5  and  _11
REMARK    2  A    between atoms: _19  and  _21
REMARK    3  A    between atoms: _22  and  _66
REMARK    4  A    between atoms: _27  and  _30
REMARK    5  A    between atoms: _32  and  _33
REMARK    6  A    between atoms: _38  and  _43
REMARK    7  A    between atoms: _43  and  _46
REMARK    8  A    between atoms: _53  and  _55
REMARK                            x       y       z     vdW  Elec       q    Type
REMARK                         _______ _______ _______ _____ _____    ______ ____
ROOT
ATOM     10  C   UNL     1      58.620  87.455  32.907  0.00  0.00    +0.038 A 
ATOM     11  C   UNL     1      57.331  87.805  33.385  0.00  0.00    +0.047 A 
ATOM     12  C   UNL     1      57.025  89.168  33.793  0.00  0.00    +0.035 A 
ATOM     32  C   UNL     1      58.055  90.149  33.699  0.00  0.00    +0.024 A 
ATOM     33  C   UNL     1      59.371  89.809  33.218  0.00  0.00    +0.007 A 
ATOM     34  C   UNL     1      59.679  88.467  32.816  0.00  0.00    -0.029 A 
ATOM     35  C   UNL     1      61.109  88.158  32.313  0.00  0.00    +0.045 C 
ENDROOT
BRANCH  10   9
ATOM      4  C   UNL     1      60.121  82.991  33.836  0.00  0.00    +0.077 A 
ATOM      5  C   UNL     1      60.485  83.330  35.182  0.00  0.00    +0.048 A 
ATOM      6  C   UNL     1      60.276  84.666  35.593  0.00  0.00    +0.116 A 
ATOM      7  N   UNL     1      59.743  85.585  34.716  0.00  0.00    -0.223 NA
ATOM      8  C   UNL     1      59.404  85.226  33.425  0.00  0.00    +0.220 A 
ATOM      9  N   UNL     1      58.859  86.132  32.529  0.00  0.00    -0.283 N 
ATOM     36  H   UNL     1      58.629  85.829  31.582  0.00  0.00    +0.155 HD
ATOM     37  N   UNL     1      59.595  83.957  33.007  0.00  0.00    -0.214 NA
BRANCH   4   3
ATOM      1  C   UNL     1      59.525  79.237  32.913  0.00  0.00    +0.020 A 
ATOM      2  C   UNL     1      59.327  80.543  33.499  0.00  0.00    +0.013 A 
ATOM      3  C   UNL     1      60.277  81.621  33.255  0.00  0.00    +0.019 A 
ATOM     38  C   UNL     1      61.426  81.342  32.405  0.00  0.00    +0.120 A 
ATOM     39  N   UNL     1      61.591  80.075  31.856  0.00  0.00    -0.263 NA
ATOM     40  C   UNL     1      60.684  79.029  32.085  0.00  0.00    +0.111 A 
ENDBRANCH   4   3
ENDBRANCH  10   9
BRANCH  12  13
ATOM     13  N   UNL     1      55.738  89.581  34.293  0.00  0.00    -0.281 N 
ATOM     14  C   UNL     1      54.603  89.900  33.565  0.00  0.00    +0.248 C 
ATOM     30  O   UNL     1      54.587  90.086  32.357  0.00  0.00    -0.270 OA
ATOM     31  H   UNL     1      55.652  89.646  35.308  0.00  0.00    +0.155 HD
BRANCH  14  15
ATOM     15  C   UNL     1      53.302  90.049  34.284  0.00  0.00    +0.037 A 
ATOM     16  C   UNL     1      52.512  88.879  34.677  0.00  0.00    +0.013 A 
ATOM     17  C   UNL     1      51.252  89.052  35.354  0.00  0.00    +0.005 A 
ATOM     18  C   UNL     1      50.773  90.401  35.644  0.00  0.00    -0.033 A 
ATOM     28  C   UNL     1      51.579  91.544  35.248  0.00  0.00    +0.005 A 
ATOM     29  C   UNL     1      52.814  91.379  34.583  0.00  0.00    +0.013 A 
BRANCH  18  19
ATOM     19  C   UNL     1      49.430  90.680  36.345  0.00  0.00    +0.119 C 
BRANCH  19  20
ATOM     20  N   UNL     1      48.575  91.765  35.777  0.00  0.00    -0.302 NA
ATOM     21  C   UNL     1      48.011  92.681  36.867  0.00  0.00    +0.066 C 
ATOM     22  C   UNL     1      47.138  93.824  36.254  0.00  0.00    -0.064 C 
ATOM     23  N   UNL     1      46.009  93.210  35.424  0.00  0.00    +0.379 N 
ATOM     24  C   UNL     1      45.152  94.280  34.894  0.00  0.00    -0.096 C 
ATOM     25  H   UNL     1      45.387  92.586  36.108  0.00  0.00    -0.082 HD
ATOM     26  C   UNL     1      46.561  92.295  34.340  0.00  0.00    -0.064 C 
ATOM     27  C   UNL     1      47.451  91.181  34.957  0.00  0.00    +0.066 C 
ENDBRANCH  19  20
ENDBRANCH  18  19
ENDBRANCH  14  15
ENDBRANCH  12  13
TORSDOF 6
ENDMDL
MODEL 2
REMARK VINA RESULT:      -8.6     16.961     22.995
REMARK  Name = C:\Users\Docking\Desktop\test protocol\1iep_ligandH.pdb
REMARK  8 active torsions:
REMARK  status: ('A' for Active; 'I' for Inactive)
REMARK    1  A    between atoms: _5  and  _11
REMARK    2  A    between atoms: _19  and  _21
REMARK    3  A    between atoms: _22  and  _66
REMARK    4  A    between atoms: _27  and  _30
REMARK    5  A    between atoms: _32  and  _33
REMARK    6  A    between atoms: _38  and  _43
REMARK    7  A    between atoms: _43  and  _46
REMARK    8  A    between atoms: _53  and  _55
REMARK                            x       y       z     vdW  Elec       q    Type
REMARK                         _______ _______ _______ _____ _____    ______ ____
ROOT
ATOM     10  C   UNL     1      44.395 104.260  27.376  0.00  0.00    +0.038 A 
ATOM     11  C   UNL     1      45.791 104.155  27.605  0.00  0.00    +0.047 A 
ATOM     12  C   UNL     1      46.356 104.381  28.926  0.00  0.00    +0.035 A 
ATOM     32  C   UNL     1      45.469 104.711  29.993  0.00  0.00    +0.024 A 
ATOM     33  C   UNL     1      44.048 104.823  29.777  0.00  0.00    +0.007 A 
ATOM     34  C   UNL     1      43.486 104.603  28.476  0.00  0.00    -0.029 A 
ATOM     35  C   UNL     1      41.955 104.743  28.302  0.00  0.00    +0.045 C 
ENDROOT
BRANCH  10   9
ATOM      4  C   UNL     1      43.356 105.719  22.923  0.00  0.00    +0.077 A 
ATOM      5  C   UNL     1      43.798 107.056  23.195  0.00  0.00    +0.048 A 
ATOM      6  C   UNL     1      44.280 107.329  24.495  0.00  0.00    +0.116 A 
ATOM      7  N   UNL     1      44.312 106.331  25.445  0.00  0.00    -0.223 NA
ATOM      8  C   UNL     1      43.876 105.052  25.150  0.00  0.00    +0.220 A 
ATOM      9  N   UNL     1      43.907 104.031  26.088  0.00  0.00    -0.283 N 
ATOM     36  H   UNL     1      43.570 103.103  25.834  0.00  0.00    +0.155 HD
ATOM     37  N   UNL     1      43.411 104.767  23.917  0.00  0.00    -0.214 NA
BRANCH   4   3
ATOM      1  C   UNL     1      41.087 105.283  19.767  0.00  0.00    +0.020 A 
ATOM      2  C   UNL     1      41.555 105.743  21.054  0.00  0.00    +0.013 A 
ATOM      3  C   UNL     1      42.824 105.274  21.596  0.00  0.00    +0.019 A 
ATOM     38  C   UNL     1      43.602 104.333  20.804  0.00  0.00    +0.120 A 
ATOM     39  N   UNL     1      43.125 103.906  19.569  0.00  0.00    -0.263 NA
ATOM     40  C   UNL     1      41.905 104.349  19.038  0.00  0.00    +0.111 A 
ENDBRANCH   4   3
ENDBRANCH  10   9
BRANCH  12  13
ATOM     13  N   UNL     1      47.766 104.297  29.217  0.00  0.00    -0.281 N 
ATOM     14  C   UNL     1      48.407 103.418  30.075  0.00  0.00    +0.248 C 
ATOM     30  O   UNL     1      47.837 102.707  30.889  0.00  0.00    -0.270 OA
ATOM     31  H   UNL     1      48.364 104.966  28.732  0.00  0.00    +0.155 HD
BRANCH  14  15
ATOM     15  C   UNL     1      49.898 103.327  30.033  0.00  0.00    +0.037 A 
ATOM     16  C   UNL     1      50.661 102.810  31.172  0.00  0.00    +0.013 A 
ATOM     17  C   UNL     1      52.100 102.748  31.111  0.00  0.00    +0.005 A 
ATOM     18  C   UNL     1      52.785 103.204  29.905  0.00  0.00    -0.033 A 
ATOM     28  C   UNL     1      52.004 103.707  28.787  0.00  0.00    +0.005 A 
ATOM     29  C   UNL     1      50.594 103.770  28.843  0.00  0.00    +0.013 A 
BRANCH  18  19
ATOM     19  C   UNL     1      54.319 103.194  29.760  0.00  0.00    +0.119 C 
BRANCH  19  20
ATOM     20  N   UNL     1      55.091 104.157  30.600  0.00  0.00    -0.302 NA
ATOM     21  C   UNL     1      55.660 105.313  29.772  0.00  0.00    +0.066 C 
ATOM     22  C   UNL     1      56.445 106.324  30.670  0.00  0.00    -0.064 C 
ATOM     23  N   UNL     1      57.563 105.584  31.407  0.00  0.00    +0.379 N 
ATOM     24  C   UNL     1      58.340 106.541  32.208  0.00  0.00    -0.096 C 
ATOM     25  H   UNL     1      58.246 105.152  30.639  0.00  0.00    -0.082 HD
ATOM     26  C   UNL     1      57.007 104.431  32.231  0.00  0.00    -0.064 C 
ATOM     27  C   UNL     1      56.203 103.449  31.334  0.00  0.00    +0.066 C 
ENDBRANCH  19  20
ENDBRANCH  18  19
ENDBRANCH  14  15
ENDBRANCH  12  13
TORSDOF 6
ENDMDL
MODEL 3
REMARK VINA RESULT:      -8.5      3.350      5.024
REMARK  Name = C:\Users\Docking\Desktop\test protocol\1iep_ligandH.pdb
REMARK  8 active torsions:
REMARK  status: ('A' for Active; 'I' for Inactive)
REMARK    1  A    between atoms: _5  and  _11
REMARK    2  A    between atoms: _19  and  _21
REMARK    3  A    between atoms: _22  and  _66
REMARK    4  A    between atoms: _27  and  _30
REMARK    5  A    between atoms: _32  and  _33
REMARK    6  A    between atoms: _38  and  _43
REMARK    7  A    between atoms: _43  and  _46
REMARK    8  A    between atoms: _53  and  _55
REMARK                            x       y       z     vdW  Elec       q    Type
REMARK                         _______ _______ _______ _____ _____    ______ ____
ROOT
ATOM     10  C   UNL     1      58.528  87.331  35.104  0.00  0.00    +0.038 A 
ATOM     11  C   UNL     1      57.491  88.296  35.162  0.00  0.00    +0.047 A 
ATOM     12  C   UNL     1      56.786  88.717  33.961  0.00  0.00    +0.035 A 
ATOM     32  C   UNL     1      57.161  88.131  32.717  0.00  0.00    +0.024 A 
ATOM     33  C   UNL     1      58.215  87.149  32.639  0.00  0.00    +0.007 A 
ATOM     34  C   UNL     1      58.915  86.733  33.820  0.00  0.00    -0.029 A 
ATOM     35  C   UNL     1      60.040  85.681  33.677  0.00  0.00    +0.045 C 
ENDROOT
BRANCH  10   9
ATOM      4  C   UNL     1      58.534  85.377  39.488  0.00  0.00    +0.077 A 
ATOM      5  C   UNL     1      57.130  85.088  39.425  0.00  0.00    +0.048 A 
ATOM      6  C   UNL     1      56.442  85.464  38.250  0.00  0.00    +0.116 A 
ATOM      7  N   UNL     1      57.117  86.083  37.220  0.00  0.00    -0.223 NA
ATOM      8  C   UNL     1      58.471  86.349  37.314  0.00  0.00    +0.220 A 
ATOM      9  N   UNL     1      59.172  86.964  36.288  0.00  0.00    -0.283 N 
ATOM     36  H   UNL     1      60.168  87.149  36.398  0.00  0.00    +0.155 HD
ATOM     37  N   UNL     1      59.150  86.001  38.426  0.00  0.00    -0.214 NA
BRANCH   4   3
ATOM      1  C   UNL     1      60.000  85.168  43.108  0.00  0.00    +0.020 A 
ATOM      2  C   UNL     1      59.133  85.526  42.009  0.00  0.00    +0.013 A 
ATOM      3  C   UNL     1      59.399  85.038  40.662  0.00  0.00    +0.019 A 
ATOM     38  C   UNL     1      60.559  84.183  40.459  0.00  0.00    +0.120 A 
ATOM     39  N   UNL     1      61.376  83.856  41.536  0.00  0.00    -0.263 NA
ATOM     40  C   UNL     1      61.132  84.321  42.837  0.00  0.00    +0.111 A 
ENDBRANCH   4   3
ENDBRANCH  10   9
BRANCH  12  13
ATOM     13  N   UNL     1      55.730  89.698  33.958  0.00  0.00    -0.281 N 
ATOM     14  C   UNL     1      54.851  90.000  32.931  0.00  0.00    +0.248 C 
ATOM     30  O   UNL     1      54.978  89.617  31.777  0.00  0.00    -0.270 OA
ATOM     31  H   UNL     1      55.616  90.236  34.817  0.00  0.00    +0.155 HD
BRANCH  14  15
ATOM     15  C   UNL     1      53.667  90.864  33.224  0.00  0.00    +0.037 A 
ATOM     16  C   UNL     1      53.213  91.090  34.598  0.00  0.00    +0.013 A 
ATOM     17  C   UNL     1      52.058  91.915  34.852  0.00  0.00    +0.005 A 
ATOM     18  C   UNL     1      51.349  92.521  33.727  0.00  0.00    -0.033 A 
ATOM     28  C   UNL     1      51.825  92.284  32.374  0.00  0.00    +0.005 A 
ATOM     29  C   UNL     1      52.956  91.476  32.122  0.00  0.00    +0.013 A 
BRANCH  18  19
ATOM     19  C   UNL     1      50.095  93.397  33.903  0.00  0.00    +0.119 C 
BRANCH  19  20
ATOM     20  N   UNL     1      48.865  92.733  34.430  0.00  0.00    -0.302 NA
ATOM     21  C   UNL     1      47.617  93.119  33.630  0.00  0.00    +0.066 C 
ATOM     22  C   UNL     1      46.344  92.398  34.181  0.00  0.00    -0.064 C 
ATOM     23  N   UNL     1      46.167  92.741  35.661  0.00  0.00    +0.379 N 
ATOM     24  C   UNL     1      44.938  92.112  36.167  0.00  0.00    -0.096 C 
ATOM     25  H   UNL     1      46.038  93.846  35.739  0.00  0.00    -0.082 HD
ATOM     26  C   UNL     1      47.404  92.364  36.463  0.00  0.00    -0.064 C 
ATOM     27  C   UNL     1      48.669  93.062  35.889  0.00  0.00    +0.066 C 
ENDBRANCH  19  20
ENDBRANCH  18  19
ENDBRANCH  14  15
ENDBRANCH  12  13
TORSDOF 6
ENDMDL
MODEL 4
REMARK VINA RESULT:      -8.4     17.482     22.771
REMARK  Name = C:\Users\Docking\Desktop\test protocol\1iep_ligandH.pdb
REMARK  8 active torsions:
REMARK  status: ('A' for Active; 'I' for Inactive)
REMARK    1  A    between atoms: _5  and  _11
REMARK    2  A    between atoms: _19  and  _21
REMARK    3  A    between atoms: _22  and  _66
REMARK    4  A    between atoms: _27  and  _30
REMARK    5  A    between atoms: _32  and  _33
REMARK    6  A    between atoms: _38  and  _43
REMARK    7  A    between atoms: _43  and  _46
REMARK    8  A    between atoms: _53  and  _55
REMARK                            x       y       z     vdW  Elec       q    Type
REMARK                         _______ _______ _______ _____ _____    ______ ____
ROOT
ATOM     10  C   UNL     1      45.769 103.827  28.305  0.00  0.00    +0.038 A 
ATOM     11  C   UNL     1      47.174 104.008  28.236  0.00  0.00    +0.047 A 
ATOM     12  C   UNL     1      47.993 104.004  29.438  0.00  0.00    +0.035 A 
ATOM     32  C   UNL     1      47.348 103.811  30.694  0.00  0.00    +0.024 A 
ATOM     33  C   UNL     1      45.921 103.626  30.783  0.00  0.00    +0.007 A 
ATOM     34  C   UNL     1      45.108 103.631  29.601  0.00  0.00    -0.029 A 
ATOM     35  C   UNL     1      43.581 103.435  29.756  0.00  0.00    +0.045 C 
ENDROOT
BRANCH  10   9
ATOM      4  C   UNL     1      43.784 106.110  24.579  0.00  0.00    +0.077 A 
ATOM      5  C   UNL     1      44.231 107.389  25.048  0.00  0.00    +0.048 A 
ATOM      6  C   UNL     1      44.963 107.417  26.257  0.00  0.00    +0.116 A 
ATOM      7  N   UNL     1      45.223 106.247  26.936  0.00  0.00    -0.223 NA
ATOM      8  C   UNL     1      44.775 105.030  26.456  0.00  0.00    +0.220 A 
ATOM      9  N   UNL     1      45.031 103.839  27.119  0.00  0.00    -0.283 N 
ATOM     36  H   UNL     1      44.677 102.963  26.736  0.00  0.00    +0.155 HD
ATOM     37  N   UNL     1      44.073 104.976  25.305  0.00  0.00    -0.214 NA
BRANCH   4   3
ATOM      1  C   UNL     1      40.851 105.533  22.055  0.00  0.00    +0.020 A 
ATOM      2  C   UNL     1      41.559 105.714  23.302  0.00  0.00    +0.013 A 
ATOM      3  C   UNL     1      43.002 105.916  23.317  0.00  0.00    +0.019 A 
ATOM     38  C   UNL     1      43.705 105.930  22.043  0.00  0.00    +0.120 A 
ATOM     39  N   UNL     1      42.998 105.751  20.858  0.00  0.00    -0.263 NA
ATOM     40  C   UNL     1      41.609 105.554  20.832  0.00  0.00    +0.111 A 
ENDBRANCH   4   3
ENDBRANCH  10   9
BRANCH  12  13
ATOM     13  N   UNL     1      49.423 104.192  29.431  0.00  0.00    -0.281 N 
ATOM     14  C   UNL     1      50.407 103.240  29.641  0.00  0.00    +0.248 C 
ATOM     30  O   UNL     1      50.202 102.118  30.080  0.00  0.00    -0.270 OA
ATOM     31  H   UNL     1      49.749 105.141  29.249  0.00  0.00    +0.155 HD
BRANCH  14  15
ATOM     15  C   UNL     1      51.827 103.589  29.331  0.00  0.00    +0.037 A 
ATOM     16  C   UNL     1      52.164 104.487  28.224  0.00  0.00    +0.013 A 
ATOM     17  C   UNL     1      53.543 104.795  27.936  0.00  0.00    +0.005 A 
ATOM     18  C   UNL     1      54.595 104.203  28.759  0.00  0.00    -0.033 A 
ATOM     28  C   UNL     1      54.232 103.320  29.855  0.00  0.00    +0.005 A 
ATOM     29  C   UNL     1      52.882 103.016  30.139  0.00  0.00    +0.013 A 
BRANCH  18  19
ATOM     19  C   UNL     1      56.094 104.459  28.511  0.00  0.00    +0.119 C 
BRANCH  19  20
ATOM     20  N   UNL     1      56.814 105.317  29.499  0.00  0.00    -0.302 NA
ATOM     21  C   UNL     1      57.468 104.491  30.609  0.00  0.00    +0.066 C 
ATOM     22  C   UNL     1      58.236 105.403  31.620  0.00  0.00    -0.064 C 
ATOM     23  N   UNL     1      57.270 106.432  32.209  0.00  0.00    +0.379 N 
ATOM     24  C   UNL     1      57.975 107.254  33.204  0.00  0.00    -0.096 C 
ATOM     25  H   UNL     1      56.465 105.874  32.741  0.00  0.00    -0.082 HD
ATOM     26  C   UNL     1      56.612 107.257  31.112  0.00  0.00    -0.064 C 
ATOM     27  C   UNL     1      55.877 106.339  30.096  0.00  0.00    +0.066 C 
ENDBRANCH  19  20
ENDBRANCH  18  19
ENDBRANCH  14  15
ENDBRANCH  12  13
TORSDOF 6
ENDMDL
MODEL 5
REMARK VINA RESULT:      -8.4      2.733      4.270
REMARK  Name = C:\Users\Docking\Desktop\test protocol\1iep_ligandH.pdb
REMARK  8 active torsions:
REMARK  status: ('A' for Active; 'I' for Inactive)
REMARK    1  A    between atoms: _5  and  _11
REMARK    2  A    between atoms: _19  and  _21
REMARK    3  A    between atoms: _22  and  _66
REMARK    4  A    between atoms: _27  and  _30
REMARK    5  A    between atoms: _32  and  _33
REMARK    6  A    between atoms: _38  and  _43
REMARK    7  A    between atoms: _43  and  _46
REMARK    8  A    between atoms: _53  and  _55
REMARK                            x       y       z     vdW  Elec       q    Type
REMARK                         _______ _______ _______ _____ _____    ______ ____
ROOT
ATOM     10  C   UNL     1      58.940  88.482  34.889  0.00  0.00    +0.038 A 
ATOM     11  C   UNL     1      57.887  89.298  34.404  0.00  0.00    +0.047 A 
ATOM     12  C   UNL     1      56.599  89.347  35.079  0.00  0.00    +0.035 A 
ATOM     32  C   UNL     1      56.419  88.552  36.248  0.00  0.00    +0.024 A 
ATOM     33  C   UNL     1      57.479  87.715  36.755  0.00  0.00    +0.007 A 
ATOM     34  C   UNL     1      58.750  87.661  36.092  0.00  0.00    -0.029 A 
ATOM     35  C   UNL     1      59.847  86.742  36.677  0.00  0.00    +0.045 C 
ENDROOT
BRANCH  10   9
ATOM      4  C   UNL     1      62.078  86.473  31.864  0.00  0.00    +0.077 A 
ATOM      5  C   UNL     1      61.236  85.331  31.656  0.00  0.00    +0.048 A 
ATOM      6  C   UNL     1      60.007  85.295  32.351  0.00  0.00    +0.116 A 
ATOM      7  N   UNL     1      59.656  86.330  33.190  0.00  0.00    -0.223 NA
ATOM      8  C   UNL     1      60.492  87.417  33.370  0.00  0.00    +0.220 A 
ATOM      9  N   UNL     1      60.156  88.473  34.202  0.00  0.00    -0.283 N 
ATOM     36  H   UNL     1      60.803  89.253  34.314  0.00  0.00    +0.155 HD
ATOM     37  N   UNL     1      61.672  87.474  32.718  0.00  0.00    -0.214 NA
BRANCH   4   3
ATOM      1  C   UNL     1      65.703  85.857  30.529  0.00  0.00    +0.020 A 
ATOM      2  C   UNL     1      64.438  85.628  31.187  0.00  0.00    +0.013 A 
ATOM      3  C   UNL     1      63.406  86.658  31.197  0.00  0.00    +0.019 A 
ATOM     38  C   UNL     1      63.689  87.918  30.526  0.00  0.00    +0.120 A 
ATOM     39  N   UNL     1      64.917  88.110  29.901  0.00  0.00    -0.263 NA
ATOM     40  C   UNL     1      65.918  87.127  29.887  0.00  0.00    +0.111 A 
ENDBRANCH   4   3
ENDBRANCH  10   9
BRANCH  12  13
ATOM     13  N   UNL     1      55.491  90.151  34.627  0.00  0.00    -0.281 N 
ATOM     14  C   UNL     1      54.345  89.730  33.972  0.00  0.00    +0.248 C 
ATOM     30  O   UNL     1      54.197  88.621  33.482  0.00  0.00    -0.270 OA
ATOM     31  H   UNL     1      55.559  91.151  34.813  0.00  0.00    +0.155 HD
BRANCH  14  15
ATOM     15  C   UNL     1      53.205  90.685  33.827  0.00  0.00    +0.037 A 
ATOM     16  C   UNL     1      52.776  91.164  32.510  0.00  0.00    +0.013 A 
ATOM     17  C   UNL     1      51.684  92.098  32.400  0.00  0.00    +0.005 A 
ATOM     18  C   UNL     1      51.011  92.559  33.612  0.00  0.00    -0.033 A 
ATOM     28  C   UNL     1      51.453  92.064  34.905  0.00  0.00    +0.005 A 
ATOM     29  C   UNL     1      52.524  91.149  35.017  0.00  0.00    +0.013 A 
BRANCH  18  19
ATOM     19  C   UNL     1      49.851  93.571  33.591  0.00  0.00    +0.119 C 
BRANCH  19  20
ATOM     20  N   UNL     1      48.622  93.219  34.364  0.00  0.00    -0.302 NA
ATOM     21  C   UNL     1      47.923  91.980  33.798  0.00  0.00    +0.066 C 
ATOM     22  C   UNL     1      46.653  91.612  34.632  0.00  0.00    -0.064 C 
ATOM     23  N   UNL     1      45.699  92.808  34.657  0.00  0.00    +0.379 N 
ATOM     24  C   UNL     1      44.478  92.447  35.391  0.00  0.00    -0.096 C 
ATOM     25  H   UNL     1      45.408  93.029  33.604  0.00  0.00    -0.082 HD
ATOM     26  C   UNL     1      46.387  94.046  35.215  0.00  0.00    -0.064 C 
ATOM     27  C   UNL     1      47.664  94.385  34.397  0.00  0.00    +0.066 C 
ENDBRANCH  19  20
ENDBRANCH  18  19
ENDBRANCH  14  15
ENDBRANCH  12  13
TORSDOF 6
ENDMDL
