MODEL 1
REMARK VINA RESULT:     -11.6      0.000      0.000
REMARK  Name = C:\Users\Docking\Desktop\test protocol\1iep_ligandH.pdb
REMARK  8 active torsions:
REMARK  status: ('A' for Active; 'I' for Inactive)
REMARK    1  A    between atoms: _5  and  _11
REMARK    2  A    between atoms: _19  and  _21
REMARK    3  A    between atoms: _22  and  _66
REMARK    4  A    between atoms: _27  and  _30
REMARK    5  A    between atoms: _32  and  _33
REMARK    6  A    between atoms: _38  and  _43
REMARK    7  A    between atoms: _43  and  _46
REMARK    8  A    between atoms: _53  and  _55
REMARK                            x       y       z     vdW  Elec       q    Type
REMARK                         _______ _______ _______ _____ _____    ______ ____
ROOT
ATOM     10  C   UNL     1      50.613  86.849  39.842  0.00  0.00    +0.038 A 
ATOM     11  C   UNL     1      50.224  87.873  38.941  0.00  0.00    +0.047 A 
ATOM     12  C   UNL     1      50.337  89.277  39.303  0.00  0.00    +0.035 A 
ATOM     32  C   UNL     1      50.855  89.603  40.591  0.00  0.00    +0.024 A 
ATOM     33  C   UNL     1      51.254  88.575  41.520  0.00  0.00    +0.007 A 
ATOM     34  C   UNL     1      51.142  87.188  41.169  0.00  0.00    -0.029 A 
ATOM     35  C   UNL     1      51.579  86.128  42.207  0.00  0.00    +0.045 C 
ENDROOT
BRANCH  10   9
ATOM      4  C   UNL     1      52.424  82.744  38.139  0.00  0.00    +0.077 A 
ATOM      5  C   UNL     1      53.737  83.308  38.009  0.00  0.00    +0.048 A 
ATOM      6  C   UNL     1      53.902  84.660  38.385  0.00  0.00    +0.116 A 
ATOM      7  N   UNL     1      52.828  85.384  38.854  0.00  0.00    -0.223 NA
ATOM      8  C   UNL     1      51.575  84.810  38.966  0.00  0.00    +0.220 A 
ATOM      9  N   UNL     1      50.482  85.517  39.443  0.00  0.00    -0.283 N 
ATOM     36  H   UNL     1      49.572  85.060  39.503  0.00  0.00    +0.155 HD
ATOM     37  N   UNL     1      51.391  83.521  38.612  0.00  0.00    -0.214 NA
BRANCH   4   3
ATOM      1  C   UNL     1      52.131  79.343  36.229  0.00  0.00    +0.020 A 
ATOM      2  C   UNL     1      52.476  80.715  36.521  0.00  0.00    +0.013 A 
ATOM      3  C   UNL     1      52.092  81.328  37.786  0.00  0.00    +0.019 A 
ATOM     38  C   UNL     1      51.352  80.518  38.743  0.00  0.00    +0.120 A 
ATOM     39  N   UNL     1      51.032  79.199  38.434  0.00  0.00    -0.263 NA
ATOM     40  C   UNL     1      51.395  78.600  37.219  0.00  0.00    +0.111 A 
ENDBRANCH   4   3
ENDBRANCH  10   9
BRANCH  12  13
ATOM     13  N   UNL     1      49.951  90.360  38.433  0.00  0.00    -0.281 N 
ATOM     14  C   UNL     1      48.672  90.727  38.047  0.00  0.00    +0.248 C 
ATOM     30  O   UNL     1      47.674  90.044  38.222  0.00  0.00    -0.270 OA
ATOM     31  H   UNL     1      50.712  90.925  38.056  0.00  0.00    +0.155 HD
BRANCH  14  15
ATOM     15  C   UNL     1      48.475  92.036  37.352  0.00  0.00    +0.037 A 
ATOM     16  C   UNL     1      47.614  92.148  36.173  0.00  0.00    +0.013 A 
ATOM     17  C   UNL     1      47.454  93.419  35.512  0.00  0.00    +0.005 A 
ATOM     18  C   UNL     1      48.158  94.589  36.031  0.00  0.00    -0.033 A 
ATOM     28  C   UNL     1      49.002  94.451  37.206  0.00  0.00    +0.005 A 
ATOM     29  C   UNL     1      49.161  93.206  37.856  0.00  0.00    +0.013 A 
BRANCH  18  19
ATOM     19  C   UNL     1      48.063  95.980  35.376  0.00  0.00    +0.119 C 
BRANCH  19  20
ATOM     20  N   UNL     1      49.296  96.515  34.725  0.00  0.00    -0.302 NA
ATOM     21  C   UNL     1      49.125  97.969  34.276  0.00  0.00    +0.066 C 
ATOM     22  C   UNL     1      50.431  98.519  33.617  0.00  0.00    -0.064 C 
ATOM     23  N   UNL     1      50.816  97.629  32.434  0.00  0.00    +0.379 N 
ATOM     24  C   UNL     1      52.012  98.177  31.777  0.00  0.00    -0.096 C 
ATOM     25  H   UNL     1      49.979  97.664  31.698  0.00  0.00    -0.082 HD
ATOM     26  C   UNL     1      50.986  96.181  32.871  0.00  0.00    -0.064 C 
ATOM     27  C   UNL     1      49.692  95.653  33.551  0.00  0.00    +0.066 C 
ENDBRANCH  19  20
ENDBRANCH  18  19
ENDBRANCH  14  15
ENDBRANCH  12  13
TORSDOF 6
ENDMDL
MODEL 2
REMARK VINA RESULT:     -10.9      3.631      7.488
REMARK  Name = C:\Users\Docking\Desktop\test protocol\1iep_ligandH.pdb
REMARK  8 active torsions:
REMARK  status: ('A' for Active; 'I' for Inactive)
REMARK    1  A    between atoms: _5  and  _11
REMARK    2  A    between atoms: _19  and  _21
REMARK    3  A    between atoms: _22  and  _66
REMARK    4  A    between atoms: _27  and  _30
REMARK    5  A    between atoms: _32  and  _33
REMARK    6  A    between atoms: _38  and  _43
REMARK    7  A    between atoms: _43  and  _46
REMARK    8  A    between atoms: _53  and  _55
REMARK                            x       y       z     vdW  Elec       q    Type
REMARK                         _______ _______ _______ _____ _____    ______ ____
ROOT
ATOM     10  C   UNL     1      47.971  92.708  36.581  0.00  0.00    +0.038 A 
ATOM     11  C   UNL     1      48.855  93.739  36.171  0.00  0.00    +0.047 A 
ATOM     12  C   UNL     1      48.508  94.637  35.080  0.00  0.00    +0.035 A 
ATOM     32  C   UNL     1      47.252  94.459  34.431  0.00  0.00    +0.024 A 
ATOM     33  C   UNL     1      46.342  93.416  34.834  0.00  0.00    +0.007 A 
ATOM     34  C   UNL     1      46.680  92.525  35.908  0.00  0.00    -0.029 A 
ATOM     35  C   UNL     1      45.668  91.420  36.293  0.00  0.00    +0.045 C 
ENDROOT
BRANCH  10   9
ATOM      4  C   UNL     1      50.216  88.833  38.309  0.00  0.00    +0.077 A 
ATOM      5  C   UNL     1      50.638  88.421  37.001  0.00  0.00    +0.048 A 
ATOM      6  C   UNL     1      50.250  89.230  35.910  0.00  0.00    +0.116 A 
ATOM      7  N   UNL     1      49.497  90.365  36.122  0.00  0.00    -0.223 NA
ATOM      8  C   UNL     1      49.105  90.733  37.396  0.00  0.00    +0.220 A 
ATOM      9  N   UNL     1      48.355  91.874  37.633  0.00  0.00    -0.283 N 
ATOM     36  H   UNL     1      48.079  92.107  38.587  0.00  0.00    +0.155 HD
ATOM     37  N   UNL     1      49.461  89.976  38.455  0.00  0.00    -0.214 NA
BRANCH   4   3
ATOM      1  C   UNL     1      51.228  87.979  41.990  0.00  0.00    +0.020 A 
ATOM      2  C   UNL     1      50.916  88.748  40.807  0.00  0.00    +0.013 A 
ATOM      3  C   UNL     1      50.549  88.085  39.563  0.00  0.00    +0.019 A 
ATOM     38  C   UNL     1      50.505  86.631  39.548  0.00  0.00    +0.120 A 
ATOM     39  N   UNL     1      50.812  85.916  40.702  0.00  0.00    -0.263 NA
ATOM     40  C   UNL     1      51.169  86.544  41.905  0.00  0.00    +0.111 A 
ENDBRANCH   4   3
ENDBRANCH  10   9
BRANCH  12  13
ATOM     13  N   UNL     1      49.369  95.697  34.615  0.00  0.00    -0.281 N 
ATOM     14  C   UNL     1      50.408  95.611  33.703  0.00  0.00    +0.248 C 
ATOM     30  O   UNL     1      50.896  94.563  33.308  0.00  0.00    -0.270 OA
ATOM     31  H   UNL     1      49.189  96.622  35.005  0.00  0.00    +0.155 HD
BRANCH  14  15
ATOM     15  C   UNL     1      51.001  96.873  33.163  0.00  0.00    +0.037 A 
ATOM     16  C   UNL     1      51.703  97.817  34.037  0.00  0.00    +0.013 A 
ATOM     17  C   UNL     1      52.251  99.035  33.493  0.00  0.00    +0.005 A 
ATOM     18  C   UNL     1      52.099  99.314  32.067  0.00  0.00    -0.033 A 
ATOM     28  C   UNL     1      51.402  98.358  31.223  0.00  0.00    +0.005 A 
ATOM     29  C   UNL     1      50.863  97.164  31.752  0.00  0.00    +0.013 A 
BRANCH  18  19
ATOM     19  C   UNL     1      52.632 100.599  31.406  0.00  0.00    +0.119 C 
BRANCH  19  20
ATOM     20  N   UNL     1      51.751 101.268  30.403  0.00  0.00    -0.302 NA
ATOM     21  C   UNL     1      52.465 102.419  29.689  0.00  0.00    +0.066 C 
ATOM     22  C   UNL     1      51.537 103.094  28.627  0.00  0.00    -0.064 C 
ATOM     23  N   UNL     1      50.260 103.588  29.310  0.00  0.00    +0.379 N 
ATOM     24  C   UNL     1      49.411 104.274  28.326  0.00  0.00    -0.096 C 
ATOM     25  H   UNL     1      50.558 104.337  30.081  0.00  0.00    -0.082 HD
ATOM     26  C   UNL     1      49.546 102.450  30.025  0.00  0.00    -0.064 C 
ATOM     27  C   UNL     1      50.487 101.768  31.057  0.00  0.00    +0.066 C 
ENDBRANCH  19  20
ENDBRANCH  18  19
ENDBRANCH  14  15
ENDBRANCH  12  13
TORSDOF 6
ENDMDL
MODEL 3
REMARK VINA RESULT:     -10.6      3.075      7.351
REMARK  Name = C:\Users\Docking\Desktop\test protocol\1iep_ligandH.pdb
REMARK  8 active torsions:
REMARK  status: ('A' for Active; 'I' for Inactive)
REMARK    1  A    between atoms: _5  and  _11
REMARK    2  A    between atoms: _19  and  _21
REMARK    3  A    between atoms: _22  and  _66
REMARK    4  A    between atoms: _27  and  _30
REMARK    5  A    between atoms: _32  and  _33
REMARK    6  A    between atoms: _38  and  _43
REMARK    7  A    between atoms: _43  and  _46
REMARK    8  A    between atoms: _53  and  _55
REMARK                            x       y       z     vdW  Elec       q    Type
REMARK                         _______ _______ _______ _____ _____    ______ ____
ROOT
ATOM     10  C   UNL     1      47.955  92.303  35.337  0.00  0.00    +0.038 A 
ATOM     11  C   UNL     1      48.771  93.363  34.864  0.00  0.00    +0.047 A 
ATOM     12  C   UNL     1      48.204  94.663  34.542  0.00  0.00    +0.035 A 
ATOM     32  C   UNL     1      46.801  94.850  34.716  0.00  0.00    +0.024 A 
ATOM     33  C   UNL     1      45.957  93.783  35.194  0.00  0.00    +0.007 A 
ATOM     34  C   UNL     1      46.511  92.498  35.511  0.00  0.00    -0.029 A 
ATOM     35  C   UNL     1      45.558  91.389  36.014  0.00  0.00    +0.045 C 
ENDROOT
BRANCH  10   9
ATOM      4  C   UNL     1      49.702  89.079  38.434  0.00  0.00    +0.077 A 
ATOM      5  C   UNL     1      49.425  89.924  39.560  0.00  0.00    +0.048 A 
ATOM      6  C   UNL     1      48.839  91.183  39.299  0.00  0.00    +0.116 A 
ATOM      7  N   UNL     1      48.556  91.559  38.004  0.00  0.00    -0.223 NA
ATOM      8  C   UNL     1      48.837  90.721  36.940  0.00  0.00    +0.220 A 
ATOM      9  N   UNL     1      48.553  91.075  35.630  0.00  0.00    -0.283 N 
ATOM     36  H   UNL     1      48.783  90.432  34.873  0.00  0.00    +0.155 HD
ATOM     37  N   UNL     1      49.398  89.514  37.163  0.00  0.00    -0.214 NA
BRANCH   4   3
ATOM      1  C   UNL     1      51.770  85.843  37.693  0.00  0.00    +0.020 A 
ATOM      2  C   UNL     1      51.203  87.162  37.534  0.00  0.00    +0.013 A 
ATOM      3  C   UNL     1      50.316  87.719  38.548  0.00  0.00    +0.019 A 
ATOM     38  C   UNL     1      50.022  86.909  39.721  0.00  0.00    +0.120 A 
ATOM     39  N   UNL     1      50.582  85.641  39.846  0.00  0.00    -0.263 NA
ATOM     40  C   UNL     1      51.435  85.094  38.876  0.00  0.00    +0.111 A 
ENDBRANCH   4   3
ENDBRANCH  10   9
BRANCH  12  13
ATOM     13  N   UNL     1      48.981  95.774  34.051  0.00  0.00    -0.281 N 
ATOM     14  C   UNL     1      50.348  95.971  34.159  0.00  0.00    +0.248 C 
ATOM     30  O   UNL     1      51.084  95.320  34.885  0.00  0.00    -0.270 OA
ATOM     31  H   UNL     1      48.460  96.504  33.564  0.00  0.00    +0.155 HD
BRANCH  14  15
ATOM     15  C   UNL     1      50.987  97.056  33.354  0.00  0.00    +0.037 A 
ATOM     16  C   UNL     1      50.777  97.154  31.907  0.00  0.00    +0.013 A 
ATOM     17  C   UNL     1      51.418  98.201  31.152  0.00  0.00    +0.005 A 
ATOM     18  C   UNL     1      52.276  99.160  31.844  0.00  0.00    -0.033 A 
ATOM     28  C   UNL     1      52.463  99.043  33.281  0.00  0.00    +0.005 A 
ATOM     29  C   UNL     1      51.836  98.018  34.024  0.00  0.00    +0.013 A 
BRANCH  18  19
ATOM     19  C   UNL     1      53.017 100.296  31.115  0.00  0.00    +0.119 C 
BRANCH  19  20
ATOM     20  N   UNL     1      52.246 101.543  30.829  0.00  0.00    -0.302 NA
ATOM     21  C   UNL     1      50.739 101.339  31.006  0.00  0.00    +0.066 C 
ATOM     22  C   UNL     1      49.949 102.658  30.724  0.00  0.00    -0.064 C 
ATOM     23  N   UNL     1      50.267 103.148  29.310  0.00  0.00    +0.379 N 
ATOM     24  C   UNL     1      49.481 104.356  29.021  0.00  0.00    -0.096 C 
ATOM     25  H   UNL     1      49.942 102.354  28.597  0.00  0.00    -0.082 HD
ATOM     26  C   UNL     1      51.764 103.350  29.124  0.00  0.00    -0.064 C 
ATOM     27  C   UNL     1      52.542 102.041  29.435  0.00  0.00    +0.066 C 
ENDBRANCH  19  20
ENDBRANCH  18  19
ENDBRANCH  14  15
ENDBRANCH  12  13
TORSDOF 6
ENDMDL
MODEL 4
REMARK VINA RESULT:      -9.3      6.389     13.008
REMARK  Name = C:\Users\Docking\Desktop\test protocol\1iep_ligandH.pdb
REMARK  8 active torsions:
REMARK  status: ('A' for Active; 'I' for Inactive)
REMARK    1  A    between atoms: _5  and  _11
REMARK    2  A    between atoms: _19  and  _21
REMARK    3  A    between atoms: _22  and  _66
REMARK    4  A    between atoms: _27  and  _30
REMARK    5  A    between atoms: _32  and  _33
REMARK    6  A    between atoms: _38  and  _43
REMARK    7  A    between atoms: _43  and  _46
REMARK    8  A    between atoms: _53  and  _55
REMARK                            x       y       z     vdW  Elec       q    Type
REMARK                         _______ _______ _______ _____ _____    ______ ____
ROOT
ATOM     10  C   UNL     1      53.614  85.482  39.466  0.00  0.00    +0.038 A 
ATOM     11  C   UNL     1      54.361  85.733  40.645  0.00  0.00    +0.047 A 
ATOM     12  C   UNL     1      55.035  84.655  41.353  0.00  0.00    +0.035 A 
ATOM     32  C   UNL     1      54.930  83.334  40.829  0.00  0.00    +0.024 A 
ATOM     33  C   UNL     1      54.174  83.060  39.633  0.00  0.00    +0.007 A 
ATOM     34  C   UNL     1      53.505  84.119  38.932  0.00  0.00    -0.029 A 
ATOM     35  C   UNL     1      52.703  83.767  37.657  0.00  0.00    +0.045 C 
ENDROOT
BRANCH  10   9
ATOM      4  C   UNL     1      49.879  88.426  38.820  0.00  0.00    +0.077 A 
ATOM      5  C   UNL     1      49.101  87.755  39.821  0.00  0.00    +0.048 A 
ATOM      6  C   UNL     1      49.696  86.652  40.474  0.00  0.00    +0.116 A 
ATOM      7  N   UNL     1      50.975  86.259  40.143  0.00  0.00    -0.223 NA
ATOM      8  C   UNL     1      51.697  86.927  39.171  0.00  0.00    +0.220 A 
ATOM      9  N   UNL     1      52.987  86.554  38.827  0.00  0.00    -0.283 N 
ATOM     36  H   UNL     1      53.484  87.068  38.100  0.00  0.00    +0.155 HD
ATOM     37  N   UNL     1      51.150  87.982  38.532  0.00  0.00    -0.214 NA
BRANCH   4   3
ATOM      1  C   UNL     1      47.557  91.035  37.059  0.00  0.00    +0.020 A 
ATOM      2  C   UNL     1      47.976  89.877  37.814  0.00  0.00    +0.013 A 
ATOM      3  C   UNL     1      49.390  89.610  38.045  0.00  0.00    +0.019 A 
ATOM     38  C   UNL     1      50.362  90.542  37.493  0.00  0.00    +0.120 A 
ATOM     39  N   UNL     1      49.929  91.648  36.768  0.00  0.00    -0.263 NA
ATOM     40  C   UNL     1      48.571  91.914  36.539  0.00  0.00    +0.111 A 
ENDBRANCH   4   3
ENDBRANCH  10   9
BRANCH  12  13
ATOM     13  N   UNL     1      55.802  84.849  42.559  0.00  0.00    -0.281 N 
ATOM     14  C   UNL     1      57.169  85.037  42.678  0.00  0.00    +0.248 C 
ATOM     30  O   UNL     1      57.973  84.854  41.777  0.00  0.00    -0.270 OA
ATOM     31  H   UNL     1      55.272  84.846  43.430  0.00  0.00    +0.155 HD
BRANCH  14  15
ATOM     15  C   UNL     1      57.724  85.479  43.994  0.00  0.00    +0.037 A 
ATOM     16  C   UNL     1      58.870  84.798  44.602  0.00  0.00    +0.013 A 
ATOM     17  C   UNL     1      59.376  85.234  45.880  0.00  0.00    +0.005 A 
ATOM     18  C   UNL     1      58.736  86.359  46.557  0.00  0.00    -0.033 A 
ATOM     28  C   UNL     1      57.604  87.019  45.929  0.00  0.00    +0.005 A 
ATOM     29  C   UNL     1      57.105  86.594  44.677  0.00  0.00    +0.013 A 
BRANCH  18  19
ATOM     19  C   UNL     1      59.195  86.877  47.933  0.00  0.00    +0.119 C 
BRANCH  19  20
ATOM     20  N   UNL     1      58.194  87.625  48.750  0.00  0.00    -0.302 NA
ATOM     21  C   UNL     1      58.821  88.242  50.004  0.00  0.00    +0.066 C 
ATOM     22  C   UNL     1      57.765  89.039  50.836  0.00  0.00    -0.064 C 
ATOM     23  N   UNL     1      56.608  88.111  51.210  0.00  0.00    +0.379 N 
ATOM     24  C   UNL     1      55.641  88.843  52.041  0.00  0.00    -0.096 C 
ATOM     25  H   UNL     1      57.026  87.282  51.827  0.00  0.00    -0.082 HD
ATOM     26  C   UNL     1      55.980  87.492  49.969  0.00  0.00    -0.064 C 
ATOM     27  C   UNL     1      57.044  86.726  49.135  0.00  0.00    +0.066 C 
ENDBRANCH  19  20
ENDBRANCH  18  19
ENDBRANCH  14  15
ENDBRANCH  12  13
TORSDOF 6
ENDMDL
MODEL 5
REMARK VINA RESULT:      -9.2      3.849      5.819
REMARK  Name = C:\Users\Docking\Desktop\test protocol\1iep_ligandH.pdb
REMARK  8 active torsions:
REMARK  status: ('A' for Active; 'I' for Inactive)
REMARK    1  A    between atoms: _5  and  _11
REMARK    2  A    between atoms: _19  and  _21
REMARK    3  A    between atoms: _22  and  _66
REMARK    4  A    between atoms: _27  and  _30
REMARK    5  A    between atoms: _32  and  _33
REMARK    6  A    between atoms: _38  and  _43
REMARK    7  A    between atoms: _43  and  _46
REMARK    8  A    between atoms: _53  and  _55
REMARK                            x       y       z     vdW  Elec       q    Type
REMARK                         _______ _______ _______ _____ _____    ______ ____
ROOT
ATOM     10  C   UNL     1      53.397  84.692  38.296  0.00  0.00    +0.038 A 
ATOM     11  C   UNL     1      52.378  85.440  37.652  0.00  0.00    +0.047 A 
ATOM     12  C   UNL     1      51.148  85.788  38.346  0.00  0.00    +0.035 A 
ATOM     32  C   UNL     1      50.990  85.361  39.696  0.00  0.00    +0.024 A 
ATOM     33  C   UNL     1      52.015  84.599  40.366  0.00  0.00    +0.007 A 
ATOM     34  C   UNL     1      53.229  84.250  39.685  0.00  0.00    -0.029 A 
ATOM     35  C   UNL     1      54.291  83.426  40.450  0.00  0.00    +0.045 C 
ENDROOT
BRANCH  10   9
ATOM      4  C   UNL     1      57.411  85.967  35.994  0.00  0.00    +0.077 A 
ATOM      5  C   UNL     1      57.161  87.363  36.208  0.00  0.00    +0.048 A 
ATOM      6  C   UNL     1      55.984  87.712  36.909  0.00  0.00    +0.116 A 
ATOM      7  N   UNL     1      55.129  86.728  37.357  0.00  0.00    -0.223 NA
ATOM      8  C   UNL     1      55.399  85.391  37.133  0.00  0.00    +0.220 A 
ATOM      9  N   UNL     1      54.558  84.385  37.582  0.00  0.00    -0.283 N 
ATOM     36  H   UNL     1      54.789  83.411  37.390  0.00  0.00    +0.155 HD
ATOM     37  N   UNL     1      56.516  85.033  36.465  0.00  0.00    -0.214 NA
BRANCH   4   3
ATOM      1  C   UNL     1      60.210  83.592  34.643  0.00  0.00    +0.020 A 
ATOM      2  C   UNL     1      59.042  84.050  35.359  0.00  0.00    +0.013 A 
ATOM      3  C   UNL     1      58.613  85.440  35.273  0.00  0.00    +0.019 A 
ATOM     38  C   UNL     1      59.394  86.349  34.448  0.00  0.00    +0.120 A 
ATOM     39  N   UNL     1      60.516  85.880  33.771  0.00  0.00    -0.263 NA
ATOM     40  C   UNL     1      60.939  84.545  33.847  0.00  0.00    +0.111 A 
ENDBRANCH   4   3
ENDBRANCH  10   9
BRANCH  12  13
ATOM     13  N   UNL     1      50.075  86.539  37.741  0.00  0.00    -0.281 N 
ATOM     14  C   UNL     1      49.463  87.685  38.220  0.00  0.00    +0.248 C 
ATOM     30  O   UNL     1      49.602  88.122  39.353  0.00  0.00    -0.270 OA
ATOM     31  H   UNL     1      49.725  86.181  36.853  0.00  0.00    +0.155 HD
BRANCH  14  15
ATOM     15  C   UNL     1      48.553  88.450  37.313  0.00  0.00    +0.037 A 
ATOM     16  C   UNL     1      48.349  88.042  35.921  0.00  0.00    +0.013 A 
ATOM     17  C   UNL     1      47.480  88.808  35.063  0.00  0.00    +0.005 A 
ATOM     18  C   UNL     1      46.806  89.989  35.597  0.00  0.00    -0.033 A 
ATOM     28  C   UNL     1      47.022  90.368  36.984  0.00  0.00    +0.005 A 
ATOM     29  C   UNL     1      47.874  89.621  37.827  0.00  0.00    +0.013 A 
BRANCH  18  19
ATOM     19  C   UNL     1      45.877  90.877  34.748  0.00  0.00    +0.119 C 
BRANCH  19  20
ATOM     20  N   UNL     1      46.428  92.178  34.265  0.00  0.00    -0.302 NA
ATOM     21  C   UNL     1      47.936  92.103  34.009  0.00  0.00    +0.066 C 
ATOM     22  C   UNL     1      48.492  93.466  33.482  0.00  0.00    -0.064 C 
ATOM     23  N   UNL     1      48.169  94.569  34.491  0.00  0.00    +0.379 N 
ATOM     24  C   UNL     1      48.741  95.842  34.027  0.00  0.00    -0.096 C 
ATOM     25  H   UNL     1      48.667  94.305  35.453  0.00  0.00    -0.082 HD
ATOM     26  C   UNL     1      46.672  94.649  34.755  0.00  0.00    -0.064 C 
ATOM     27  C   UNL     1      46.124  93.281  35.249  0.00  0.00    +0.066 C 
ENDBRANCH  19  20
ENDBRANCH  18  19
ENDBRANCH  14  15
ENDBRANCH  12  13
TORSDOF 6
ENDMDL
