MODEL 1
REMARK VINA RESULT:      -7.8      0.000      0.000
REMARK  Name = C:\Users\Docking\Desktop\test protocol\1iep_ligandH.pdb
REMARK  8 active torsions:
REMARK  status: ('A' for Active; 'I' for Inactive)
REMARK    1  A    between atoms: _5  and  _11
REMARK    2  A    between atoms: _19  and  _21
REMARK    3  A    between atoms: _22  and  _66
REMARK    4  A    between atoms: _27  and  _30
REMARK    5  A    between atoms: _32  and  _33
REMARK    6  A    between atoms: _38  and  _43
REMARK    7  A    between atoms: _43  and  _46
REMARK    8  A    between atoms: _53  and  _55
REMARK                            x       y       z     vdW  Elec       q    Type
REMARK                         _______ _______ _______ _____ _____    ______ ____
ROOT
ATOM     10  C   UNL     1     -11.386 -48.558 -19.486  0.00  0.00    +0.038 A 
ATOM     11  C   UNL     1     -12.777 -48.341 -19.312  0.00  0.00    +0.047 A 
ATOM     12  C   UNL     1     -13.622 -49.341 -18.678  0.00  0.00    +0.035 A 
ATOM     32  C   UNL     1     -13.016 -50.551 -18.230  0.00  0.00    +0.024 A 
ATOM     33  C   UNL     1     -11.604 -50.789 -18.399  0.00  0.00    +0.007 A 
ATOM     34  C   UNL     1     -10.766 -49.807 -19.026  0.00  0.00    -0.029 A 
ATOM     35  C   UNL     1      -9.260 -50.119 -19.187  0.00  0.00    +0.045 C 
ENDROOT
BRANCH  10   9
ATOM      4  C   UNL     1      -8.354 -44.841 -19.323  0.00  0.00    +0.077 A 
ATOM      5  C   UNL     1      -8.309 -44.865 -17.889  0.00  0.00    +0.048 A 
ATOM      6  C   UNL     1      -9.086 -45.845 -17.232  0.00  0.00    +0.116 A 
ATOM      7  N   UNL     1      -9.847 -46.730 -17.963  0.00  0.00    -0.223 NA
ATOM      8  C   UNL     1      -9.870 -46.679 -19.345  0.00  0.00    +0.220 A 
ATOM      9  N   UNL     1     -10.623 -47.564 -20.101  0.00  0.00    -0.283 N 
ATOM     36  H   UNL     1     -10.618 -47.489 -21.118  0.00  0.00    +0.155 HD
ATOM     37  N   UNL     1      -9.138 -45.751 -19.997  0.00  0.00    -0.214 NA
BRANCH   4   3
ATOM      1  C   UNL     1      -5.908 -43.300 -21.958  0.00  0.00    +0.020 A 
ATOM      2  C   UNL     1      -6.623 -44.281 -21.175  0.00  0.00    +0.013 A 
ATOM      3  C   UNL     1      -7.586 -43.868 -20.161  0.00  0.00    +0.019 A 
ATOM     38  C   UNL     1      -7.804 -42.442 -19.965  0.00  0.00    +0.120 A 
ATOM     39  N   UNL     1      -7.099 -41.520 -20.733  0.00  0.00    -0.263 NA
ATOM     40  C   UNL     1      -6.169 -41.907 -21.709  0.00  0.00    +0.111 A 
ENDBRANCH   4   3
ENDBRANCH  10   9
BRANCH  12  13
ATOM     13  N   UNL     1     -15.041 -49.179 -18.482  0.00  0.00    -0.281 N 
ATOM     14  C   UNL     1     -15.687 -48.391 -17.544  0.00  0.00    +0.248 C 
ATOM     30  O   UNL     1     -15.138 -47.867 -16.586  0.00  0.00    -0.270 OA
ATOM     31  H   UNL     1     -15.643 -49.711 -19.112  0.00  0.00    +0.155 HD
BRANCH  14  15
ATOM     15  C   UNL     1     -17.158 -48.164 -17.681  0.00  0.00    +0.037 A 
ATOM     16  C   UNL     1     -17.692 -46.853 -18.061  0.00  0.00    +0.013 A 
ATOM     17  C   UNL     1     -19.116 -46.657 -18.169  0.00  0.00    +0.005 A 
ATOM     18  C   UNL     1     -20.016 -47.776 -17.899  0.00  0.00    -0.033 A 
ATOM     28  C   UNL     1     -19.459 -49.066 -17.530  0.00  0.00    +0.005 A 
ATOM     29  C   UNL     1     -18.064 -49.262 -17.421  0.00  0.00    +0.013 A 
BRANCH  18  19
ATOM     19  C   UNL     1     -21.550 -47.651 -17.970  0.00  0.00    +0.119 C 
BRANCH  19  20
ATOM     20  N   UNL     1     -22.353 -48.663 -17.222  0.00  0.00    -0.302 NA
ATOM     21  C   UNL     1     -23.718 -48.907 -17.871  0.00  0.00    +0.066 C 
ATOM     22  C   UNL     1     -24.537 -49.985 -17.088  0.00  0.00    -0.064 C 
ATOM     23  N   UNL     1     -24.700 -49.541 -15.634  0.00  0.00    +0.379 N 
ATOM     24  C   UNL     1     -25.519 -50.524 -14.910  0.00  0.00    -0.096 C 
ATOM     25  H   UNL     1     -25.256 -48.574 -15.637  0.00  0.00    -0.082 HD
ATOM     26  C   UNL     1     -23.348 -49.293 -14.982  0.00  0.00    -0.064 C 
ATOM     27  C   UNL     1     -22.531 -48.242 -15.784  0.00  0.00    +0.066 C 
ENDBRANCH  19  20
ENDBRANCH  18  19
ENDBRANCH  14  15
ENDBRANCH  12  13
TORSDOF 6
ENDMDL
MODEL 2
REMARK VINA RESULT:      -7.1      3.578     14.100
REMARK  Name = C:\Users\Docking\Desktop\test protocol\1iep_ligandH.pdb
REMARK  8 active torsions:
REMARK  status: ('A' for Active; 'I' for Inactive)
REMARK    1  A    between atoms: _5  and  _11
REMARK    2  A    between atoms: _19  and  _21
REMARK    3  A    between atoms: _22  and  _66
REMARK    4  A    between atoms: _27  and  _30
REMARK    5  A    between atoms: _32  and  _33
REMARK    6  A    between atoms: _38  and  _43
REMARK    7  A    between atoms: _43  and  _46
REMARK    8  A    between atoms: _53  and  _55
REMARK                            x       y       z     vdW  Elec       q    Type
REMARK                         _______ _______ _______ _____ _____    ______ ____
ROOT
ATOM     10  C   UNL     1     -22.268 -49.757 -17.988  0.00  0.00    +0.038 A 
ATOM     11  C   UNL     1     -20.891 -49.551 -18.259  0.00  0.00    +0.047 A 
ATOM     12  C   UNL     1     -20.231 -48.307 -17.894  0.00  0.00    +0.035 A 
ATOM     32  C   UNL     1     -21.003 -47.295 -17.252  0.00  0.00    +0.024 A 
ATOM     33  C   UNL     1     -22.404 -47.488 -16.971  0.00  0.00    +0.007 A 
ATOM     34  C   UNL     1     -23.061 -48.712 -17.331  0.00  0.00    -0.029 A 
ATOM     35  C   UNL     1     -24.567 -48.861 -17.010  0.00  0.00    +0.045 C 
ENDROOT
BRANCH  10   9
ATOM      4  C   UNL     1     -23.311 -54.373 -17.187  0.00  0.00    +0.077 A 
ATOM      5  C   UNL     1     -22.613 -54.375 -15.934  0.00  0.00    +0.048 A 
ATOM      6  C   UNL     1     -21.993 -53.169 -15.535  0.00  0.00    +0.116 A 
ATOM      7  N   UNL     1     -22.072 -52.052 -16.338  0.00  0.00    -0.223 NA
ATOM      8  C   UNL     1     -22.751 -52.085 -17.541  0.00  0.00    +0.220 A 
ATOM      9  N   UNL     1     -22.850 -50.971 -18.360  0.00  0.00    -0.283 N 
ATOM     36  H   UNL     1     -23.354 -51.038 -19.244  0.00  0.00    +0.155 HD
ATOM     37  N   UNL     1     -23.351 -53.224 -17.945  0.00  0.00    -0.214 NA
BRANCH   4   3
ATOM      1  C   UNL     1     -25.061 -57.856 -17.520  0.00  0.00    +0.020 A 
ATOM      2  C   UNL     1     -24.377 -56.726 -16.933  0.00  0.00    +0.013 A 
ATOM      3  C   UNL     1     -24.019 -55.569 -17.744  0.00  0.00    +0.019 A 
ATOM     38  C   UNL     1     -24.372 -55.586 -19.155  0.00  0.00    +0.120 A 
ATOM     39  N   UNL     1     -25.030 -56.688 -19.693  0.00  0.00    -0.263 NA
ATOM     40  C   UNL     1     -25.377 -57.808 -18.923  0.00  0.00    +0.111 A 
ENDBRANCH   4   3
ENDBRANCH  10   9
BRANCH  12  13
ATOM     13  N   UNL     1     -18.838 -48.037 -18.150  0.00  0.00    -0.281 N 
ATOM     14  C   UNL     1     -17.742 -48.432 -17.401  0.00  0.00    +0.248 C 
ATOM     30  O   UNL     1     -17.807 -48.900 -16.274  0.00  0.00    -0.270 OA
ATOM     31  H   UNL     1     -18.635 -47.488 -18.986  0.00  0.00    +0.155 HD
BRANCH  14  15
ATOM     15  C   UNL     1     -16.374 -48.272 -17.982  0.00  0.00    +0.037 A 
ATOM     16  C   UNL     1     -15.812 -46.945 -18.247  0.00  0.00    +0.013 A 
ATOM     17  C   UNL     1     -14.497 -46.819 -18.824  0.00  0.00    +0.005 A 
ATOM     18  C   UNL     1     -13.734 -48.025 -19.138  0.00  0.00    -0.033 A 
ATOM     28  C   UNL     1     -14.314 -49.328 -18.861  0.00  0.00    +0.005 A 
ATOM     29  C   UNL     1     -15.603 -49.456 -18.296  0.00  0.00    +0.013 A 
BRANCH  18  19
ATOM     19  C   UNL     1     -12.332 -47.985 -19.775  0.00  0.00    +0.119 C 
BRANCH  19  20
ATOM     20  N   UNL     1     -11.289 -47.171 -19.082  0.00  0.00    -0.302 NA
ATOM     21  C   UNL     1      -9.978 -47.126 -19.871  0.00  0.00    +0.066 C 
ATOM     22  C   UNL     1      -8.905 -46.252 -19.143  0.00  0.00    -0.064 C 
ATOM     23  N   UNL     1      -8.672 -46.803 -17.736  0.00  0.00    +0.379 N 
ATOM     24  C   UNL     1      -7.622 -46.018 -17.069  0.00  0.00    -0.096 C 
ATOM     25  H   UNL     1      -8.299 -47.848 -17.840  0.00  0.00    -0.082 HD
ATOM     26  C   UNL     1      -9.972 -46.854 -16.945  0.00  0.00    -0.064 C 
ATOM     27  C   UNL     1     -11.040 -47.700 -17.692  0.00  0.00    +0.066 C 
ENDBRANCH  19  20
ENDBRANCH  18  19
ENDBRANCH  14  15
ENDBRANCH  12  13
TORSDOF 6
ENDMDL
MODEL 3
REMARK VINA RESULT:      -7.1     27.796     31.459
REMARK  Name = C:\Users\Docking\Desktop\test protocol\1iep_ligandH.pdb
REMARK  8 active torsions:
REMARK  status: ('A' for Active; 'I' for Inactive)
REMARK    1  A    between atoms: _5  and  _11
REMARK    2  A    between atoms: _19  and  _21
REMARK    3  A    between atoms: _22  and  _66
REMARK    4  A    between atoms: _27  and  _30
REMARK    5  A    between atoms: _32  and  _33
REMARK    6  A    between atoms: _38  and  _43
REMARK    7  A    between atoms: _43  and  _46
REMARK    8  A    between atoms: _53  and  _55
REMARK                            x       y       z     vdW  Elec       q    Type
REMARK                         _______ _______ _______ _____ _____    ______ ____
ROOT
ATOM     10  C   UNL     1     -15.405 -44.719 -47.214  0.00  0.00    +0.038 A 
ATOM     11  C   UNL     1     -15.132 -43.330 -47.301  0.00  0.00    +0.047 A 
ATOM     12  C   UNL     1     -15.874 -42.472 -48.211  0.00  0.00    +0.035 A 
ATOM     32  C   UNL     1     -16.891 -43.062 -49.018  0.00  0.00    +0.024 A 
ATOM     33  C   UNL     1     -17.181 -44.473 -48.943  0.00  0.00    +0.007 A 
ATOM     34  C   UNL     1     -16.451 -45.324 -48.049  0.00  0.00    -0.029 A 
ATOM     35  C   UNL     1     -16.800 -46.830 -48.015  0.00  0.00    +0.045 C 
ENDROOT
BRANCH  10   9
ATOM      4  C   UNL     1     -11.261 -46.559 -45.643  0.00  0.00    +0.077 A 
ATOM      5  C   UNL     1     -10.517 -45.943 -46.703  0.00  0.00    +0.048 A 
ATOM      6  C   UNL     1     -11.239 -45.167 -47.637  0.00  0.00    +0.116 A 
ATOM      7  N   UNL     1     -12.604 -45.024 -47.509  0.00  0.00    -0.223 NA
ATOM      8  C   UNL     1     -13.291 -45.632 -46.475  0.00  0.00    +0.220 A 
ATOM      9  N   UNL     1     -14.662 -45.495 -46.322  0.00  0.00    -0.283 N 
ATOM     36  H   UNL     1     -15.133 -45.967 -45.550  0.00  0.00    +0.155 HD
ATOM     37  N   UNL     1     -12.624 -46.380 -45.571  0.00  0.00    -0.214 NA
BRANCH   4   3
ATOM      1  C   UNL     1     -10.724 -49.235 -42.840  0.00  0.00    +0.020 A 
ATOM      2  C   UNL     1     -11.372 -48.444 -43.861  0.00  0.00    +0.013 A 
ATOM      3  C   UNL     1     -10.639 -47.407 -44.577  0.00  0.00    +0.019 A 
ATOM     38  C   UNL     1      -9.240 -47.196 -44.234  0.00  0.00    +0.120 A 
ATOM     39  N   UNL     1      -8.644 -47.972 -43.246  0.00  0.00    -0.263 NA
ATOM     40  C   UNL     1      -9.339 -48.971 -42.549  0.00  0.00    +0.111 A 
ENDBRANCH   4   3
ENDBRANCH  10   9
BRANCH  12  13
ATOM     13  N   UNL     1     -15.635 -41.057 -48.349  0.00  0.00    -0.281 N 
ATOM     14  C   UNL     1     -14.647 -40.428 -49.087  0.00  0.00    +0.248 C 
ATOM     30  O   UNL     1     -13.681 -40.996 -49.574  0.00  0.00    -0.270 OA
ATOM     31  H   UNL     1     -16.273 -40.444 -47.839  0.00  0.00    +0.155 HD
BRANCH  14  15
ATOM     15  C   UNL     1     -14.736 -38.952 -49.304  0.00  0.00    +0.037 A 
ATOM     16  C   UNL     1     -13.597 -38.073 -49.030  0.00  0.00    +0.013 A 
ATOM     17  C   UNL     1     -13.715 -36.650 -49.231  0.00  0.00    +0.005 A 
ATOM     18  C   UNL     1     -14.980 -36.098 -49.712  0.00  0.00    -0.033 A 
ATOM     28  C   UNL     1     -16.093 -36.993 -49.980  0.00  0.00    +0.005 A 
ATOM     29  C   UNL     1     -15.981 -38.388 -49.783  0.00  0.00    +0.013 A 
BRANCH  18  19
ATOM     19  C   UNL     1     -15.203 -34.590 -49.935  0.00  0.00    +0.119 C 
BRANCH  19  20
ATOM     20  N   UNL     1     -14.223 -33.654 -49.309  0.00  0.00    -0.302 NA
ATOM     21  C   UNL     1     -14.779 -33.003 -48.039  0.00  0.00    +0.066 C 
ATOM     22  C   UNL     1     -13.732 -32.044 -47.385  0.00  0.00    -0.064 C 
ATOM     23  N   UNL     1     -13.315 -30.979 -48.402  0.00  0.00    +0.379 N 
ATOM     24  C   UNL     1     -12.375 -30.042 -47.771  0.00  0.00    -0.096 C 
ATOM     25  H   UNL     1     -14.228 -30.405 -48.683  0.00  0.00    -0.082 HD
ATOM     26  C   UNL     1     -12.763 -31.618 -49.668  0.00  0.00    -0.064 C 
ATOM     27  C   UNL     1     -13.800 -32.592 -50.294  0.00  0.00    +0.066 C 
ENDBRANCH  19  20
ENDBRANCH  18  19
ENDBRANCH  14  15
ENDBRANCH  12  13
TORSDOF 6
ENDMDL
MODEL 4
REMARK VINA RESULT:      -6.5      2.524     13.997
REMARK  Name = C:\Users\Docking\Desktop\test protocol\1iep_ligandH.pdb
REMARK  8 active torsions:
REMARK  status: ('A' for Active; 'I' for Inactive)
REMARK    1  A    between atoms: _5  and  _11
REMARK    2  A    between atoms: _19  and  _21
REMARK    3  A    between atoms: _22  and  _66
REMARK    4  A    between atoms: _27  and  _30
REMARK    5  A    between atoms: _32  and  _33
REMARK    6  A    between atoms: _38  and  _43
REMARK    7  A    between atoms: _43  and  _46
REMARK    8  A    between atoms: _53  and  _55
REMARK                            x       y       z     vdW  Elec       q    Type
REMARK                         _______ _______ _______ _____ _____    ______ ____
ROOT
ATOM     10  C   UNL     1     -20.474 -48.721 -16.618  0.00  0.00    +0.038 A 
ATOM     11  C   UNL     1     -19.070 -48.906 -16.694  0.00  0.00    +0.047 A 
ATOM     12  C   UNL     1     -18.244 -48.059 -17.541  0.00  0.00    +0.035 A 
ATOM     32  C   UNL     1     -18.881 -47.031 -18.295  0.00  0.00    +0.024 A 
ATOM     33  C   UNL     1     -20.308 -46.830 -18.230  0.00  0.00    +0.007 A 
ATOM     34  C   UNL     1     -21.127 -47.664 -17.399  0.00  0.00    -0.029 A 
ATOM     35  C   UNL     1     -22.652 -47.406 -17.373  0.00  0.00    +0.045 C 
ENDROOT
BRANCH  10   9
ATOM      4  C   UNL     1     -22.937 -52.758 -15.799  0.00  0.00    +0.077 A 
ATOM      5  C   UNL     1     -22.748 -53.216 -17.145  0.00  0.00    +0.048 A 
ATOM      6  C   UNL     1     -22.018 -52.380 -18.019  0.00  0.00    +0.116 A 
ATOM      7  N   UNL     1     -21.517 -51.177 -17.569  0.00  0.00    -0.223 NA
ATOM      8  C   UNL     1     -21.719 -50.764 -16.265  0.00  0.00    +0.220 A 
ATOM      9  N   UNL     1     -21.218 -49.563 -15.789  0.00  0.00    -0.283 N 
ATOM     36  H   UNL     1     -21.395 -49.290 -14.822  0.00  0.00    +0.155 HD
ATOM     37  N   UNL     1     -22.415 -51.544 -15.411  0.00  0.00    -0.214 NA
BRANCH   4   3
ATOM      1  C   UNL     1     -24.502 -53.890 -12.397  0.00  0.00    +0.020 A 
ATOM      2  C   UNL     1     -23.766 -53.108 -13.364  0.00  0.00    +0.013 A 
ATOM      3  C   UNL     1     -23.685 -53.530 -14.757  0.00  0.00    +0.019 A 
ATOM     38  C   UNL     1     -24.364 -54.758 -15.141  0.00  0.00    +0.120 A 
ATOM     39  N   UNL     1     -25.063 -55.492 -14.188  0.00  0.00    -0.263 NA
ATOM     40  C   UNL     1     -25.147 -55.096 -12.845  0.00  0.00    +0.111 A 
ENDBRANCH   4   3
ENDBRANCH  10   9
BRANCH  12  13
ATOM     13  N   UNL     1     -16.815 -48.205 -17.665  0.00  0.00    -0.281 N 
ATOM     14  C   UNL     1     -16.113 -49.232 -18.274  0.00  0.00    +0.248 C 
ATOM     30  O   UNL     1     -16.606 -50.295 -18.620  0.00  0.00    -0.270 OA
ATOM     31  H   UNL     1     -16.252 -47.460 -17.253  0.00  0.00    +0.155 HD
BRANCH  14  15
ATOM     15  C   UNL     1     -14.649 -49.059 -18.521  0.00  0.00    +0.037 A 
ATOM     16  C   UNL     1     -13.663 -49.942 -17.893  0.00  0.00    +0.013 A 
ATOM     17  C   UNL     1     -12.256 -49.742 -18.135  0.00  0.00    +0.005 A 
ATOM     18  C   UNL     1     -11.827 -48.655 -19.012  0.00  0.00    -0.033 A 
ATOM     28  C   UNL     1     -12.827 -47.798 -19.626  0.00  0.00    +0.005 A 
ATOM     29  C   UNL     1     -14.207 -47.990 -19.391  0.00  0.00    +0.013 A 
BRANCH  18  19
ATOM     19  C   UNL     1     -10.346 -48.356 -19.310  0.00  0.00    +0.119 C 
BRANCH  19  20
ATOM     20  N   UNL     1      -9.901 -46.934 -19.206  0.00  0.00    -0.302 NA
ATOM     21  C   UNL     1      -9.055 -46.508 -20.408  0.00  0.00    +0.066 C 
ATOM     22  C   UNL     1      -8.617 -45.011 -20.294  0.00  0.00    -0.064 C 
ATOM     23  N   UNL     1      -7.846 -44.806 -18.989  0.00  0.00    +0.379 N 
ATOM     24  C   UNL     1      -7.383 -43.413 -18.906  0.00  0.00    -0.096 C 
ATOM     25  H   UNL     1      -6.945 -45.461 -19.022  0.00  0.00    -0.082 HD
ATOM     26  C   UNL     1      -8.680 -45.230 -17.788  0.00  0.00    -0.064 C 
ATOM     27  C   UNL     1      -9.134 -46.710 -17.926  0.00  0.00    +0.066 C 
ENDBRANCH  19  20
ENDBRANCH  18  19
ENDBRANCH  14  15
ENDBRANCH  12  13
TORSDOF 6
ENDMDL
MODEL 5
REMARK VINA RESULT:      -6.4     23.338     26.956
REMARK  Name = C:\Users\Docking\Desktop\test protocol\1iep_ligandH.pdb
REMARK  8 active torsions:
REMARK  status: ('A' for Active; 'I' for Inactive)
REMARK    1  A    between atoms: _5  and  _11
REMARK    2  A    between atoms: _19  and  _21
REMARK    3  A    between atoms: _22  and  _66
REMARK    4  A    between atoms: _27  and  _30
REMARK    5  A    between atoms: _32  and  _33
REMARK    6  A    between atoms: _38  and  _43
REMARK    7  A    between atoms: _43  and  _46
REMARK    8  A    between atoms: _53  and  _55
REMARK                            x       y       z     vdW  Elec       q    Type
REMARK                         _______ _______ _______ _____ _____    ______ ____
ROOT
ATOM     10  C   UNL     1     -34.360 -30.315 -15.634  0.00  0.00    +0.038 A 
ATOM     11  C   UNL     1     -34.926 -31.206 -16.581  0.00  0.00    +0.047 A 
ATOM     12  C   UNL     1     -36.366 -31.398 -16.667  0.00  0.00    +0.035 A 
ATOM     32  C   UNL     1     -37.199 -30.664 -15.773  0.00  0.00    +0.024 A 
ATOM     33  C   UNL     1     -36.640 -29.755 -14.804  0.00  0.00    +0.007 A 
ATOM     34  C   UNL     1     -35.221 -29.563 -14.714  0.00  0.00    -0.029 A 
ATOM     35  C   UNL     1     -34.677 -28.580 -13.651  0.00  0.00    +0.045 C 
ENDROOT
BRANCH  10   9
ATOM      4  C   UNL     1     -30.248 -28.491 -17.308  0.00  0.00    +0.077 A 
ATOM      5  C   UNL     1     -30.920 -27.791 -18.365  0.00  0.00    +0.048 A 
ATOM      6  C   UNL     1     -32.323 -27.932 -18.447  0.00  0.00    +0.116 A 
ATOM      7  N   UNL     1     -32.995 -28.717 -17.535  0.00  0.00    -0.223 NA
ATOM      8  C   UNL     1     -32.316 -29.381 -16.529  0.00  0.00    +0.220 A 
ATOM      9  N   UNL     1     -32.971 -30.169 -15.596  0.00  0.00    -0.283 N 
ATOM     36  H   UNL     1     -32.434 -30.648 -14.874  0.00  0.00    +0.155 HD
ATOM     37  N   UNL     1     -30.975 -29.263 -16.430  0.00  0.00    -0.214 NA
BRANCH   4   3
ATOM      1  C   UNL     1     -26.390 -28.973 -17.740  0.00  0.00    +0.020 A 
ATOM      2  C   UNL     1     -27.810 -29.053 -17.998  0.00  0.00    +0.013 A 
ATOM      3  C   UNL     1     -28.768 -28.439 -17.088  0.00  0.00    +0.019 A 
ATOM     38  C   UNL     1     -28.253 -27.745 -15.917  0.00  0.00    +0.120 A 
ATOM     39  N   UNL     1     -26.881 -27.685 -15.694  0.00  0.00    -0.263 NA
ATOM     40  C   UNL     1     -25.950 -28.274 -16.562  0.00  0.00    +0.111 A 
ENDBRANCH   4   3
ENDBRANCH  10   9
BRANCH  12  13
ATOM     13  N   UNL     1     -36.998 -32.295 -17.602  0.00  0.00    -0.281 N 
ATOM     14  C   UNL     1     -37.778 -33.405 -17.323  0.00  0.00    +0.248 C 
ATOM     30  O   UNL     1     -37.875 -33.922 -16.220  0.00  0.00    -0.270 OA
ATOM     31  H   UNL     1     -36.852 -32.087 -18.590  0.00  0.00    +0.155 HD
BRANCH  14  15
ATOM     15  C   UNL     1     -38.550 -34.042 -18.433  0.00  0.00    +0.037 A 
ATOM     16  C   UNL     1     -38.582 -33.452 -19.773  0.00  0.00    +0.013 A 
ATOM     17  C   UNL     1     -39.349 -34.077 -20.821  0.00  0.00    +0.005 A 
ATOM     18  C   UNL     1     -40.090 -35.303 -20.532  0.00  0.00    -0.033 A 
ATOM     28  C   UNL     1     -40.038 -35.870 -19.195  0.00  0.00    +0.005 A 
ATOM     29  C   UNL     1     -39.288 -35.259 -18.165  0.00  0.00    +0.013 A 
BRANCH  18  19
ATOM     19  C   UNL     1     -40.952 -36.026 -21.584  0.00  0.00    +0.119 C 
BRANCH  19  20
ATOM     20  N   UNL     1     -42.372 -36.316 -21.222  0.00  0.00    -0.302 NA
ATOM     21  C   UNL     1     -42.721 -37.795 -21.408  0.00  0.00    +0.066 C 
ATOM     22  C   UNL     1     -44.203 -38.085 -21.004  0.00  0.00    -0.064 C 
ATOM     23  N   UNL     1     -45.137 -37.200 -21.831  0.00  0.00    +0.379 N 
ATOM     24  C   UNL     1     -46.534 -37.512 -21.495  0.00  0.00    -0.096 C 
ATOM     25  H   UNL     1     -44.982 -37.457 -22.905  0.00  0.00    -0.082 HD
ATOM     26  C   UNL     1     -44.795 -35.728 -21.655  0.00  0.00    -0.064 C 
ATOM     27  C   UNL     1     -43.311 -35.456 -22.031  0.00  0.00    +0.066 C 
ENDBRANCH  19  20
ENDBRANCH  18  19
ENDBRANCH  14  15
ENDBRANCH  12  13
TORSDOF 6
ENDMDL
