MODEL 1
REMARK VINA RESULT:      -8.4      0.000      0.000
REMARK  Name = C:\Users\Docking\Desktop\test protocol\1iep_ligandH.pdb
REMARK  8 active torsions:
REMARK  status: ('A' for Active; 'I' for Inactive)
REMARK    1  A    between atoms: _5  and  _11
REMARK    2  A    between atoms: _19  and  _21
REMARK    3  A    between atoms: _22  and  _66
REMARK    4  A    between atoms: _27  and  _30
REMARK    5  A    between atoms: _32  and  _33
REMARK    6  A    between atoms: _38  and  _43
REMARK    7  A    between atoms: _43  and  _46
REMARK    8  A    between atoms: _53  and  _55
REMARK                            x       y       z     vdW  Elec       q    Type
REMARK                         _______ _______ _______ _____ _____    ______ ____
ROOT
ATOM     10  C   UNL     1      12.729  21.380  14.368  0.00  0.00    +0.038 A 
ATOM     11  C   UNL     1      13.846  22.241  14.515  0.00  0.00    +0.047 A 
ATOM     12  C   UNL     1      15.136  21.906  13.933  0.00  0.00    +0.035 A 
ATOM     32  C   UNL     1      15.252  20.686  13.205  0.00  0.00    +0.024 A 
ATOM     33  C   UNL     1      14.127  19.799  13.046  0.00  0.00    +0.007 A 
ATOM     34  C   UNL     1      12.852  20.123  13.620  0.00  0.00    -0.029 A 
ATOM     35  C   UNL     1      11.682  19.131  13.424  0.00  0.00    +0.045 C 
ENDROOT
BRANCH  10   9
ATOM      4  C   UNL     1       9.723  21.640  18.101  0.00  0.00    +0.077 A 
ATOM      5  C   UNL     1      10.641  20.953  18.963  0.00  0.00    +0.048 A 
ATOM      6  C   UNL     1      11.873  20.543  18.405  0.00  0.00    +0.116 A 
ATOM      7  N   UNL     1      12.155  20.807  17.083  0.00  0.00    -0.223 NA
ATOM      8  C   UNL     1      11.247  21.470  16.278  0.00  0.00    +0.220 A 
ATOM      9  N   UNL     1      11.513  21.752  14.947  0.00  0.00    -0.283 N 
ATOM     36  H   UNL     1      10.814  22.237  14.385  0.00  0.00    +0.155 HD
ATOM     37  N   UNL     1      10.063  21.870  16.786  0.00  0.00    -0.214 NA
BRANCH   4   3
ATOM      1  C   UNL     1       6.731  23.983  19.028  0.00  0.00    +0.020 A 
ATOM      2  C   UNL     1       8.041  23.555  18.593  0.00  0.00    +0.013 A 
ATOM      3  C   UNL     1       8.383  22.139  18.544  0.00  0.00    +0.019 A 
ATOM     38  C   UNL     1       7.369  21.175  18.945  0.00  0.00    +0.120 A 
ATOM     39  N   UNL     1       6.117  21.617  19.361  0.00  0.00    -0.263 NA
ATOM     40  C   UNL     1       5.777  22.977  19.414  0.00  0.00    +0.111 A 
ENDBRANCH   4   3
ENDBRANCH  10   9
BRANCH  12  13
ATOM     13  N   UNL     1      16.308  22.736  14.057  0.00  0.00    -0.281 N 
ATOM     14  C   UNL     1      16.898  23.527  13.084  0.00  0.00    +0.248 C 
ATOM     30  O   UNL     1      16.629  23.474  11.893  0.00  0.00    -0.270 OA
ATOM     31  H   UNL     1      16.758  22.742  14.973  0.00  0.00    +0.155 HD
BRANCH  14  15
ATOM     15  C   UNL     1      17.949  24.509  13.491  0.00  0.00    +0.037 A 
ATOM     16  C   UNL     1      17.625  25.921  13.712  0.00  0.00    +0.013 A 
ATOM     17  C   UNL     1      18.661  26.851  14.087  0.00  0.00    +0.005 A 
ATOM     18  C   UNL     1      20.031  26.370  14.246  0.00  0.00    -0.033 A 
ATOM     28  C   UNL     1      20.323  24.963  14.027  0.00  0.00    +0.005 A 
ATOM     29  C   UNL     1      19.311  24.049  13.658  0.00  0.00    +0.013 A 
BRANCH  18  19
ATOM     19  C   UNL     1      21.203  27.295  14.624  0.00  0.00    +0.119 C 
BRANCH  19  20
ATOM     20  N   UNL     1      22.210  26.763  15.591  0.00  0.00    -0.302 NA
ATOM     21  C   UNL     1      21.728  26.873  17.040  0.00  0.00    +0.066 C 
ATOM     22  C   UNL     1      22.783  26.291  18.036  0.00  0.00    -0.064 C 
ATOM     23  N   UNL     1      24.113  27.024  17.851  0.00  0.00    +0.379 N 
ATOM     24  C   UNL     1      25.091  26.519  18.826  0.00  0.00    -0.096 C 
ATOM     25  H   UNL     1      23.939  28.102  18.074  0.00  0.00    -0.082 HD
ATOM     26  C   UNL     1      24.598  26.922  16.412  0.00  0.00    -0.064 C 
ATOM     27  C   UNL     1      23.530  27.476  15.428  0.00  0.00    +0.066 C 
ENDBRANCH  19  20
ENDBRANCH  18  19
ENDBRANCH  14  15
ENDBRANCH  12  13
TORSDOF 6
ENDMDL
MODEL 2
REMARK VINA RESULT:      -8.2      6.257     10.616
REMARK  Name = C:\Users\Docking\Desktop\test protocol\1iep_ligandH.pdb
REMARK  8 active torsions:
REMARK  status: ('A' for Active; 'I' for Inactive)
REMARK    1  A    between atoms: _5  and  _11
REMARK    2  A    between atoms: _19  and  _21
REMARK    3  A    between atoms: _22  and  _66
REMARK    4  A    between atoms: _27  and  _30
REMARK    5  A    between atoms: _32  and  _33
REMARK    6  A    between atoms: _38  and  _43
REMARK    7  A    between atoms: _43  and  _46
REMARK    8  A    between atoms: _53  and  _55
REMARK                            x       y       z     vdW  Elec       q    Type
REMARK                         _______ _______ _______ _____ _____    ______ ____
ROOT
ATOM     10  C   UNL     1      17.759  17.734  11.301  0.00  0.00    +0.038 A 
ATOM     11  C   UNL     1      18.216  19.065  11.474  0.00  0.00    +0.047 A 
ATOM     12  C   UNL     1      17.719  19.897  12.559  0.00  0.00    +0.035 A 
ATOM     32  C   UNL     1      16.758  19.339  13.452  0.00  0.00    +0.024 A 
ATOM     33  C   UNL     1      16.282  17.988  13.290  0.00  0.00    +0.007 A 
ATOM     34  C   UNL     1      16.766  17.164  12.220  0.00  0.00    -0.029 A 
ATOM     35  C   UNL     1      16.215  15.725  12.091  0.00  0.00    +0.045 C 
ENDROOT
BRANCH  10   9
ATOM      4  C   UNL     1      21.268  15.223   9.198  0.00  0.00    +0.077 A 
ATOM      5  C   UNL     1      22.169  15.456  10.290  0.00  0.00    +0.048 A 
ATOM      6  C   UNL     1      21.692  16.232  11.371  0.00  0.00    +0.116 A 
ATOM      7  N   UNL     1      20.409  16.734  11.350  0.00  0.00    -0.223 NA
ATOM      8  C   UNL     1      19.566  16.492  10.280  0.00  0.00    +0.220 A 
ATOM      9  N   UNL     1      18.269  16.980  10.242  0.00  0.00    -0.283 N 
ATOM     36  H   UNL     1      17.682  16.787   9.431  0.00  0.00    +0.155 HD
ATOM     37  N   UNL     1      19.998  15.755   9.236  0.00  0.00    -0.214 NA
BRANCH   4   3
ATOM      1  C   UNL     1      22.133  12.243   6.817  0.00  0.00    +0.020 A 
ATOM      2  C   UNL     1      21.790  12.972   8.016  0.00  0.00    +0.013 A 
ATOM      3  C   UNL     1      21.623  14.420   7.986  0.00  0.00    +0.019 A 
ATOM     38  C   UNL     1      21.810  15.105   6.716  0.00  0.00    +0.120 A 
ATOM     39  N   UNL     1      22.142  14.377   5.578  0.00  0.00    -0.263 NA
ATOM     40  C   UNL     1      22.307  12.984   5.595  0.00  0.00    +0.111 A 
ENDBRANCH   4   3
ENDBRANCH  10   9
BRANCH  12  13
ATOM     13  N   UNL     1      18.141  21.258  12.779  0.00  0.00    -0.281 N 
ATOM     14  C   UNL     1      17.416  22.419  12.568  0.00  0.00    +0.248 C 
ATOM     30  O   UNL     1      16.362  22.473  11.952  0.00  0.00    -0.270 OA
ATOM     31  H   UNL     1      19.090  21.380  13.134  0.00  0.00    +0.155 HD
BRANCH  14  15
ATOM     15  C   UNL     1      17.945  23.709  13.107  0.00  0.00    +0.037 A 
ATOM     16  C   UNL     1      17.044  24.803  13.479  0.00  0.00    +0.013 A 
ATOM     17  C   UNL     1      17.582  26.043  13.981  0.00  0.00    +0.005 A 
ATOM     18  C   UNL     1      19.029  26.195  14.113  0.00  0.00    -0.033 A 
ATOM     28  C   UNL     1      19.899  25.091  13.741  0.00  0.00    +0.005 A 
ATOM     29  C   UNL     1      19.375  23.875  13.249  0.00  0.00    +0.013 A 
BRANCH  18  19
ATOM     19  C   UNL     1      19.691  27.490  14.619  0.00  0.00    +0.119 C 
BRANCH  19  20
ATOM     20  N   UNL     1      20.518  27.396  15.859  0.00  0.00    -0.302 NA
ATOM     21  C   UNL     1      21.969  27.013  15.555  0.00  0.00    +0.066 C 
ATOM     22  C   UNL     1      22.825  26.941  16.861  0.00  0.00    -0.064 C 
ATOM     23  N   UNL     1      22.192  25.939  17.828  0.00  0.00    +0.379 N 
ATOM     24  C   UNL     1      23.026  25.826  19.033  0.00  0.00    -0.096 C 
ATOM     25  H   UNL     1      22.185  24.944  17.326  0.00  0.00    -0.082 HD
ATOM     26  C   UNL     1      20.748  26.311  18.134  0.00  0.00    -0.064 C 
ATOM     27  C   UNL     1      19.913  26.409  16.827  0.00  0.00    +0.066 C 
ENDBRANCH  19  20
ENDBRANCH  18  19
ENDBRANCH  14  15
ENDBRANCH  12  13
TORSDOF 6
ENDMDL
MODEL 3
REMARK VINA RESULT:      -8.1      3.059     11.958
REMARK  Name = C:\Users\Docking\Desktop\test protocol\1iep_ligandH.pdb
REMARK  8 active torsions:
REMARK  status: ('A' for Active; 'I' for Inactive)
REMARK    1  A    between atoms: _5  and  _11
REMARK    2  A    between atoms: _19  and  _21
REMARK    3  A    between atoms: _22  and  _66
REMARK    4  A    between atoms: _27  and  _30
REMARK    5  A    between atoms: _32  and  _33
REMARK    6  A    between atoms: _38  and  _43
REMARK    7  A    between atoms: _43  and  _46
REMARK    8  A    between atoms: _53  and  _55
REMARK                            x       y       z     vdW  Elec       q    Type
REMARK                         _______ _______ _______ _____ _____    ______ ____
ROOT
ATOM     10  C   UNL     1      18.070  23.460  14.214  0.00  0.00    +0.038 A 
ATOM     11  C   UNL     1      16.952  23.591  15.077  0.00  0.00    +0.047 A 
ATOM     12  C   UNL     1      15.609  23.263  14.624  0.00  0.00    +0.035 A 
ATOM     32  C   UNL     1      15.442  22.801  13.286  0.00  0.00    +0.024 A 
ATOM     33  C   UNL     1      16.567  22.662  12.395  0.00  0.00    +0.007 A 
ATOM     34  C   UNL     1      17.893  22.987  12.836  0.00  0.00    -0.029 A 
ATOM     35  C   UNL     1      19.062  22.825  11.835  0.00  0.00    +0.045 C 
ENDROOT
BRANCH  10   9
ATOM      4  C   UNL     1      21.515  26.640  15.240  0.00  0.00    +0.077 A 
ATOM      5  C   UNL     1      20.736  27.735  14.739  0.00  0.00    +0.048 A 
ATOM      6  C   UNL     1      19.456  27.437  14.218  0.00  0.00    +0.116 A 
ATOM      7  N   UNL     1      19.001  26.136  14.206  0.00  0.00    -0.223 NA
ATOM      8  C   UNL     1      19.778  25.103  14.696  0.00  0.00    +0.220 A 
ATOM      9  N   UNL     1      19.337  23.789  14.701  0.00  0.00    -0.283 N 
ATOM     36  H   UNL     1      19.944  23.055  15.065  0.00  0.00    +0.155 HD
ATOM     37  N   UNL     1      21.004  25.362  15.197  0.00  0.00    -0.214 NA
BRANCH   4   3
ATOM      1  C   UNL     1      25.296  27.528  15.707  0.00  0.00    +0.020 A 
ATOM      2  C   UNL     1      23.993  27.401  15.096  0.00  0.00    +0.013 A 
ATOM      3  C   UNL     1      22.885  26.796  15.824  0.00  0.00    +0.019 A 
ATOM     38  C   UNL     1      23.131  26.326  17.180  0.00  0.00    +0.120 A 
ATOM     39  N   UNL     1      24.397  26.461  17.741  0.00  0.00    -0.263 NA
ATOM     40  C   UNL     1      25.471  27.040  17.049  0.00  0.00    +0.111 A 
ENDBRANCH   4   3
ENDBRANCH  10   9
BRANCH  12  13
ATOM     13  N   UNL     1      14.435  23.384  15.452  0.00  0.00    -0.281 N 
ATOM     14  C   UNL     1      14.082  22.613  16.547  0.00  0.00    +0.248 C 
ATOM     30  O   UNL     1      14.620  21.559  16.852  0.00  0.00    -0.270 OA
ATOM     31  H   UNL     1      13.786  24.129  15.201  0.00  0.00    +0.155 HD
BRANCH  14  15
ATOM     15  C   UNL     1      12.959  23.070  17.421  0.00  0.00    +0.037 A 
ATOM     16  C   UNL     1      13.211  23.850  18.636  0.00  0.00    +0.013 A 
ATOM     17  C   UNL     1      12.111  24.264  19.470  0.00  0.00    +0.005 A 
ATOM     18  C   UNL     1      10.748  23.901  19.091  0.00  0.00    -0.033 A 
ATOM     28  C   UNL     1      10.526  23.132  17.877  0.00  0.00    +0.005 A 
ATOM     29  C   UNL     1      11.602  22.723  17.058  0.00  0.00    +0.013 A 
BRANCH  18  19
ATOM     19  C   UNL     1       9.516  24.282  19.932  0.00  0.00    +0.119 C 
BRANCH  19  20
ATOM     20  N   UNL     1       9.552  25.596  20.641  0.00  0.00    -0.302 NA
ATOM     21  C   UNL     1       8.604  25.627  21.843  0.00  0.00    +0.066 C 
ATOM     22  C   UNL     1       8.671  27.001  22.586  0.00  0.00    -0.064 C 
ATOM     23  N   UNL     1       8.336  28.125  21.604  0.00  0.00    +0.379 N 
ATOM     24  C   UNL     1       8.342  29.413  22.313  0.00  0.00    -0.096 C 
ATOM     25  H   UNL     1       7.301  27.949  21.230  0.00  0.00    -0.082 HD
ATOM     26  C   UNL     1       9.272  28.100  20.404  0.00  0.00    -0.064 C 
ATOM     27  C   UNL     1       9.220  26.720  19.691  0.00  0.00    +0.066 C 
ENDBRANCH  19  20
ENDBRANCH  18  19
ENDBRANCH  14  15
ENDBRANCH  12  13
TORSDOF 6
ENDMDL
MODEL 4
REMARK VINA RESULT:      -8.1      2.062     12.564
REMARK  Name = C:\Users\Docking\Desktop\test protocol\1iep_ligandH.pdb
REMARK  8 active torsions:
REMARK  status: ('A' for Active; 'I' for Inactive)
REMARK    1  A    between atoms: _5  and  _11
REMARK    2  A    between atoms: _19  and  _21
REMARK    3  A    between atoms: _22  and  _66
REMARK    4  A    between atoms: _27  and  _30
REMARK    5  A    between atoms: _32  and  _33
REMARK    6  A    between atoms: _38  and  _43
REMARK    7  A    between atoms: _43  and  _46
REMARK    8  A    between atoms: _53  and  _55
REMARK                            x       y       z     vdW  Elec       q    Type
REMARK                         _______ _______ _______ _____ _____    ______ ____
ROOT
ATOM     10  C   UNL     1      16.158  22.508  14.170  0.00  0.00    +0.038 A 
ATOM     11  C   UNL     1      14.945  22.661  14.888  0.00  0.00    +0.047 A 
ATOM     12  C   UNL     1      13.674  22.242  14.317  0.00  0.00    +0.035 A 
ATOM     32  C   UNL     1      13.676  21.668  13.012  0.00  0.00    +0.024 A 
ATOM     33  C   UNL     1      14.900  21.506  12.268  0.00  0.00    +0.007 A 
ATOM     34  C   UNL     1      16.156  21.920  12.825  0.00  0.00    -0.029 A 
ATOM     35  C   UNL     1      17.436  21.728  11.979  0.00  0.00    +0.045 C 
ENDROOT
BRANCH  10   9
ATOM      4  C   UNL     1      19.488  25.840  15.087  0.00  0.00    +0.077 A 
ATOM      5  C   UNL     1      18.811  26.821  14.289  0.00  0.00    +0.048 A 
ATOM      6  C   UNL     1      17.613  26.426  13.653  0.00  0.00    +0.116 A 
ATOM      7  N   UNL     1      17.136  25.143  13.811  0.00  0.00    -0.223 NA
ATOM      8  C   UNL     1      17.814  24.220  14.587  0.00  0.00    +0.220 A 
ATOM      9  N   UNL     1      17.349  22.927  14.766  0.00  0.00    -0.283 N 
ATOM     36  H   UNL     1      17.883  22.274  15.340  0.00  0.00    +0.155 HD
ATOM     37  N   UNL     1      18.962  24.573  15.203  0.00  0.00    -0.214 NA
BRANCH   4   3
ATOM      1  C   UNL     1      23.241  26.572  15.910  0.00  0.00    +0.020 A 
ATOM      2  C   UNL     1      22.039  26.318  15.151  0.00  0.00    +0.013 A 
ATOM      3  C   UNL     1      20.763  26.107  15.824  0.00  0.00    +0.019 A 
ATOM     38  C   UNL     1      20.739  26.162  17.278  0.00  0.00    +0.120 A 
ATOM     39  N   UNL     1      21.914  26.408  17.983  0.00  0.00    -0.263 NA
ATOM     40  C   UNL     1      23.147  26.610  17.345  0.00  0.00    +0.111 A 
ENDBRANCH   4   3
ENDBRANCH  10   9
BRANCH  12  13
ATOM     13  N   UNL     1      12.409  22.380  14.996  0.00  0.00    -0.281 N 
ATOM     14  C   UNL     1      11.904  21.599  16.023  0.00  0.00    +0.248 C 
ATOM     30  O   UNL     1      12.375  20.526  16.371  0.00  0.00    -0.270 OA
ATOM     31  H   UNL     1      11.814  23.146  14.681  0.00  0.00    +0.155 HD
BRANCH  14  15
ATOM     15  C   UNL     1      10.693  22.071  16.760  0.00  0.00    +0.037 A 
ATOM     16  C   UNL     1       9.355  21.585  16.413  0.00  0.00    +0.013 A 
ATOM     17  C   UNL     1       8.202  22.069  17.129  0.00  0.00    +0.005 A 
ATOM     18  C   UNL     1       8.382  23.045  18.201  0.00  0.00    -0.033 A 
ATOM     28  C   UNL     1       9.721  23.507  18.528  0.00  0.00    +0.005 A 
ATOM     29  C   UNL     1      10.854  23.035  17.828  0.00  0.00    +0.013 A 
BRANCH  18  19
ATOM     19  C   UNL     1       7.206  23.633  19.004  0.00  0.00    +0.119 C 
BRANCH  19  20
ATOM     20  N   UNL     1       6.160  22.680  19.480  0.00  0.00    -0.302 NA
ATOM     21  C   UNL     1       4.887  23.402  19.930  0.00  0.00    +0.066 C 
ATOM     22  C   UNL     1       3.794  22.389  20.404  0.00  0.00    -0.064 C 
ATOM     23  N   UNL     1       4.358  21.529  21.536  0.00  0.00    +0.379 N 
ATOM     24  C   UNL     1       3.314  20.614  22.023  0.00  0.00    -0.096 C 
ATOM     25  H   UNL     1       4.629  22.210  22.376  0.00  0.00    -0.082 HD
ATOM     26  C   UNL     1       5.625  20.809  21.099  0.00  0.00    -0.064 C 
ATOM     27  C   UNL     1       6.693  21.823  20.602  0.00  0.00    +0.066 C 
ENDBRANCH  19  20
ENDBRANCH  18  19
ENDBRANCH  14  15
ENDBRANCH  12  13
TORSDOF 6
ENDMDL
MODEL 5
REMARK VINA RESULT:      -8.1      2.383     11.979
REMARK  Name = C:\Users\Docking\Desktop\test protocol\1iep_ligandH.pdb
REMARK  8 active torsions:
REMARK  status: ('A' for Active; 'I' for Inactive)
REMARK    1  A    between atoms: _5  and  _11
REMARK    2  A    between atoms: _19  and  _21
REMARK    3  A    between atoms: _22  and  _66
REMARK    4  A    between atoms: _27  and  _30
REMARK    5  A    between atoms: _32  and  _33
REMARK    6  A    between atoms: _38  and  _43
REMARK    7  A    between atoms: _43  and  _46
REMARK    8  A    between atoms: _53  and  _55
REMARK                            x       y       z     vdW  Elec       q    Type
REMARK                         _______ _______ _______ _____ _____    ______ ____
ROOT
ATOM     10  C   UNL     1      16.212  22.490  14.160  0.00  0.00    +0.038 A 
ATOM     11  C   UNL     1      15.000  22.640  14.882  0.00  0.00    +0.047 A 
ATOM     12  C   UNL     1      13.730  22.214  14.316  0.00  0.00    +0.035 A 
ATOM     32  C   UNL     1      13.731  21.636  13.013  0.00  0.00    +0.024 A 
ATOM     33  C   UNL     1      14.953  21.476  12.265  0.00  0.00    +0.007 A 
ATOM     34  C   UNL     1      16.209  21.897  12.817  0.00  0.00    -0.029 A 
ATOM     35  C   UNL     1      17.488  21.708  11.968  0.00  0.00    +0.045 C 
ENDROOT
BRANCH  10   9
ATOM      4  C   UNL     1      19.517  25.847  15.078  0.00  0.00    +0.077 A 
ATOM      5  C   UNL     1      18.826  26.827  14.290  0.00  0.00    +0.048 A 
ATOM      6  C   UNL     1      17.627  26.425  13.660  0.00  0.00    +0.116 A 
ATOM      7  N   UNL     1      17.164  25.136  13.813  0.00  0.00    -0.223 NA
ATOM      8  C   UNL     1      17.855  24.215  14.578  0.00  0.00    +0.220 A 
ATOM      9  N   UNL     1      17.403  22.916  14.752  0.00  0.00    -0.283 N 
ATOM     36  H   UNL     1      17.947  22.265  15.318  0.00  0.00    +0.155 HD
ATOM     37  N   UNL     1      19.003  24.575  15.189  0.00  0.00    -0.214 NA
BRANCH   4   3
ATOM      1  C   UNL     1      23.262  26.643  15.880  0.00  0.00    +0.020 A 
ATOM      2  C   UNL     1      22.056  26.384  15.128  0.00  0.00    +0.013 A 
ATOM      3  C   UNL     1      20.795  26.121  15.809  0.00  0.00    +0.019 A 
ATOM     38  C   UNL     1      20.787  26.129  17.264  0.00  0.00    +0.120 A 
ATOM     39  N   UNL     1      21.964  26.381  17.962  0.00  0.00    -0.263 NA
ATOM     40  C   UNL     1      23.184  26.633  17.317  0.00  0.00    +0.111 A 
ENDBRANCH   4   3
ENDBRANCH  10   9
BRANCH  12  13
ATOM     13  N   UNL     1      12.467  22.349  14.998  0.00  0.00    -0.281 N 
ATOM     14  C   UNL     1      12.094  21.804  16.216  0.00  0.00    +0.248 C 
ATOM     30  O   UNL     1      12.722  20.938  16.807  0.00  0.00    -0.270 OA
ATOM     31  H   UNL     1      11.761  22.914  14.525  0.00  0.00    +0.155 HD
BRANCH  14  15
ATOM     15  C   UNL     1      10.835  22.281  16.865  0.00  0.00    +0.037 A 
ATOM     16  C   UNL     1       9.537  21.690  16.531  0.00  0.00    +0.013 A 
ATOM     17  C   UNL     1       8.336  22.180  17.159  0.00  0.00    +0.005 A 
ATOM     18  C   UNL     1       8.428  23.267  18.130  0.00  0.00    -0.033 A 
ATOM     28  C   UNL     1       9.729  23.832  18.447  0.00  0.00    +0.005 A 
ATOM     29  C   UNL     1      10.909  23.355  17.833  0.00  0.00    +0.013 A 
BRANCH  18  19
ATOM     19  C   UNL     1       7.196  23.867  18.834  0.00  0.00    +0.119 C 
BRANCH  19  20
ATOM     20  N   UNL     1       7.318  24.164  20.292  0.00  0.00    -0.302 NA
ATOM     21  C   UNL     1       6.307  23.373  21.126  0.00  0.00    +0.066 C 
ATOM     22  C   UNL     1       6.464  23.679  22.651  0.00  0.00    -0.064 C 
ATOM     23  N   UNL     1       6.303  25.182  22.887  0.00  0.00    +0.379 N 
ATOM     24  C   UNL     1       6.392  25.465  24.327  0.00  0.00    -0.096 C 
ATOM     25  H   UNL     1       5.280  25.469  22.548  0.00  0.00    -0.082 HD
ATOM     26  C   UNL     1       7.303  25.976  22.059  0.00  0.00    -0.064 C 
ATOM     27  C   UNL     1       7.159  25.642  20.548  0.00  0.00    +0.066 C 
ENDBRANCH  19  20
ENDBRANCH  18  19
ENDBRANCH  14  15
ENDBRANCH  12  13
TORSDOF 6
ENDMDL
