MODEL 1
REMARK VINA RESULT:      -7.7      0.000      0.000
REMARK  Name = C:\Users\Docking\Desktop\test protocol\1iep_ligandH.pdb
REMARK  8 active torsions:
REMARK  status: ('A' for Active; 'I' for Inactive)
REMARK    1  A    between atoms: _5  and  _11
REMARK    2  A    between atoms: _19  and  _21
REMARK    3  A    between atoms: _22  and  _66
REMARK    4  A    between atoms: _27  and  _30
REMARK    5  A    between atoms: _32  and  _33
REMARK    6  A    between atoms: _38  and  _43
REMARK    7  A    between atoms: _43  and  _46
REMARK    8  A    between atoms: _53  and  _55
REMARK                            x       y       z     vdW  Elec       q    Type
REMARK                         _______ _______ _______ _____ _____    ______ ____
ROOT
ATOM     10  C   UNL     1      30.106  83.579  51.698  0.00  0.00    +0.038 A 
ATOM     11  C   UNL     1      29.796  82.215  51.465  0.00  0.00    +0.047 A 
ATOM     12  C   UNL     1      29.002  81.809  50.317  0.00  0.00    +0.035 A 
ATOM     32  C   UNL     1      28.541  82.819  49.423  0.00  0.00    +0.024 A 
ATOM     33  C   UNL     1      28.845  84.211  49.645  0.00  0.00    +0.007 A 
ATOM     34  C   UNL     1      29.627  84.617  50.777  0.00  0.00    -0.029 A 
ATOM     35  C   UNL     1      29.918  86.124  50.969  0.00  0.00    +0.045 C 
ENDROOT
BRANCH  10   9
ATOM      4  C   UNL     1      34.320  84.141  53.926  0.00  0.00    +0.077 A 
ATOM      5  C   UNL     1      35.055  83.708  52.772  0.00  0.00    +0.048 A 
ATOM      6  C   UNL     1      34.311  83.342  51.628  0.00  0.00    +0.116 A 
ATOM      7  N   UNL     1      32.934  83.410  51.648  0.00  0.00    -0.223 NA
ATOM      8  C   UNL     1      32.257  83.830  52.777  0.00  0.00    +0.220 A 
ATOM      9  N   UNL     1      30.873  83.913  52.816  0.00  0.00    -0.283 N 
ATOM     36  H   UNL     1      30.411  84.221  53.671  0.00  0.00    +0.155 HD
ATOM     37  N   UNL     1      32.945  84.183  53.883  0.00  0.00    -0.214 NA
BRANCH   4   3
ATOM      1  C   UNL     1      35.520  84.230  57.648  0.00  0.00    +0.020 A 
ATOM      2  C   UNL     1      34.879  83.778  56.434  0.00  0.00    +0.013 A 
ATOM      3  C   UNL     1      34.965  84.563  55.210  0.00  0.00    +0.019 A 
ATOM     38  C   UNL     1      35.713  85.811  55.246  0.00  0.00    +0.120 A 
ATOM     39  N   UNL     1      36.319  86.221  56.429  0.00  0.00    -0.263 NA
ATOM     40  C   UNL     1      36.242  85.475  57.615  0.00  0.00    +0.111 A 
ENDBRANCH   4   3
ENDBRANCH  10   9
BRANCH  12  13
ATOM     13  N   UNL     1      28.648  80.440  50.034  0.00  0.00    -0.281 N 
ATOM     14  C   UNL     1      27.584  79.712  50.542  0.00  0.00    +0.248 C 
ATOM     30  O   UNL     1      26.894  80.065  51.486  0.00  0.00    -0.270 OA
ATOM     31  H   UNL     1      29.257  79.947  49.380  0.00  0.00    +0.155 HD
BRANCH  14  15
ATOM     15  C   UNL     1      27.248  78.396  49.920  0.00  0.00    +0.037 A 
ATOM     16  C   UNL     1      26.922  77.228  50.742  0.00  0.00    +0.013 A 
ATOM     17  C   UNL     1      26.618  75.965  50.117  0.00  0.00    +0.005 A 
ATOM     18  C   UNL     1      26.637  75.864  48.660  0.00  0.00    -0.033 A 
ATOM     28  C   UNL     1      26.958  77.040  47.868  0.00  0.00    +0.005 A 
ATOM     29  C   UNL     1      27.258  78.279  48.477  0.00  0.00    +0.013 A 
BRANCH  18  19
ATOM     19  C   UNL     1      26.345  74.552  47.908  0.00  0.00    +0.119 C 
BRANCH  19  20
ATOM     20  N   UNL     1      25.514  74.642  46.671  0.00  0.00    -0.302 NA
ATOM     21  C   UNL     1      24.069  75.044  46.978  0.00  0.00    +0.066 C 
ATOM     22  C   UNL     1      23.219  75.156  45.670  0.00  0.00    -0.064 C 
ATOM     23  N   UNL     1      23.264  73.823  44.920  0.00  0.00    +0.379 N 
ATOM     24  C   UNL     1      22.419  73.907  43.720  0.00  0.00    -0.096 C 
ATOM     25  H   UNL     1      22.827  73.045  45.588  0.00  0.00    -0.082 HD
ATOM     26  C   UNL     1      24.698  73.415  44.614  0.00  0.00    -0.064 C 
ATOM     27  C   UNL     1      25.541  73.336  45.917  0.00  0.00    +0.066 C 
ENDBRANCH  19  20
ENDBRANCH  18  19
ENDBRANCH  14  15
ENDBRANCH  12  13
TORSDOF 6
ENDMDL
MODEL 2
REMARK VINA RESULT:      -7.5     15.015     18.811
REMARK  Name = C:\Users\Docking\Desktop\test protocol\1iep_ligandH.pdb
REMARK  8 active torsions:
REMARK  status: ('A' for Active; 'I' for Inactive)
REMARK    1  A    between atoms: _5  and  _11
REMARK    2  A    between atoms: _19  and  _21
REMARK    3  A    between atoms: _22  and  _66
REMARK    4  A    between atoms: _27  and  _30
REMARK    5  A    between atoms: _32  and  _33
REMARK    6  A    between atoms: _38  and  _43
REMARK    7  A    between atoms: _43  and  _46
REMARK    8  A    between atoms: _53  and  _55
REMARK                            x       y       z     vdW  Elec       q    Type
REMARK                         _______ _______ _______ _____ _____    ______ ____
ROOT
ATOM     10  C   UNL     1      33.606  66.894  47.631  0.00  0.00    +0.038 A 
ATOM     11  C   UNL     1      34.827  67.444  47.164  0.00  0.00    +0.047 A 
ATOM     12  C   UNL     1      35.308  67.174  45.818  0.00  0.00    +0.035 A 
ATOM     32  C   UNL     1      34.518  66.341  44.973  0.00  0.00    +0.024 A 
ATOM     33  C   UNL     1      33.275  65.773  45.431  0.00  0.00    +0.007 A 
ATOM     34  C   UNL     1      32.797  66.034  46.759  0.00  0.00    -0.029 A 
ATOM     35  C   UNL     1      31.460  65.394  47.199  0.00  0.00    +0.045 C 
ENDROOT
BRANCH  10   9
ATOM      4  C   UNL     1      33.660  66.112  52.366  0.00  0.00    +0.077 A 
ATOM      5  C   UNL     1      34.569  65.010  52.233  0.00  0.00    +0.048 A 
ATOM      6  C   UNL     1      34.994  64.673  50.929  0.00  0.00    +0.116 A 
ATOM      7  N   UNL     1      34.536  65.390  49.845  0.00  0.00    -0.223 NA
ATOM      8  C   UNL     1      33.659  66.446  50.007  0.00  0.00    +0.220 A 
ATOM      9  N   UNL     1      33.192  67.187  48.932  0.00  0.00    -0.283 N 
ATOM     36  H   UNL     1      32.539  67.953  49.093  0.00  0.00    +0.155 HD
ATOM     37  N   UNL     1      33.237  66.787  51.243  0.00  0.00    -0.214 NA
BRANCH   4   3
ATOM      1  C   UNL     1      31.576  68.009  55.079  0.00  0.00    +0.020 A 
ATOM      2  C   UNL     1      32.058  67.580  53.786  0.00  0.00    +0.013 A 
ATOM      3  C   UNL     1      33.124  66.592  53.679  0.00  0.00    +0.019 A 
ATOM     38  C   UNL     1      33.685  66.053  54.909  0.00  0.00    +0.120 A 
ATOM     39  N   UNL     1      33.201  66.486  56.140  0.00  0.00    -0.263 NA
ATOM     40  C   UNL     1      32.177  67.437  56.255  0.00  0.00    +0.111 A 
ENDBRANCH   4   3
ENDBRANCH  10   9
BRANCH  12  13
ATOM     13  N   UNL     1      36.544  67.697  45.292  0.00  0.00    -0.281 N 
ATOM     14  C   UNL     1      37.835  67.282  45.576  0.00  0.00    +0.248 C 
ATOM     30  O   UNL     1      38.133  66.533  46.494  0.00  0.00    -0.270 OA
ATOM     31  H   UNL     1      36.457  68.468  44.629  0.00  0.00    +0.155 HD
BRANCH  14  15
ATOM     15  C   UNL     1      38.958  67.782  44.726  0.00  0.00    +0.037 A 
ATOM     16  C   UNL     1      39.318  69.202  44.700  0.00  0.00    +0.013 A 
ATOM     17  C   UNL     1      40.395  69.660  43.859  0.00  0.00    +0.005 A 
ATOM     18  C   UNL     1      41.121  68.695  43.036  0.00  0.00    -0.033 A 
ATOM     28  C   UNL     1      40.746  67.292  43.085  0.00  0.00    +0.005 A 
ATOM     29  C   UNL     1      39.691  66.839  43.908  0.00  0.00    +0.013 A 
BRANCH  18  19
ATOM     19  C   UNL     1      42.270  69.098  42.092  0.00  0.00    +0.119 C 
BRANCH  19  20
ATOM     20  N   UNL     1      43.610  68.491  42.349  0.00  0.00    -0.302 NA
ATOM     21  C   UNL     1      44.103  68.766  43.772  0.00  0.00    +0.066 C 
ATOM     22  C   UNL     1      45.496  68.105  44.030  0.00  0.00    -0.064 C 
ATOM     23  N   UNL     1      46.501  68.621  42.999  0.00  0.00    +0.379 N 
ATOM     24  C   UNL     1      47.825  68.046  43.275  0.00  0.00    -0.096 C 
ATOM     25  H   UNL     1      46.579  69.726  43.127  0.00  0.00    -0.082 HD
ATOM     26  C   UNL     1      46.017  68.354  41.581  0.00  0.00    -0.064 C 
ATOM     27  C   UNL     1      44.619  68.990  41.344  0.00  0.00    +0.066 C 
ENDBRANCH  19  20
ENDBRANCH  18  19
ENDBRANCH  14  15
ENDBRANCH  12  13
TORSDOF 6
ENDMDL
MODEL 3
REMARK VINA RESULT:      -7.4     12.103     16.619
REMARK  Name = C:\Users\Docking\Desktop\test protocol\1iep_ligandH.pdb
REMARK  8 active torsions:
REMARK  status: ('A' for Active; 'I' for Inactive)
REMARK    1  A    between atoms: _5  and  _11
REMARK    2  A    between atoms: _19  and  _21
REMARK    3  A    between atoms: _22  and  _66
REMARK    4  A    between atoms: _27  and  _30
REMARK    5  A    between atoms: _32  and  _33
REMARK    6  A    between atoms: _38  and  _43
REMARK    7  A    between atoms: _43  and  _46
REMARK    8  A    between atoms: _53  and  _55
REMARK                            x       y       z     vdW  Elec       q    Type
REMARK                         _______ _______ _______ _____ _____    ______ ____
ROOT
ATOM     10  C   UNL     1      33.986  66.670  47.011  0.00  0.00    +0.038 A 
ATOM     11  C   UNL     1      33.479  67.091  48.267  0.00  0.00    +0.047 A 
ATOM     12  C   UNL     1      32.378  66.387  48.908  0.00  0.00    +0.035 A 
ATOM     32  C   UNL     1      31.820  65.257  48.243  0.00  0.00    +0.024 A 
ATOM     33  C   UNL     1      32.323  64.816  46.966  0.00  0.00    +0.007 A 
ATOM     34  C   UNL     1      33.406  65.507  46.327  0.00  0.00    -0.029 A 
ATOM     35  C   UNL     1      33.901  64.994  44.955  0.00  0.00    +0.045 C 
ENDROOT
BRANCH  10   9
ATOM      4  C   UNL     1      38.618  67.165  45.854  0.00  0.00    +0.077 A 
ATOM      5  C   UNL     1      38.964  65.912  46.459  0.00  0.00    +0.048 A 
ATOM      6  C   UNL     1      37.922  65.173  47.064  0.00  0.00    +0.116 A 
ATOM      7  N   UNL     1      36.634  65.662  47.058  0.00  0.00    -0.223 NA
ATOM      8  C   UNL     1      36.334  66.875  46.467  0.00  0.00    +0.220 A 
ATOM      9  N   UNL     1      35.044  67.382  46.441  0.00  0.00    -0.283 N 
ATOM     36  H   UNL     1      34.865  68.284  46.002  0.00  0.00    +0.155 HD
ATOM     37  N   UNL     1      37.311  67.600  45.884  0.00  0.00    -0.214 NA
BRANCH   4   3
ATOM      1  C   UNL     1      40.358  70.299  44.288  0.00  0.00    +0.020 A 
ATOM      2  C   UNL     1      39.370  69.480  44.951  0.00  0.00    +0.013 A 
ATOM      3  C   UNL     1      39.607  68.059  45.172  0.00  0.00    +0.019 A 
ATOM     38  C   UNL     1      40.864  67.494  44.707  0.00  0.00    +0.120 A 
ATOM     39  N   UNL     1      41.797  68.306  44.070  0.00  0.00    -0.263 NA
ATOM     40  C   UNL     1      41.579  69.675  43.850  0.00  0.00    +0.111 A 
ENDBRANCH   4   3
ENDBRANCH  10   9
BRANCH  12  13
ATOM     13  N   UNL     1      31.816  66.773  50.178  0.00  0.00    -0.281 N 
ATOM     14  C   UNL     1      32.270  66.446  51.446  0.00  0.00    +0.248 C 
ATOM     30  O   UNL     1      33.110  65.589  51.679  0.00  0.00    -0.270 OA
ATOM     31  H   UNL     1      30.982  67.359  50.139  0.00  0.00    +0.155 HD
BRANCH  14  15
ATOM     15  C   UNL     1      31.698  67.163  52.625  0.00  0.00    +0.037 A 
ATOM     16  C   UNL     1      32.408  67.207  53.906  0.00  0.00    +0.013 A 
ATOM     17  C   UNL     1      31.826  67.891  55.033  0.00  0.00    +0.005 A 
ATOM     18  C   UNL     1      30.525  68.538  54.884  0.00  0.00    -0.033 A 
ATOM     28  C   UNL     1      29.844  68.484  53.601  0.00  0.00    +0.005 A 
ATOM     29  C   UNL     1      30.412  67.813  52.494  0.00  0.00    +0.013 A 
BRANCH  18  19
ATOM     19  C   UNL     1      29.819  69.273  56.039  0.00  0.00    +0.119 C 
BRANCH  19  20
ATOM     20  N   UNL     1      29.925  70.762  56.068  0.00  0.00    -0.302 NA
ATOM     21  C   UNL     1      30.744  71.256  57.264  0.00  0.00    +0.066 C 
ATOM     22  C   UNL     1      30.864  72.815  57.266  0.00  0.00    -0.064 C 
ATOM     23  N   UNL     1      29.464  73.431  57.278  0.00  0.00    +0.379 N 
ATOM     24  C   UNL     1      29.573  74.896  57.339  0.00  0.00    -0.096 C 
ATOM     25  H   UNL     1      28.952  73.091  58.208  0.00  0.00    -0.082 HD
ATOM     26  C   UNL     1      28.641  72.943  56.093  0.00  0.00    -0.064 C 
ATOM     27  C   UNL     1      28.553  71.391  56.084  0.00  0.00    +0.066 C 
ENDBRANCH  19  20
ENDBRANCH  18  19
ENDBRANCH  14  15
ENDBRANCH  12  13
TORSDOF 6
ENDMDL
MODEL 4
REMARK VINA RESULT:      -6.8     13.453     17.724
REMARK  Name = C:\Users\Docking\Desktop\test protocol\1iep_ligandH.pdb
REMARK  8 active torsions:
REMARK  status: ('A' for Active; 'I' for Inactive)
REMARK    1  A    between atoms: _5  and  _11
REMARK    2  A    between atoms: _19  and  _21
REMARK    3  A    between atoms: _22  and  _66
REMARK    4  A    between atoms: _27  and  _30
REMARK    5  A    between atoms: _32  and  _33
REMARK    6  A    between atoms: _38  and  _43
REMARK    7  A    between atoms: _43  and  _46
REMARK    8  A    between atoms: _53  and  _55
REMARK                            x       y       z     vdW  Elec       q    Type
REMARK                         _______ _______ _______ _____ _____    ______ ____
ROOT
ATOM     10  C   UNL     1      35.936  65.387  45.788  0.00  0.00    +0.038 A 
ATOM     11  C   UNL     1      35.419  66.035  46.939  0.00  0.00    +0.047 A 
ATOM     12  C   UNL     1      34.393  65.408  47.758  0.00  0.00    +0.035 A 
ATOM     32  C   UNL     1      33.918  64.119  47.377  0.00  0.00    +0.024 A 
ATOM     33  C   UNL     1      34.432  63.447  46.210  0.00  0.00    +0.007 A 
ATOM     34  C   UNL     1      35.442  64.061  45.396  0.00  0.00    -0.029 A 
ATOM     35  C   UNL     1      35.951  63.297  44.152  0.00  0.00    +0.045 C 
ENDROOT
BRANCH  10   9
ATOM      4  C   UNL     1      40.497  66.639  44.971  0.00  0.00    +0.077 A 
ATOM      5  C   UNL     1      40.955  65.968  46.153  0.00  0.00    +0.048 A 
ATOM      6  C   UNL     1      39.984  65.319  46.948  0.00  0.00    +0.116 A 
ATOM      7  N   UNL     1      38.656  65.345  46.578  0.00  0.00    -0.223 NA
ATOM      8  C   UNL     1      38.248  66.003  45.432  0.00  0.00    +0.220 A 
ATOM      9  N   UNL     1      36.920  66.035  45.037  0.00  0.00    -0.283 N 
ATOM     36  H   UNL     1      36.658  66.537  44.189  0.00  0.00    +0.155 HD
ATOM     37  N   UNL     1      39.156  66.631  44.657  0.00  0.00    -0.214 NA
BRANCH   4   3
ATOM      1  C   UNL     1      41.824  68.878  42.051  0.00  0.00    +0.020 A 
ATOM      2  C   UNL     1      40.907  68.195  42.934  0.00  0.00    +0.013 A 
ATOM      3  C   UNL     1      41.402  67.367  44.026  0.00  0.00    +0.019 A 
ATOM     38  C   UNL     1      42.842  67.250  44.199  0.00  0.00    +0.120 A 
ATOM     39  N   UNL     1      43.701  67.918  43.332  0.00  0.00    -0.263 NA
ATOM     40  C   UNL     1      43.237  68.716  42.277  0.00  0.00    +0.111 A 
ENDBRANCH   4   3
ENDBRANCH  10   9
BRANCH  12  13
ATOM     13  N   UNL     1      33.825  66.021  48.933  0.00  0.00    -0.281 N 
ATOM     14  C   UNL     1      32.563  66.574  49.080  0.00  0.00    +0.248 C 
ATOM     30  O   UNL     1      31.803  66.817  48.154  0.00  0.00    -0.270 OA
ATOM     31  H   UNL     1      34.426  66.052  49.757  0.00  0.00    +0.155 HD
BRANCH  14  15
ATOM     15  C   UNL     1      32.081  66.919  50.452  0.00  0.00    +0.037 A 
ATOM     16  C   UNL     1      32.826  66.509  51.644  0.00  0.00    +0.013 A 
ATOM     17  C   UNL     1      32.330  66.841  52.957  0.00  0.00    +0.005 A 
ATOM     18  C   UNL     1      31.081  67.587  53.082  0.00  0.00    -0.033 A 
ATOM     28  C   UNL     1      30.364  67.986  51.882  0.00  0.00    +0.005 A 
ATOM     29  C   UNL     1      30.847  67.662  50.594  0.00  0.00    +0.013 A 
BRANCH  18  19
ATOM     19  C   UNL     1      30.466  67.966  54.443  0.00  0.00    +0.119 C 
BRANCH  19  20
ATOM     20  N   UNL     1      30.755  69.334  54.967  0.00  0.00    -0.302 NA
ATOM     21  C   UNL     1      31.184  69.307  56.437  0.00  0.00    +0.066 C 
ATOM     22  C   UNL     1      31.505  70.744  56.962  0.00  0.00    -0.064 C 
ATOM     23  N   UNL     1      30.278  71.639  56.772  0.00  0.00    +0.379 N 
ATOM     24  C   UNL     1      30.557  72.975  57.319  0.00  0.00    -0.096 C 
ATOM     25  H   UNL     1      29.444  71.198  57.365  0.00  0.00    -0.082 HD
ATOM     26  C   UNL     1      29.843  71.669  55.314  0.00  0.00    -0.064 C 
ATOM     27  C   UNL     1      29.556  70.233  54.793  0.00  0.00    +0.066 C 
ENDBRANCH  19  20
ENDBRANCH  18  19
ENDBRANCH  14  15
ENDBRANCH  12  13
TORSDOF 6
ENDMDL
MODEL 5
REMARK VINA RESULT:      -6.8     11.517     15.585
REMARK  Name = C:\Users\Docking\Desktop\test protocol\1iep_ligandH.pdb
REMARK  8 active torsions:
REMARK  status: ('A' for Active; 'I' for Inactive)
REMARK    1  A    between atoms: _5  and  _11
REMARK    2  A    between atoms: _19  and  _21
REMARK    3  A    between atoms: _22  and  _66
REMARK    4  A    between atoms: _27  and  _30
REMARK    5  A    between atoms: _32  and  _33
REMARK    6  A    between atoms: _38  and  _43
REMARK    7  A    between atoms: _43  and  _46
REMARK    8  A    between atoms: _53  and  _55
REMARK                            x       y       z     vdW  Elec       q    Type
REMARK                         _______ _______ _______ _____ _____    ______ ____
ROOT
ATOM     10  C   UNL     1      42.536  75.454  58.860  0.00  0.00    +0.038 A 
ATOM     11  C   UNL     1      41.184  75.453  59.290  0.00  0.00    +0.047 A 
ATOM     12  C   UNL     1      40.438  74.211  59.423  0.00  0.00    +0.035 A 
ATOM     32  C   UNL     1      41.101  72.988  59.112  0.00  0.00    +0.024 A 
ATOM     33  C   UNL     1      42.474  72.971  58.672  0.00  0.00    +0.007 A 
ATOM     34  C   UNL     1      43.214  74.193  58.537  0.00  0.00    -0.029 A 
ATOM     35  C   UNL     1      44.682  74.115  58.055  0.00  0.00    +0.045 C 
ENDROOT
BRANCH  10   9
ATOM      4  C   UNL     1      45.072  79.075  60.729  0.00  0.00    +0.077 A 
ATOM      5  C   UNL     1      45.039  78.498  62.043  0.00  0.00    +0.048 A 
ATOM      6  C   UNL     1      44.353  77.272  62.196  0.00  0.00    +0.116 A 
ATOM      7  N   UNL     1      43.749  76.677  61.110  0.00  0.00    -0.223 NA
ATOM      8  C   UNL     1      43.798  77.261  59.857  0.00  0.00    +0.220 A 
ATOM      9  N   UNL     1      43.204  76.675  58.749  0.00  0.00    -0.283 N 
ATOM     36  H   UNL     1      43.257  77.142  57.844  0.00  0.00    +0.155 HD
ATOM     37  N   UNL     1      44.446  78.432  59.685  0.00  0.00    -0.214 NA
BRANCH   4   3
ATOM      1  C   UNL     1      47.556  81.715  59.260  0.00  0.00    +0.020 A 
ATOM      2  C   UNL     1      46.929  80.444  59.540  0.00  0.00    +0.013 A 
ATOM      3  C   UNL     1      45.760  80.365  60.407  0.00  0.00    +0.019 A 
ATOM     38  C   UNL     1      45.246  81.600  60.979  0.00  0.00    +0.120 A 
ATOM     39  N   UNL     1      45.872  82.810  60.693  0.00  0.00    -0.263 NA
ATOM     40  C   UNL     1      46.998  82.898  59.861  0.00  0.00    +0.111 A 
ENDBRANCH   4   3
ENDBRANCH  10   9
BRANCH  12  13
ATOM     13  N   UNL     1      39.061  74.149  59.847  0.00  0.00    -0.281 N 
ATOM     14  C   UNL     1      38.570  73.808  61.097  0.00  0.00    +0.248 C 
ATOM     30  O   UNL     1      39.235  73.295  61.985  0.00  0.00    -0.270 OA
ATOM     31  H   UNL     1      38.365  74.384  59.141  0.00  0.00    +0.155 HD
BRANCH  14  15
ATOM     15  C   UNL     1      37.128  74.059  61.399  0.00  0.00    +0.037 A 
ATOM     16  C   UNL     1      36.352  73.132  62.226  0.00  0.00    +0.013 A 
ATOM     17  C   UNL     1      34.958  73.389  62.488  0.00  0.00    +0.005 A 
ATOM     18  C   UNL     1      34.332  74.582  61.923  0.00  0.00    -0.033 A 
ATOM     28  C   UNL     1      35.126  75.488  61.110  0.00  0.00    +0.005 A 
ATOM     29  C   UNL     1      36.493  75.238  60.850  0.00  0.00    +0.013 A 
BRANCH  18  19
ATOM     19  C   UNL     1      32.845  74.925  62.133  0.00  0.00    +0.119 C 
BRANCH  19  20
ATOM     20  N   UNL     1      32.057  75.317  60.927  0.00  0.00    -0.302 NA
ATOM     21  C   UNL     1      31.095  76.472  61.219  0.00  0.00    +0.066 C 
ATOM     22  C   UNL     1      30.294  76.884  59.941  0.00  0.00    -0.064 C 
ATOM     23  N   UNL     1      29.535  75.669  59.405  0.00  0.00    +0.379 N 
ATOM     24  C   UNL     1      28.736  76.067  58.237  0.00  0.00    -0.096 C 
ATOM     25  H   UNL     1      28.829  75.334  60.200  0.00  0.00    -0.082 HD
ATOM     26  C   UNL     1      30.484  74.515  59.113  0.00  0.00    -0.064 C 
ATOM     27  C   UNL     1      31.295  74.133  60.383  0.00  0.00    +0.066 C 
ENDBRANCH  19  20
ENDBRANCH  18  19
ENDBRANCH  14  15
ENDBRANCH  12  13
TORSDOF 6
ENDMDL
