MODEL 1
REMARK VINA RESULT:      -7.1      0.000      0.000
REMARK  Name = C:\Users\Docking\Desktop\test protocol\1iep_ligandH.pdb
REMARK  8 active torsions:
REMARK  status: ('A' for Active; 'I' for Inactive)
REMARK    1  A    between atoms: _5  and  _11
REMARK    2  A    between atoms: _19  and  _21
REMARK    3  A    between atoms: _22  and  _66
REMARK    4  A    between atoms: _27  and  _30
REMARK    5  A    between atoms: _32  and  _33
REMARK    6  A    between atoms: _38  and  _43
REMARK    7  A    between atoms: _43  and  _46
REMARK    8  A    between atoms: _53  and  _55
REMARK                            x       y       z     vdW  Elec       q    Type
REMARK                         _______ _______ _______ _____ _____    ______ ____
ROOT
ATOM     10  C   UNL     1       7.851 -11.986  60.569  0.00  0.00    +0.038 A 
ATOM     11  C   UNL     1       8.847 -12.427  59.661  0.00  0.00    +0.047 A 
ATOM     12  C   UNL     1       9.602 -11.481  58.854  0.00  0.00    +0.035 A 
ATOM     32  C   UNL     1       9.319 -10.091  59.000  0.00  0.00    +0.024 A 
ATOM     33  C   UNL     1       8.309  -9.626  59.918  0.00  0.00    +0.007 A 
ATOM     34  C   UNL     1       7.559 -10.555  60.714  0.00  0.00    -0.029 A 
ATOM     35  C   UNL     1       6.483  -9.999  61.676  0.00  0.00    +0.045 C 
ENDROOT
BRANCH  10   9
ATOM      4  C   UNL     1       7.104 -14.473  64.605  0.00  0.00    +0.077 A 
ATOM      5  C   UNL     1       8.208 -13.842  65.269  0.00  0.00    +0.048 A 
ATOM      6  C   UNL     1       8.947 -12.888  64.534  0.00  0.00    +0.116 A 
ATOM      7  N   UNL     1       8.599 -12.594  63.233  0.00  0.00    -0.223 NA
ATOM      8  C   UNL     1       7.529 -13.223  62.623  0.00  0.00    +0.220 A 
ATOM      9  N   UNL     1       7.156 -12.938  61.318  0.00  0.00    -0.283 N 
ATOM     36  H   UNL     1       6.365 -13.429  60.901  0.00  0.00    +0.155 HD
ATOM     37  N   UNL     1       6.809 -14.139  63.303  0.00  0.00    -0.214 NA
BRANCH   4   3
ATOM      1  C   UNL     1       5.157 -17.783  65.352  0.00  0.00    +0.020 A 
ATOM      2  C   UNL     1       6.016 -16.828  64.689  0.00  0.00    +0.013 A 
ATOM      3  C   UNL     1       6.226 -15.499  65.250  0.00  0.00    +0.019 A 
ATOM     38  C   UNL     1       5.548 -15.166  66.494  0.00  0.00    +0.120 A 
ATOM     39  N   UNL     1       4.726 -16.105  67.110  0.00  0.00    -0.263 NA
ATOM     40  C   UNL     1       4.515 -17.386  66.578  0.00  0.00    +0.111 A 
ENDBRANCH   4   3
ENDBRANCH  10   9
BRANCH  12  13
ATOM     13  N   UNL     1      10.620 -11.870  57.910  0.00  0.00    -0.281 N 
ATOM     14  C   UNL     1      10.455 -12.241  56.585  0.00  0.00    +0.248 C 
ATOM     30  O   UNL     1       9.379 -12.501  56.069  0.00  0.00    -0.270 OA
ATOM     31  H   UNL     1      11.578 -11.872  58.260  0.00  0.00    +0.155 HD
BRANCH  14  15
ATOM     15  C   UNL     1      11.663 -12.353  55.712  0.00  0.00    +0.037 A 
ATOM     16  C   UNL     1      11.909 -13.552  54.905  0.00  0.00    +0.013 A 
ATOM     17  C   UNL     1      13.090 -13.641  54.084  0.00  0.00    +0.005 A 
ATOM     18  C   UNL     1      14.034 -12.526  54.064  0.00  0.00    -0.033 A 
ATOM     28  C   UNL     1      13.763 -11.347  54.870  0.00  0.00    +0.005 A 
ATOM     29  C   UNL     1      12.607 -11.257  55.677  0.00  0.00    +0.013 A 
BRANCH  18  19
ATOM     19  C   UNL     1      15.331 -12.544  53.234  0.00  0.00    +0.119 C 
BRANCH  19  20
ATOM     20  N   UNL     1      15.219 -12.944  51.800  0.00  0.00    -0.302 NA
ATOM     21  C   UNL     1      16.576 -12.924  51.090  0.00  0.00    +0.066 C 
ATOM     22  C   UNL     1      16.444 -13.367  49.596  0.00  0.00    -0.064 C 
ATOM     23  N   UNL     1      15.445 -12.454  48.883  0.00  0.00    +0.379 N 
ATOM     24  C   UNL     1      15.363 -12.832  47.464  0.00  0.00    -0.096 C 
ATOM     25  H   UNL     1      15.843 -11.414  48.933  0.00  0.00    -0.082 HD
ATOM     26  C   UNL     1      14.094 -12.467  49.583  0.00  0.00    -0.064 C 
ATOM     27  C   UNL     1      14.241 -12.053  51.074  0.00  0.00    +0.066 C 
ENDBRANCH  19  20
ENDBRANCH  18  19
ENDBRANCH  14  15
ENDBRANCH  12  13
TORSDOF 6
ENDMDL
MODEL 2
REMARK VINA RESULT:      -7.1      2.316      2.734
REMARK  Name = C:\Users\Docking\Desktop\test protocol\1iep_ligandH.pdb
REMARK  8 active torsions:
REMARK  status: ('A' for Active; 'I' for Inactive)
REMARK    1  A    between atoms: _5  and  _11
REMARK    2  A    between atoms: _19  and  _21
REMARK    3  A    between atoms: _22  and  _66
REMARK    4  A    between atoms: _27  and  _30
REMARK    5  A    between atoms: _32  and  _33
REMARK    6  A    between atoms: _38  and  _43
REMARK    7  A    between atoms: _43  and  _46
REMARK    8  A    between atoms: _53  and  _55
REMARK                            x       y       z     vdW  Elec       q    Type
REMARK                         _______ _______ _______ _____ _____    ______ ____
ROOT
ATOM     10  C   UNL     1       8.623 -12.420  59.520  0.00  0.00    +0.038 A 
ATOM     11  C   UNL     1       9.261 -12.834  58.323  0.00  0.00    +0.047 A 
ATOM     12  C   UNL     1       9.952 -11.879  57.470  0.00  0.00    +0.035 A 
ATOM     32  C   UNL     1       9.975 -10.511  57.869  0.00  0.00    +0.024 A 
ATOM     33  C   UNL     1       9.331 -10.073  59.082  0.00  0.00    +0.007 A 
ATOM     34  C   UNL     1       8.646 -11.010  59.926  0.00  0.00    -0.029 A 
ATOM     35  C   UNL     1       7.967 -10.483  61.211  0.00  0.00    +0.045 C 
ENDROOT
BRANCH  10   9
ATOM      4  C   UNL     1       8.503 -15.521  63.182  0.00  0.00    +0.077 A 
ATOM      5  C   UNL     1       9.856 -15.225  63.554  0.00  0.00    +0.048 A 
ATOM      6  C   UNL     1      10.551 -14.274  62.773  0.00  0.00    +0.116 A 
ATOM      7  N   UNL     1       9.928 -13.670  61.702  0.00  0.00    -0.223 NA
ATOM      8  C   UNL     1       8.622 -13.980  61.370  0.00  0.00    +0.220 A 
ATOM      9  N   UNL     1       7.974 -13.379  60.302  0.00  0.00    -0.283 N 
ATOM     36  H   UNL     1       7.012 -13.640  60.084  0.00  0.00    +0.155 HD
ATOM     37  N   UNL     1       7.938 -14.886  62.099  0.00  0.00    -0.214 NA
BRANCH   4   3
ATOM      1  C   UNL     1       5.608 -17.102  65.284  0.00  0.00    +0.020 A 
ATOM      2  C   UNL     1       6.408 -16.117  64.594  0.00  0.00    +0.013 A 
ATOM      3  C   UNL     1       7.637 -16.500  63.912  0.00  0.00    +0.019 A 
ATOM     38  C   UNL     1       8.031 -17.901  63.946  0.00  0.00    +0.120 A 
ATOM     39  N   UNL     1       7.242 -18.827  64.619  0.00  0.00    -0.263 NA
ATOM     40  C   UNL     1       6.057 -18.470  65.281  0.00  0.00    +0.111 A 
ENDBRANCH   4   3
ENDBRANCH  10   9
BRANCH  12  13
ATOM     13  N   UNL     1      10.611 -12.239  56.239  0.00  0.00    -0.281 N 
ATOM     14  C   UNL     1      11.955 -12.506  56.040  0.00  0.00    +0.248 C 
ATOM     30  O   UNL     1      12.836 -12.266  56.853  0.00  0.00    -0.270 OA
ATOM     31  H   UNL     1      10.014 -12.306  55.415  0.00  0.00    +0.155 HD
BRANCH  14  15
ATOM     15  C   UNL     1      12.386 -13.115  54.744  0.00  0.00    +0.037 A 
ATOM     16  C   UNL     1      11.688 -14.272  54.179  0.00  0.00    +0.013 A 
ATOM     17  C   UNL     1      12.135 -14.851  52.937  0.00  0.00    +0.005 A 
ATOM     18  C   UNL     1      13.286 -14.270  52.250  0.00  0.00    -0.033 A 
ATOM     28  C   UNL     1      13.957 -13.118  52.830  0.00  0.00    +0.005 A 
ATOM     29  C   UNL     1      13.523 -12.550  54.048  0.00  0.00    +0.013 A 
BRANCH  18  19
ATOM     19  C   UNL     1      13.845 -14.835  50.930  0.00  0.00    +0.119 C 
BRANCH  19  20
ATOM     20  N   UNL     1      12.980 -14.724  49.718  0.00  0.00    -0.302 NA
ATOM     21  C   UNL     1      13.095 -15.955  48.815  0.00  0.00    +0.066 C 
ATOM     22  C   UNL     1      12.166 -15.832  47.564  0.00  0.00    -0.064 C 
ATOM     23  N   UNL     1      12.520 -14.560  46.792  0.00  0.00    +0.379 N 
ATOM     24  C   UNL     1      11.688 -14.472  45.583  0.00  0.00    -0.096 C 
ATOM     25  H   UNL     1      13.583 -14.648  46.466  0.00  0.00    -0.082 HD
ATOM     26  C   UNL     1      12.411 -13.331  47.683  0.00  0.00    -0.064 C 
ATOM     27  C   UNL     1      13.316 -13.476  48.939  0.00  0.00    +0.066 C 
ENDBRANCH  19  20
ENDBRANCH  18  19
ENDBRANCH  14  15
ENDBRANCH  12  13
TORSDOF 6
ENDMDL
MODEL 3
REMARK VINA RESULT:      -7.0      4.153     14.016
REMARK  Name = C:\Users\Docking\Desktop\test protocol\1iep_ligandH.pdb
REMARK  8 active torsions:
REMARK  status: ('A' for Active; 'I' for Inactive)
REMARK    1  A    between atoms: _5  and  _11
REMARK    2  A    between atoms: _19  and  _21
REMARK    3  A    between atoms: _22  and  _66
REMARK    4  A    between atoms: _27  and  _30
REMARK    5  A    between atoms: _32  and  _33
REMARK    6  A    between atoms: _38  and  _43
REMARK    7  A    between atoms: _43  and  _46
REMARK    8  A    between atoms: _53  and  _55
REMARK                            x       y       z     vdW  Elec       q    Type
REMARK                         _______ _______ _______ _____ _____    ______ ____
ROOT
ATOM     10  C   UNL     1      12.889 -15.655  51.675  0.00  0.00    +0.038 A 
ATOM     11  C   UNL     1      12.062 -14.848  52.499  0.00  0.00    +0.047 A 
ATOM     12  C   UNL     1      12.544 -14.329  53.769  0.00  0.00    +0.035 A 
ATOM     32  C   UNL     1      13.873 -14.650  54.170  0.00  0.00    +0.024 A 
ATOM     33  C   UNL     1      14.727 -15.469  53.346  0.00  0.00    +0.007 A 
ATOM     34  C   UNL     1      14.256 -15.986  52.092  0.00  0.00    -0.029 A 
ATOM     35  C   UNL     1      15.213 -16.865  51.253  0.00  0.00    +0.045 C 
ENDROOT
BRANCH  10   9
ATOM      4  C   UNL     1      11.926 -15.146  47.001  0.00  0.00    +0.077 A 
ATOM      5  C   UNL     1      12.468 -13.818  46.973  0.00  0.00    +0.048 A 
ATOM      6  C   UNL     1      12.978 -13.300  48.185  0.00  0.00    +0.116 A 
ATOM      7  N   UNL     1      12.944 -14.062  49.332  0.00  0.00    -0.223 NA
ATOM      8  C   UNL     1      12.413 -15.339  49.325  0.00  0.00    +0.220 A 
ATOM      9  N   UNL     1      12.375 -16.127  50.465  0.00  0.00    -0.283 N 
ATOM     36  H   UNL     1      11.968 -17.061  50.420  0.00  0.00    +0.155 HD
ATOM     37  N   UNL     1      11.918 -15.856  48.180  0.00  0.00    -0.214 NA
BRANCH   4   3
ATOM      1  C   UNL     1      10.979 -16.051  43.315  0.00  0.00    +0.020 A 
ATOM      2  C   UNL     1      11.554 -15.350  44.440  0.00  0.00    +0.013 A 
ATOM      3  C   UNL     1      11.353 -15.833  45.800  0.00  0.00    +0.019 A 
ATOM     38  C   UNL     1      10.560 -17.038  45.990  0.00  0.00    +0.120 A 
ATOM     39  N   UNL     1      10.017 -17.691  44.887  0.00  0.00    -0.263 NA
ATOM     40  C   UNL     1      10.202 -17.235  43.574  0.00  0.00    +0.111 A 
ENDBRANCH   4   3
ENDBRANCH  10   9
BRANCH  12  13
ATOM     13  N   UNL     1      11.747 -13.512  54.651  0.00  0.00    -0.281 N 
ATOM     14  C   UNL     1      10.970 -13.922  55.722  0.00  0.00    +0.248 C 
ATOM     30  O   UNL     1      10.670 -15.084  55.953  0.00  0.00    -0.270 OA
ATOM     31  H   UNL     1      11.759 -12.509  54.463  0.00  0.00    +0.155 HD
BRANCH  14  15
ATOM     15  C   UNL     1      10.436 -12.891  56.663  0.00  0.00    +0.037 A 
ATOM     16  C   UNL     1      10.686 -11.463  56.448  0.00  0.00    +0.013 A 
ATOM     17  C   UNL     1      10.174 -10.491  57.381  0.00  0.00    +0.005 A 
ATOM     18  C   UNL     1       9.405 -10.944  58.537  0.00  0.00    -0.033 A 
ATOM     28  C   UNL     1       9.167 -12.366  58.724  0.00  0.00    +0.005 A 
ATOM     29  C   UNL     1       9.668 -13.322  57.812  0.00  0.00    +0.013 A 
BRANCH  18  19
ATOM     19  C   UNL     1       8.838  -9.978  59.595  0.00  0.00    +0.119 C 
BRANCH  19  20
ATOM     20  N   UNL     1       9.377 -10.092  60.983  0.00  0.00    -0.302 NA
ATOM     21  C   UNL     1       8.271  -9.993  62.038  0.00  0.00    +0.066 C 
ATOM     22  C   UNL     1       8.849 -10.137  63.484  0.00  0.00    -0.064 C 
ATOM     23  N   UNL     1       9.914  -9.063  63.713  0.00  0.00    +0.379 N 
ATOM     24  C   UNL     1      10.418  -9.159  65.091  0.00  0.00    -0.096 C 
ATOM     25  H   UNL     1       9.422  -8.070  63.601  0.00  0.00    -0.082 HD
ATOM     26  C   UNL     1      11.016  -9.153  62.667  0.00  0.00    -0.064 C 
ATOM     27  C   UNL     1      10.427  -9.038  61.233  0.00  0.00    +0.066 C 
ENDBRANCH  19  20
ENDBRANCH  18  19
ENDBRANCH  14  15
ENDBRANCH  12  13
TORSDOF 6
ENDMDL
MODEL 4
REMARK VINA RESULT:      -6.9      5.455     15.934
REMARK  Name = C:\Users\Docking\Desktop\test protocol\1iep_ligandH.pdb
REMARK  8 active torsions:
REMARK  status: ('A' for Active; 'I' for Inactive)
REMARK    1  A    between atoms: _5  and  _11
REMARK    2  A    between atoms: _19  and  _21
REMARK    3  A    between atoms: _22  and  _66
REMARK    4  A    between atoms: _27  and  _30
REMARK    5  A    between atoms: _32  and  _33
REMARK    6  A    between atoms: _38  and  _43
REMARK    7  A    between atoms: _43  and  _46
REMARK    8  A    between atoms: _53  and  _55
REMARK                            x       y       z     vdW  Elec       q    Type
REMARK                         _______ _______ _______ _____ _____    ______ ____
ROOT
ATOM     10  C   UNL     1       8.160 -12.620  64.469  0.00  0.00    +0.038 A 
ATOM     11  C   UNL     1       6.853 -13.040  64.825  0.00  0.00    +0.047 A 
ATOM     12  C   UNL     1       6.343 -12.848  66.174  0.00  0.00    +0.035 A 
ATOM     32  C   UNL     1       7.190 -12.222  67.134  0.00  0.00    +0.024 A 
ATOM     33  C   UNL     1       8.521 -11.790  66.789  0.00  0.00    +0.007 A 
ATOM     34  C   UNL     1       9.031 -11.979  65.461  0.00  0.00    -0.029 A 
ATOM     35  C   UNL     1      10.469 -11.502  65.150  0.00  0.00    +0.045 C 
ENDROOT
BRANCH  10   9
ATOM      4  C   UNL     1       8.836 -11.160  59.947  0.00  0.00    +0.077 A 
ATOM      5  C   UNL     1       8.240  -9.882  60.208  0.00  0.00    +0.048 A 
ATOM      6  C   UNL     1       7.765  -9.643  61.517  0.00  0.00    +0.116 A 
ATOM      7  N   UNL     1       7.884 -10.616  62.485  0.00  0.00    -0.223 NA
ATOM      8  C   UNL     1       8.463 -11.839  62.200  0.00  0.00    +0.220 A 
ATOM      9  N   UNL     1       8.600 -12.829  63.160  0.00  0.00    -0.283 N 
ATOM     36  H   UNL     1       9.026 -13.721  62.907  0.00  0.00    +0.155 HD
ATOM     37  N   UNL     1       8.923 -12.092  60.957  0.00  0.00    -0.214 NA
BRANCH   4   3
ATOM      1  C   UNL     1       9.646 -13.181  56.697  0.00  0.00    +0.020 A 
ATOM      2  C   UNL     1       9.088 -12.842  57.986  0.00  0.00    +0.013 A 
ATOM      3  C   UNL     1       9.388 -11.562  58.614  0.00  0.00    +0.019 A 
ATOM     38  C   UNL     1      10.262 -10.639  57.906  0.00  0.00    +0.120 A 
ATOM     39  N   UNL     1      10.786 -10.993  56.667  0.00  0.00    -0.263 NA
ATOM     40  C   UNL     1      10.506 -12.223  56.053  0.00  0.00    +0.111 A 
ENDBRANCH   4   3
ENDBRANCH  10   9
BRANCH  12  13
ATOM     13  N   UNL     1       5.027 -13.261  66.596  0.00  0.00    -0.281 N 
ATOM     14  C   UNL     1       4.222 -12.682  67.563  0.00  0.00    +0.248 C 
ATOM     30  O   UNL     1       4.602 -11.843  68.366  0.00  0.00    -0.270 OA
ATOM     31  H   UNL     1       4.643 -14.080  66.124  0.00  0.00    +0.155 HD
BRANCH  14  15
ATOM     15  C   UNL     1       2.793 -13.106  67.661  0.00  0.00    +0.037 A 
ATOM     16  C   UNL     1       2.423 -14.523  67.726  0.00  0.00    +0.013 A 
ATOM     17  C   UNL     1       1.035 -14.905  67.803  0.00  0.00    +0.005 A 
ATOM     18  C   UNL     1       0.006 -13.868  67.818  0.00  0.00    -0.033 A 
ATOM     28  C   UNL     1       0.401 -12.471  67.758  0.00  0.00    +0.005 A 
ATOM     29  C   UNL     1       1.760 -12.092  67.681  0.00  0.00    +0.013 A 
BRANCH  18  19
ATOM     19  C   UNL     1      -1.500 -14.185  67.877  0.00  0.00    +0.119 C 
BRANCH  19  20
ATOM     20  N   UNL     1      -2.245 -13.740  69.092  0.00  0.00    -0.302 NA
ATOM     21  C   UNL     1      -2.503 -14.896  70.063  0.00  0.00    +0.066 C 
ATOM     22  C   UNL     1      -3.264 -14.408  71.339  0.00  0.00    -0.064 C 
ATOM     23  N   UNL     1      -4.578 -13.745  70.924  0.00  0.00    +0.379 N 
ATOM     24  C   UNL     1      -5.323 -13.337  72.124  0.00  0.00    -0.096 C 
ATOM     25  H   UNL     1      -5.189 -14.511  70.391  0.00  0.00    -0.082 HD
ATOM     26  C   UNL     1      -4.331 -12.597  69.956  0.00  0.00    -0.064 C 
ATOM     27  C   UNL     1      -3.549 -13.087  68.705  0.00  0.00    +0.066 C 
ENDBRANCH  19  20
ENDBRANCH  18  19
ENDBRANCH  14  15
ENDBRANCH  12  13
TORSDOF 6
ENDMDL
MODEL 5
REMARK VINA RESULT:      -6.9      5.978     16.324
REMARK  Name = C:\Users\Docking\Desktop\test protocol\1iep_ligandH.pdb
REMARK  8 active torsions:
REMARK  status: ('A' for Active; 'I' for Inactive)
REMARK    1  A    between atoms: _5  and  _11
REMARK    2  A    between atoms: _19  and  _21
REMARK    3  A    between atoms: _22  and  _66
REMARK    4  A    between atoms: _27  and  _30
REMARK    5  A    between atoms: _32  and  _33
REMARK    6  A    between atoms: _38  and  _43
REMARK    7  A    between atoms: _43  and  _46
REMARK    8  A    between atoms: _53  and  _55
REMARK                            x       y       z     vdW  Elec       q    Type
REMARK                         _______ _______ _______ _____ _____    ______ ____
ROOT
ATOM     10  C   UNL     1       7.461 -13.342  64.722  0.00  0.00    +0.038 A 
ATOM     11  C   UNL     1       6.146 -12.985  65.116  0.00  0.00    +0.047 A 
ATOM     12  C   UNL     1       5.780 -12.894  66.521  0.00  0.00    +0.035 A 
ATOM     32  C   UNL     1       6.780 -13.172  67.499  0.00  0.00    +0.024 A 
ATOM     33  C   UNL     1       8.121 -13.538  67.116  0.00  0.00    +0.007 A 
ATOM     34  C   UNL     1       8.487 -13.631  65.731  0.00  0.00    -0.029 A 
ATOM     35  C   UNL     1       9.937 -14.034  65.379  0.00  0.00    +0.045 C 
ENDROOT
BRANCH  10   9
ATOM      4  C   UNL     1       8.841 -11.348  60.580  0.00  0.00    +0.077 A 
ATOM      5  C   UNL     1       8.956 -10.048  61.176  0.00  0.00    +0.048 A 
ATOM      6  C   UNL     1       8.644  -9.934  62.549  0.00  0.00    +0.116 A 
ATOM      7  N   UNL     1       8.248 -11.044  63.263  0.00  0.00    -0.223 NA
ATOM      8  C   UNL     1       8.146 -12.283  62.658  0.00  0.00    +0.220 A 
ATOM      9  N   UNL     1       7.757 -13.414  63.359  0.00  0.00    -0.283 N 
ATOM     36  H   UNL     1       7.687 -14.308  62.874  0.00  0.00    +0.155 HD
ATOM     37  N   UNL     1       8.437 -12.418  61.347  0.00  0.00    -0.214 NA
BRANCH   4   3
ATOM      1  C   UNL     1       9.065 -13.093  57.086  0.00  0.00    +0.020 A 
ATOM      2  C   UNL     1       8.753 -12.870  58.479  0.00  0.00    +0.013 A 
ATOM      3  C   UNL     1       9.140 -11.630  59.140  0.00  0.00    +0.019 A 
ATOM     38  C   UNL     1       9.846 -10.627  58.357  0.00  0.00    +0.120 A 
ATOM     39  N   UNL     1      10.134 -10.870  57.018  0.00  0.00    -0.263 NA
ATOM     40  C   UNL     1       9.768 -12.060  56.371  0.00  0.00    +0.111 A 
ENDBRANCH   4   3
ENDBRANCH  10   9
BRANCH  12  13
ATOM     13  N   UNL     1       4.459 -12.544  66.981  0.00  0.00    -0.281 N 
ATOM     14  C   UNL     1       3.541 -13.353  67.629  0.00  0.00    +0.248 C 
ATOM     30  O   UNL     1       3.634 -14.568  67.722  0.00  0.00    -0.270 OA
ATOM     31  H   UNL     1       4.166 -11.582  66.808  0.00  0.00    +0.155 HD
BRANCH  14  15
ATOM     15  C   UNL     1       2.337 -12.724  68.252  0.00  0.00    +0.037 A 
ATOM     16  C   UNL     1       2.429 -12.001  69.523  0.00  0.00    +0.013 A 
ATOM     17  C   UNL     1       1.249 -11.418  70.111  0.00  0.00    +0.005 A 
ATOM     18  C   UNL     1      -0.035 -11.554  69.425  0.00  0.00    -0.033 A 
ATOM     28  C   UNL     1      -0.096 -12.272  68.163  0.00  0.00    +0.005 A 
ATOM     29  C   UNL     1       1.058 -12.845  67.585  0.00  0.00    +0.013 A 
BRANCH  18  19
ATOM     19  C   UNL     1      -1.349 -10.982  69.990  0.00  0.00    +0.119 C 
BRANCH  19  20
ATOM     20  N   UNL     1      -2.559 -11.853  69.919  0.00  0.00    -0.302 NA
ATOM     21  C   UNL     1      -3.856 -11.045  70.029  0.00  0.00    +0.066 C 
ATOM     22  C   UNL     1      -5.113 -11.970  69.931  0.00  0.00    -0.064 C 
ATOM     23  N   UNL     1      -5.045 -13.037  71.025  0.00  0.00    +0.379 N 
ATOM     24  C   UNL     1      -6.253 -13.872  70.972  0.00  0.00    -0.096 C 
ATOM     25  H   UNL     1      -5.039 -12.512  72.009  0.00  0.00    -0.082 HD
ATOM     26  C   UNL     1      -3.757 -13.843  70.925  0.00  0.00    -0.064 C 
ATOM     27  C   UNL     1      -2.515 -12.911  70.994  0.00  0.00    +0.066 C 
ENDBRANCH  19  20
ENDBRANCH  18  19
ENDBRANCH  14  15
ENDBRANCH  12  13
TORSDOF 6
ENDMDL
