MODEL 1
REMARK VINA RESULT:      -8.7      0.000      0.000
REMARK  Name = C:\Users\Docking\Desktop\test protocol\1iep_ligandH.pdb
REMARK  8 active torsions:
REMARK  status: ('A' for Active; 'I' for Inactive)
REMARK    1  A    between atoms: _5  and  _11
REMARK    2  A    between atoms: _19  and  _21
REMARK    3  A    between atoms: _22  and  _66
REMARK    4  A    between atoms: _27  and  _30
REMARK    5  A    between atoms: _32  and  _33
REMARK    6  A    between atoms: _38  and  _43
REMARK    7  A    between atoms: _43  and  _46
REMARK    8  A    between atoms: _53  and  _55
REMARK                            x       y       z     vdW  Elec       q    Type
REMARK                         _______ _______ _______ _____ _____    ______ ____
ROOT
ATOM     10  C   UNL     1      19.810  25.231   4.218  0.00  0.00    +0.038 A 
ATOM     11  C   UNL     1      18.468  24.975   4.598  0.00  0.00    +0.047 A 
ATOM     12  C   UNL     1      17.993  23.617   4.814  0.00  0.00    +0.035 A 
ATOM     32  C   UNL     1      18.913  22.543   4.637  0.00  0.00    +0.024 A 
ATOM     33  C   UNL     1      20.281  22.785   4.250  0.00  0.00    +0.007 A 
ATOM     34  C   UNL     1      20.754  24.122   4.033  0.00  0.00    -0.029 A 
ATOM     35  C   UNL     1      22.229  24.322   3.612  0.00  0.00    +0.045 C 
ENDROOT
BRANCH  10   9
ATOM      4  C   UNL     1      20.581  29.052   1.418  0.00  0.00    +0.077 A 
ATOM      5  C   UNL     1      20.173  28.344   0.238  0.00  0.00    +0.048 A 
ATOM      6  C   UNL     1      19.779  26.996   0.394  0.00  0.00    +0.116 A 
ATOM      7  N   UNL     1      19.795  26.410   1.641  0.00  0.00    -0.223 NA
ATOM      8  C   UNL     1      20.196  27.121   2.758  0.00  0.00    +0.220 A 
ATOM      9  N   UNL     1      20.212  26.554   4.023  0.00  0.00    -0.283 N 
ATOM     36  H   UNL     1      20.521  27.109   4.820  0.00  0.00    +0.155 HD
ATOM     37  N   UNL     1      20.578  28.409   2.635  0.00  0.00    -0.214 NA
BRANCH   4   3
ATOM      1  C   UNL     1      21.699  32.612   0.245  0.00  0.00    +0.020 A 
ATOM      2  C   UNL     1      21.276  31.232   0.192  0.00  0.00    +0.013 A 
ATOM      3  C   UNL     1      21.021  30.483   1.416  0.00  0.00    +0.019 A 
ATOM     38  C   UNL     1      21.206  31.166   2.688  0.00  0.00    +0.120 A 
ATOM     39  N   UNL     1      21.616  32.495   2.708  0.00  0.00    -0.263 NA
ATOM     40  C   UNL     1      21.865  33.225   1.537  0.00  0.00    +0.111 A 
ENDBRANCH   4   3
ENDBRANCH  10   9
BRANCH  12  13
ATOM     13  N   UNL     1      16.639  23.295   5.193  0.00  0.00    -0.281 N 
ATOM     14  C   UNL     1      16.197  22.740   6.383  0.00  0.00    +0.248 C 
ATOM     30  O   UNL     1      16.927  22.235   7.223  0.00  0.00    -0.270 OA
ATOM     31  H   UNL     1      15.920  23.502   4.500  0.00  0.00    +0.155 HD
BRANCH  14  15
ATOM     15  C   UNL     1      14.731  22.731   6.674  0.00  0.00    +0.037 A 
ATOM     16  C   UNL     1      13.751  23.107   5.653  0.00  0.00    +0.013 A 
ATOM     17  C   UNL     1      12.344  23.106   5.966  0.00  0.00    +0.005 A 
ATOM     18  C   UNL     1      11.909  22.726   7.308  0.00  0.00    -0.033 A 
ATOM     28  C   UNL     1      12.902  22.352   8.300  0.00  0.00    +0.005 A 
ATOM     29  C   UNL     1      14.282  22.353   7.998  0.00  0.00    +0.013 A 
BRANCH  18  19
ATOM     19  C   UNL     1      10.429  22.717   7.736  0.00  0.00    +0.119 C 
BRANCH  19  20
ATOM     20  N   UNL     1       9.757  24.040   7.900  0.00  0.00    -0.302 NA
ATOM     21  C   UNL     1      10.713  25.107   8.443  0.00  0.00    +0.066 C 
ATOM     22  C   UNL     1       9.999  26.490   8.587  0.00  0.00    -0.064 C 
ATOM     23  N   UNL     1       8.781  26.340   9.500  0.00  0.00    +0.379 N 
ATOM     24  C   UNL     1       8.141  27.650   9.684  0.00  0.00    -0.096 C 
ATOM     25  H   UNL     1       9.146  25.998  10.496  0.00  0.00    -0.082 HD
ATOM     26  C   UNL     1       7.826  25.279   8.969  0.00  0.00    -0.064 C 
ATOM     27  C   UNL     1       8.553  23.915   8.802  0.00  0.00    +0.066 C 
ENDBRANCH  19  20
ENDBRANCH  18  19
ENDBRANCH  14  15
ENDBRANCH  12  13
TORSDOF 6
ENDMDL
MODEL 2
REMARK VINA RESULT:      -8.5      2.185      2.946
REMARK  Name = C:\Users\Docking\Desktop\test protocol\1iep_ligandH.pdb
REMARK  8 active torsions:
REMARK  status: ('A' for Active; 'I' for Inactive)
REMARK    1  A    between atoms: _5  and  _11
REMARK    2  A    between atoms: _19  and  _21
REMARK    3  A    between atoms: _22  and  _66
REMARK    4  A    between atoms: _27  and  _30
REMARK    5  A    between atoms: _32  and  _33
REMARK    6  A    between atoms: _38  and  _43
REMARK    7  A    between atoms: _43  and  _46
REMARK    8  A    between atoms: _53  and  _55
REMARK                            x       y       z     vdW  Elec       q    Type
REMARK                         _______ _______ _______ _____ _____    ______ ____
ROOT
ATOM     10  C   UNL     1      19.483  25.262   4.450  0.00  0.00    +0.038 A 
ATOM     11  C   UNL     1      18.120  25.106   4.810  0.00  0.00    +0.047 A 
ATOM     12  C   UNL     1      17.568  23.795   5.115  0.00  0.00    +0.035 A 
ATOM     32  C   UNL     1      18.433  22.665   5.046  0.00  0.00    +0.024 A 
ATOM     33  C   UNL     1      19.821  22.805   4.681  0.00  0.00    +0.007 A 
ATOM     34  C   UNL     1      20.370  24.096   4.377  0.00  0.00    -0.029 A 
ATOM     35  C   UNL     1      21.864  24.186   3.985  0.00  0.00    +0.045 C 
ENDROOT
BRANCH  10   9
ATOM      4  C   UNL     1      20.481  28.830   1.399  0.00  0.00    +0.077 A 
ATOM      5  C   UNL     1      20.039  28.066   0.268  0.00  0.00    +0.048 A 
ATOM      6  C   UNL     1      19.569  26.756   0.514  0.00  0.00    +0.116 A 
ATOM      7  N   UNL     1      19.546  26.259   1.799  0.00  0.00    -0.223 NA
ATOM      8  C   UNL     1      19.981  27.022   2.867  0.00  0.00    +0.220 A 
ATOM      9  N   UNL     1      19.960  26.544   4.168  0.00  0.00    -0.283 N 
ATOM     36  H   UNL     1      20.296  27.136   4.928  0.00  0.00    +0.155 HD
ATOM     37  N   UNL     1      20.436  28.275   2.658  0.00  0.00    -0.214 NA
BRANCH   4   3
ATOM      1  C   UNL     1      21.636  32.295  -0.002  0.00  0.00    +0.020 A 
ATOM      2  C   UNL     1      21.127  30.943   0.037  0.00  0.00    +0.013 A 
ATOM      3  C   UNL     1      21.001  30.231   1.302  0.00  0.00    +0.019 A 
ATOM     38  C   UNL     1      21.402  30.920   2.519  0.00  0.00    +0.120 A 
ATOM     39  N   UNL     1      21.889  32.221   2.451  0.00  0.00    -0.263 NA
ATOM     40  C   UNL     1      22.016  32.916   1.239  0.00  0.00    +0.111 A 
ENDBRANCH   4   3
ENDBRANCH  10   9
BRANCH  12  13
ATOM     13  N   UNL     1      16.190  23.574   5.479  0.00  0.00    -0.281 N 
ATOM     14  C   UNL     1      15.186  23.010   4.708  0.00  0.00    +0.248 C 
ATOM     30  O   UNL     1      15.270  22.804   3.507  0.00  0.00    -0.270 OA
ATOM     31  H   UNL     1      15.922  23.869   6.418  0.00  0.00    +0.155 HD
BRANCH  14  15
ATOM     15  C   UNL     1      13.897  22.633   5.365  0.00  0.00    +0.037 A 
ATOM     16  C   UNL     1      12.954  21.717   4.719  0.00  0.00    +0.013 A 
ATOM     17  C   UNL     1      11.711  21.383   5.367  0.00  0.00    +0.005 A 
ATOM     18  C   UNL     1      11.403  21.967   6.670  0.00  0.00    -0.033 A 
ATOM     28  C   UNL     1      12.359  22.870   7.291  0.00  0.00    +0.005 A 
ATOM     29  C   UNL     1      13.578  23.199   6.659  0.00  0.00    +0.013 A 
BRANCH  18  19
ATOM     19  C   UNL     1      10.090  21.685   7.425  0.00  0.00    +0.119 C 
BRANCH  19  20
ATOM     20  N   UNL     1      10.202  21.157   8.818  0.00  0.00    -0.302 NA
ATOM     21  C   UNL     1      11.116  19.932   8.896  0.00  0.00    +0.066 C 
ATOM     22  C   UNL     1      11.240  19.407  10.364  0.00  0.00    -0.064 C 
ATOM     23  N   UNL     1       9.847  19.079  10.904  0.00  0.00    +0.379 N 
ATOM     24  C   UNL     1       9.964  18.530  12.263  0.00  0.00    -0.096 C 
ATOM     25  H   UNL     1       9.411  18.284  10.255  0.00  0.00    -0.082 HD
ATOM     26  C   UNL     1       8.930  20.292  10.827  0.00  0.00    -0.064 C 
ATOM     27  C   UNL     1       8.838  20.823   9.369  0.00  0.00    +0.066 C 
ENDBRANCH  19  20
ENDBRANCH  18  19
ENDBRANCH  14  15
ENDBRANCH  12  13
TORSDOF 6
ENDMDL
MODEL 3
REMARK VINA RESULT:      -8.1      6.204     11.469
REMARK  Name = C:\Users\Docking\Desktop\test protocol\1iep_ligandH.pdb
REMARK  8 active torsions:
REMARK  status: ('A' for Active; 'I' for Inactive)
REMARK    1  A    between atoms: _5  and  _11
REMARK    2  A    between atoms: _19  and  _21
REMARK    3  A    between atoms: _22  and  _66
REMARK    4  A    between atoms: _27  and  _30
REMARK    5  A    between atoms: _32  and  _33
REMARK    6  A    between atoms: _38  and  _43
REMARK    7  A    between atoms: _43  and  _46
REMARK    8  A    between atoms: _53  and  _55
REMARK                            x       y       z     vdW  Elec       q    Type
REMARK                         _______ _______ _______ _____ _____    ______ ____
ROOT
ATOM     10  C   UNL     1      24.561  35.291   0.025  0.00  0.00    +0.038 A 
ATOM     11  C   UNL     1      23.811  34.187   0.503  0.00  0.00    +0.047 A 
ATOM     12  C   UNL     1      23.771  32.931  -0.230  0.00  0.00    +0.035 A 
ATOM     32  C   UNL     1      24.509  32.834  -1.445  0.00  0.00    +0.024 A 
ATOM     33  C   UNL     1      25.277  33.947  -1.946  0.00  0.00    +0.007 A 
ATOM     34  C   UNL     1      25.317  35.189  -1.228  0.00  0.00    -0.029 A 
ATOM     35  C   UNL     1      26.151  36.352  -1.816  0.00  0.00    +0.045 C 
ENDROOT
BRANCH  10   9
ATOM      4  C   UNL     1      24.349  37.674   4.186  0.00  0.00    +0.077 A 
ATOM      5  C   UNL     1      24.192  36.463   4.940  0.00  0.00    +0.048 A 
ATOM      6  C   UNL     1      24.164  35.249   4.218  0.00  0.00    +0.116 A 
ATOM      7  N   UNL     1      24.284  35.257   2.845  0.00  0.00    -0.223 NA
ATOM      8  C   UNL     1      24.433  36.443   2.149  0.00  0.00    +0.220 A 
ATOM      9  N   UNL     1      24.564  36.473   0.769  0.00  0.00    -0.283 N 
ATOM     36  H   UNL     1      24.664  37.369   0.292  0.00  0.00    +0.155 HD
ATOM     37  N   UNL     1      24.461  37.616   2.815  0.00  0.00    -0.214 NA
BRANCH   4   3
ATOM      1  C   UNL     1      24.073  40.629   6.735  0.00  0.00    +0.020 A 
ATOM      2  C   UNL     1      24.003  39.295   6.184  0.00  0.00    +0.013 A 
ATOM      3  C   UNL     1      24.400  39.036   4.806  0.00  0.00    +0.019 A 
ATOM     38  C   UNL     1      24.867  40.158   4.005  0.00  0.00    +0.120 A 
ATOM     39  N   UNL     1      24.922  41.432   4.562  0.00  0.00    -0.263 NA
ATOM     40  C   UNL     1      24.541  41.693   5.886  0.00  0.00    +0.111 A 
ENDBRANCH   4   3
ENDBRANCH  10   9
BRANCH  12  13
ATOM     13  N   UNL     1      23.020  31.778   0.202  0.00  0.00    -0.281 N 
ATOM     14  C   UNL     1      21.682  31.716   0.556  0.00  0.00    +0.248 C 
ATOM     30  O   UNL     1      20.976  32.692   0.760  0.00  0.00    -0.270 OA
ATOM     31  H   UNL     1      23.538  30.900   0.253  0.00  0.00    +0.155 HD
BRANCH  14  15
ATOM     15  C   UNL     1      21.040  30.377   0.720  0.00  0.00    +0.037 A 
ATOM     16  C   UNL     1      20.520  29.636  -0.432  0.00  0.00    +0.013 A 
ATOM     17  C   UNL     1      19.890  28.354  -0.244  0.00  0.00    +0.005 A 
ATOM     18  C   UNL     1      19.777  27.803   1.104  0.00  0.00    -0.033 A 
ATOM     28  C   UNL     1      20.306  28.556   2.230  0.00  0.00    +0.005 A 
ATOM     29  C   UNL     1      20.923  29.814   2.049  0.00  0.00    +0.013 A 
BRANCH  18  19
ATOM     19  C   UNL     1      19.101  26.451   1.402  0.00  0.00    +0.119 C 
BRANCH  19  20
ATOM     20  N   UNL     1      19.526  25.731   2.639  0.00  0.00    -0.302 NA
ATOM     21  C   UNL     1      20.651  24.729   2.362  0.00  0.00    +0.066 C 
ATOM     22  C   UNL     1      21.099  24.001   3.671  0.00  0.00    -0.064 C 
ATOM     23  N   UNL     1      19.893  23.302   4.301  0.00  0.00    +0.379 N 
ATOM     24  C   UNL     1      20.322  22.568   5.501  0.00  0.00    -0.096 C 
ATOM     25  H   UNL     1      19.513  22.555   3.566  0.00  0.00    -0.082 HD
ATOM     26  C   UNL     1      18.769  24.290   4.577  0.00  0.00    -0.064 C 
ATOM     27  C   UNL     1      18.351  25.030   3.275  0.00  0.00    +0.066 C 
ENDBRANCH  19  20
ENDBRANCH  18  19
ENDBRANCH  14  15
ENDBRANCH  12  13
TORSDOF 6
ENDMDL
MODEL 4
REMARK VINA RESULT:      -8.1      1.835      2.629
REMARK  Name = C:\Users\Docking\Desktop\test protocol\1iep_ligandH.pdb
REMARK  8 active torsions:
REMARK  status: ('A' for Active; 'I' for Inactive)
REMARK    1  A    between atoms: _5  and  _11
REMARK    2  A    between atoms: _19  and  _21
REMARK    3  A    between atoms: _22  and  _66
REMARK    4  A    between atoms: _27  and  _30
REMARK    5  A    between atoms: _32  and  _33
REMARK    6  A    between atoms: _38  and  _43
REMARK    7  A    between atoms: _43  and  _46
REMARK    8  A    between atoms: _53  and  _55
REMARK                            x       y       z     vdW  Elec       q    Type
REMARK                         _______ _______ _______ _____ _____    ______ ____
ROOT
ATOM     10  C   UNL     1      20.730  23.895   4.305  0.00  0.00    +0.038 A 
ATOM     11  C   UNL     1      19.586  23.568   5.077  0.00  0.00    +0.047 A 
ATOM     12  C   UNL     1      19.261  22.185   5.392  0.00  0.00    +0.035 A 
ATOM     32  C   UNL     1      20.125  21.161   4.906  0.00  0.00    +0.024 A 
ATOM     33  C   UNL     1      21.291  21.475   4.119  0.00  0.00    +0.007 A 
ATOM     34  C   UNL     1      21.616  22.837   3.804  0.00  0.00    -0.029 A 
ATOM     35  C   UNL     1      22.876  23.116   2.951  0.00  0.00    +0.045 C 
ENDROOT
BRANCH  10   9
ATOM      4  C   UNL     1      20.322  27.821   1.575  0.00  0.00    +0.077 A 
ATOM      5  C   UNL     1      19.537  27.129   0.593  0.00  0.00    +0.048 A 
ATOM      6  C   UNL     1      19.267  25.761   0.826  0.00  0.00    +0.116 A 
ATOM      7  N   UNL     1      19.750  25.143   1.958  0.00  0.00    -0.223 NA
ATOM      8  C   UNL     1      20.505  25.839   2.884  0.00  0.00    +0.220 A 
ATOM      9  N   UNL     1      20.995  25.239   4.033  0.00  0.00    -0.283 N 
ATOM     36  H   UNL     1      21.555  25.785   4.688  0.00  0.00    +0.155 HD
ATOM     37  N   UNL     1      20.778  27.145   2.684  0.00  0.00    -0.214 NA
BRANCH   4   3
ATOM      1  C   UNL     1      21.456  31.456   2.468  0.00  0.00    +0.020 A 
ATOM      2  C   UNL     1      21.112  30.062   2.620  0.00  0.00    +0.013 A 
ATOM      3  C   UNL     1      20.689  29.269   1.473  0.00  0.00    +0.019 A 
ATOM     38  C   UNL     1      20.624  29.923   0.174  0.00  0.00    +0.120 A 
ATOM     39  N   UNL     1      20.960  31.268   0.058  0.00  0.00    -0.263 NA
ATOM     40  C   UNL     1      21.367  32.041   1.155  0.00  0.00    +0.111 A 
ENDBRANCH   4   3
ENDBRANCH  10   9
BRANCH  12  13
ATOM     13  N   UNL     1      18.109  21.792   6.164  0.00  0.00    -0.281 N 
ATOM     14  C   UNL     1      18.068  21.391   7.490  0.00  0.00    +0.248 C 
ATOM     30  O   UNL     1      19.052  21.104   8.155  0.00  0.00    -0.270 OA
ATOM     31  H   UNL     1      17.214  21.811   5.674  0.00  0.00    +0.155 HD
BRANCH  14  15
ATOM     15  C   UNL     1      16.742  21.279   8.170  0.00  0.00    +0.037 A 
ATOM     16  C   UNL     1      16.404  20.112   8.988  0.00  0.00    +0.013 A 
ATOM     17  C   UNL     1      15.111  20.021   9.619  0.00  0.00    +0.005 A 
ATOM     18  C   UNL     1      14.147  21.104   9.436  0.00  0.00    -0.033 A 
ATOM     28  C   UNL     1      14.511  22.253   8.624  0.00  0.00    +0.005 A 
ATOM     29  C   UNL     1      15.777  22.345   8.003  0.00  0.00    +0.013 A 
BRANCH  18  19
ATOM     19  C   UNL     1      12.737  21.081  10.055  0.00  0.00    +0.119 C 
BRANCH  19  20
ATOM     20  N   UNL     1      11.809  22.191   9.682  0.00  0.00    -0.302 NA
ATOM     21  C   UNL     1      11.043  22.730  10.893  0.00  0.00    +0.066 C 
ATOM     22  C   UNL     1      10.094  23.905  10.489  0.00  0.00    -0.064 C 
ATOM     23  N   UNL     1       9.126  23.425   9.406  0.00  0.00    +0.379 N 
ATOM     24  C   UNL     1       8.194  24.510   9.065  0.00  0.00    -0.096 C 
ATOM     25  H   UNL     1       8.528  22.588   9.833  0.00  0.00    -0.082 HD
ATOM     26  C   UNL     1       9.880  22.885   8.199  0.00  0.00    -0.064 C 
ATOM     27  C   UNL     1      10.842  21.738   8.616  0.00  0.00    +0.066 C 
ENDBRANCH  19  20
ENDBRANCH  18  19
ENDBRANCH  14  15
ENDBRANCH  12  13
TORSDOF 6
ENDMDL
MODEL 5
REMARK VINA RESULT:      -8.0      1.983     11.843
REMARK  Name = C:\Users\Docking\Desktop\test protocol\1iep_ligandH.pdb
REMARK  8 active torsions:
REMARK  status: ('A' for Active; 'I' for Inactive)
REMARK    1  A    between atoms: _5  and  _11
REMARK    2  A    between atoms: _19  and  _21
REMARK    3  A    between atoms: _22  and  _66
REMARK    4  A    between atoms: _27  and  _30
REMARK    5  A    between atoms: _32  and  _33
REMARK    6  A    between atoms: _38  and  _43
REMARK    7  A    between atoms: _43  and  _46
REMARK    8  A    between atoms: _53  and  _55
REMARK                            x       y       z     vdW  Elec       q    Type
REMARK                         _______ _______ _______ _____ _____    ______ ____
ROOT
ATOM     10  C   UNL     1      11.932  22.848   8.044  0.00  0.00    +0.038 A 
ATOM     11  C   UNL     1      13.120  23.212   7.359  0.00  0.00    +0.047 A 
ATOM     12  C   UNL     1      14.423  22.763   7.824  0.00  0.00    +0.035 A 
ATOM     32  C   UNL     1      14.480  21.942   8.988  0.00  0.00    +0.024 A 
ATOM     33  C   UNL     1      13.282  21.564   9.696  0.00  0.00    +0.007 A 
ATOM     34  C   UNL     1      11.994  22.006   9.244  0.00  0.00    -0.029 A 
ATOM     35  C   UNL     1      10.744  21.575  10.047  0.00  0.00    +0.045 C 
ENDROOT
BRANCH  10   9
ATOM      4  C   UNL     1       8.453  26.143   7.761  0.00  0.00    +0.077 A 
ATOM      5  C   UNL     1       9.119  27.012   8.688  0.00  0.00    +0.048 A 
ATOM      6  C   UNL     1      10.351  26.570   9.221  0.00  0.00    +0.116 A 
ATOM      7  N   UNL     1      10.870  25.349   8.846  0.00  0.00    -0.223 NA
ATOM      8  C   UNL     1      10.201  24.535   7.950  0.00  0.00    +0.220 A 
ATOM      9  N   UNL     1      10.707  23.307   7.554  0.00  0.00    -0.283 N 
ATOM     36  H   UNL     1      10.180  22.733   6.897  0.00  0.00    +0.155 HD
ATOM     37  N   UNL     1       9.022  24.934   7.429  0.00  0.00    -0.214 NA
BRANCH   4   3
ATOM      1  C   UNL     1       4.690  27.045   7.189  0.00  0.00    +0.020 A 
ATOM      2  C   UNL     1       5.928  26.733   7.866  0.00  0.00    +0.013 A 
ATOM      3  C   UNL     1       7.146  26.471   7.110  0.00  0.00    +0.019 A 
ATOM     38  C   UNL     1       7.077  26.534   5.657  0.00  0.00    +0.120 A 
ATOM     39  N   UNL     1       5.871  26.836   5.032  0.00  0.00    -0.263 NA
ATOM     40  C   UNL     1       4.692  27.088   5.750  0.00  0.00    +0.111 A 
ENDBRANCH   4   3
ENDBRANCH  10   9
BRANCH  12  13
ATOM     13  N   UNL     1      15.664  23.107   7.175  0.00  0.00    -0.281 N 
ATOM     14  C   UNL     1      16.396  22.345   6.279  0.00  0.00    +0.248 C 
ATOM     30  O   UNL     1      16.203  21.158   6.062  0.00  0.00    -0.270 OA
ATOM     31  H   UNL     1      16.050  24.023   7.404  0.00  0.00    +0.155 HD
BRANCH  14  15
ATOM     15  C   UNL     1      17.513  22.991   5.525  0.00  0.00    +0.037 A 
ATOM     16  C   UNL     1      18.860  22.414   5.519  0.00  0.00    +0.013 A 
ATOM     17  C   UNL     1      19.923  23.067   4.798  0.00  0.00    +0.005 A 
ATOM     18  C   UNL     1      19.644  24.306   4.075  0.00  0.00    -0.033 A 
ATOM     28  C   UNL     1      18.298  24.854   4.094  0.00  0.00    +0.005 A 
ATOM     29  C   UNL     1      17.253  24.217   4.801  0.00  0.00    +0.013 A 
BRANCH  18  19
ATOM     19  C   UNL     1      20.722  25.082   3.297  0.00  0.00    +0.119 C 
BRANCH  19  20
ATOM     20  N   UNL     1      20.258  26.170   2.386  0.00  0.00    -0.302 NA
ATOM     21  C   UNL     1      20.899  26.071   0.999  0.00  0.00    +0.066 C 
ATOM     22  C   UNL     1      20.385  27.204   0.052  0.00  0.00    -0.064 C 
ATOM     23  N   UNL     1      20.675  28.566   0.686  0.00  0.00    +0.379 N 
ATOM     24  C   UNL     1      20.245  29.634  -0.228  0.00  0.00    -0.096 C 
ATOM     25  H   UNL     1      21.779  28.652   0.812  0.00  0.00    -0.082 HD
ATOM     26  C   UNL     1      20.043  28.672   2.067  0.00  0.00    -0.064 C 
ATOM     27  C   UNL     1      20.538  27.524   2.991  0.00  0.00    +0.066 C 
ENDBRANCH  19  20
ENDBRANCH  18  19
ENDBRANCH  14  15
ENDBRANCH  12  13
TORSDOF 6
ENDMDL
