MODEL 1
REMARK VINA RESULT:      -9.8      0.000      0.000
REMARK  Name = C:\Users\Docking\Desktop\test protocol\1iep_ligandH.pdb
REMARK  8 active torsions:
REMARK  status: ('A' for Active; 'I' for Inactive)
REMARK    1  A    between atoms: _5  and  _11
REMARK    2  A    between atoms: _19  and  _21
REMARK    3  A    between atoms: _22  and  _66
REMARK    4  A    between atoms: _27  and  _30
REMARK    5  A    between atoms: _32  and  _33
REMARK    6  A    between atoms: _38  and  _43
REMARK    7  A    between atoms: _43  and  _46
REMARK    8  A    between atoms: _53  and  _55
REMARK                            x       y       z     vdW  Elec       q    Type
REMARK                         _______ _______ _______ _____ _____    ______ ____
ROOT
ATOM     10  C   UNL     1     101.527 100.882  80.533  0.00  0.00    +0.038 A 
ATOM     11  C   UNL     1     100.982 101.668  79.486  0.00  0.00    +0.047 A 
ATOM     12  C   UNL     1     101.626 102.900  79.057  0.00  0.00    +0.035 A 
ATOM     32  C   UNL     1     102.825 103.300  79.715  0.00  0.00    +0.024 A 
ATOM     33  C   UNL     1     103.393 102.513  80.781  0.00  0.00    +0.007 A 
ATOM     34  C   UNL     1     102.761 101.298  81.211  0.00  0.00    -0.029 A 
ATOM     35  C   UNL     1     103.410 100.498  82.364  0.00  0.00    +0.045 C 
ENDROOT
BRANCH  10   9
ATOM      4  C   UNL     1      97.703  98.533  82.236  0.00  0.00    +0.077 A 
ATOM      5  C   UNL     1      96.967  99.749  82.427  0.00  0.00    +0.048 A 
ATOM      6  C   UNL     1      97.611 100.959  82.081  0.00  0.00    +0.116 A 
ATOM      7  N   UNL     1      98.895 100.941  81.582  0.00  0.00    -0.223 NA
ATOM      8  C   UNL     1      99.578  99.750  81.412  0.00  0.00    +0.220 A 
ATOM      9  N   UNL     1     100.867  99.708  80.905  0.00  0.00    -0.283 N 
ATOM     36  H   UNL     1     101.340  98.810  80.802  0.00  0.00    +0.155 HD
ATOM     37  N   UNL     1      98.986  98.582  81.737  0.00  0.00    -0.214 NA
BRANCH   4   3
ATOM      1  C   UNL     1      95.380  95.391  82.411  0.00  0.00    +0.020 A 
ATOM      2  C   UNL     1      95.860  96.712  82.078  0.00  0.00    +0.013 A 
ATOM      3  C   UNL     1      97.158  97.175  82.552  0.00  0.00    +0.019 A 
ATOM     38  C   UNL     1      97.952  96.268  83.367  0.00  0.00    +0.120 A 
ATOM     39  N   UNL     1      97.463  95.002  83.673  0.00  0.00    -0.263 NA
ATOM     40  C   UNL     1      96.215  94.547  83.223  0.00  0.00    +0.111 A 
ENDBRANCH   4   3
ENDBRANCH  10   9
BRANCH  12  13
ATOM     13  N   UNL     1     101.114 103.744  78.006  0.00  0.00    -0.281 N 
ATOM     14  C   UNL     1      99.998 103.534  77.213  0.00  0.00    +0.248 C 
ATOM     30  O   UNL     1      99.387 102.478  77.144  0.00  0.00    -0.270 OA
ATOM     31  H   UNL     1     101.639 104.599  77.824  0.00  0.00    +0.155 HD
BRANCH  14  15
ATOM     15  C   UNL     1      99.495 104.656  76.362  0.00  0.00    +0.037 A 
ATOM     16  C   UNL     1     100.328 105.829  76.082  0.00  0.00    +0.013 A 
ATOM     17  C   UNL     1      99.812 106.905  75.273  0.00  0.00    +0.005 A 
ATOM     18  C   UNL     1      98.456 106.811  74.737  0.00  0.00    -0.033 A 
ATOM     28  C   UNL     1      97.654 105.634  75.026  0.00  0.00    +0.005 A 
ATOM     29  C   UNL     1      98.156 104.578  75.820  0.00  0.00    +0.013 A 
BRANCH  18  19
ATOM     19  C   UNL     1      97.817 107.921  73.881  0.00  0.00    +0.119 C 
BRANCH  19  20
ATOM     20  N   UNL     1      97.197 107.514  72.585  0.00  0.00    -0.302 NA
ATOM     21  C   UNL     1      98.245 107.071  71.561  0.00  0.00    +0.066 C 
ATOM     22  C   UNL     1      97.577 106.627  70.219  0.00  0.00    -0.064 C 
ATOM     23  N   UNL     1      96.733 107.777  69.667  0.00  0.00    +0.379 N 
ATOM     24  C   UNL     1      96.150 107.383  68.376  0.00  0.00    -0.096 C 
ATOM     25  H   UNL     1      97.416 108.639  69.482  0.00  0.00    -0.082 HD
ATOM     26  C   UNL     1      95.690 108.226  70.681  0.00  0.00    -0.064 C 
ATOM     27  C   UNL     1      96.362 108.637  72.021  0.00  0.00    +0.066 C 
ENDBRANCH  19  20
ENDBRANCH  18  19
ENDBRANCH  14  15
ENDBRANCH  12  13
TORSDOF 6
ENDMDL
MODEL 2
REMARK VINA RESULT:      -9.7      1.605      2.096
REMARK  Name = C:\Users\Docking\Desktop\test protocol\1iep_ligandH.pdb
REMARK  8 active torsions:
REMARK  status: ('A' for Active; 'I' for Inactive)
REMARK    1  A    between atoms: _5  and  _11
REMARK    2  A    between atoms: _19  and  _21
REMARK    3  A    between atoms: _22  and  _66
REMARK    4  A    between atoms: _27  and  _30
REMARK    5  A    between atoms: _32  and  _33
REMARK    6  A    between atoms: _38  and  _43
REMARK    7  A    between atoms: _43  and  _46
REMARK    8  A    between atoms: _53  and  _55
REMARK                            x       y       z     vdW  Elec       q    Type
REMARK                         _______ _______ _______ _____ _____    ______ ____
ROOT
ATOM     10  C   UNL     1     101.548 100.846  80.556  0.00  0.00    +0.038 A 
ATOM     11  C   UNL     1     101.000 101.652  79.525  0.00  0.00    +0.047 A 
ATOM     12  C   UNL     1     101.653 102.881  79.104  0.00  0.00    +0.035 A 
ATOM     32  C   UNL     1     102.865 103.259  79.753  0.00  0.00    +0.024 A 
ATOM     33  C   UNL     1     103.435 102.452  80.803  0.00  0.00    +0.007 A 
ATOM     34  C   UNL     1     102.794 101.240  81.224  0.00  0.00    -0.029 A 
ATOM     35  C   UNL     1     103.447 100.417  82.359  0.00  0.00    +0.045 C 
ENDROOT
BRANCH  10   9
ATOM      4  C   UNL     1      97.695  98.514  82.217  0.00  0.00    +0.077 A 
ATOM      5  C   UNL     1      96.962  99.734  82.399  0.00  0.00    +0.048 A 
ATOM      6  C   UNL     1      97.615 100.940  82.061  0.00  0.00    +0.116 A 
ATOM      7  N   UNL     1      98.905 100.916  81.576  0.00  0.00    -0.223 NA
ATOM      8  C   UNL     1      99.584  99.723  81.413  0.00  0.00    +0.220 A 
ATOM      9  N   UNL     1     100.879  99.675  80.920  0.00  0.00    -0.283 N 
ATOM     36  H   UNL     1     101.348  98.775  80.822  0.00  0.00    +0.155 HD
ATOM     37  N   UNL     1      98.983  98.557  81.731  0.00  0.00    -0.214 NA
BRANCH   4   3
ATOM      1  C   UNL     1      95.369  95.372  82.342  0.00  0.00    +0.020 A 
ATOM      2  C   UNL     1      95.859  96.691  82.014  0.00  0.00    +0.013 A 
ATOM      3  C   UNL     1      97.140  97.158  82.527  0.00  0.00    +0.019 A 
ATOM     38  C   UNL     1      97.908  96.260  83.376  0.00  0.00    +0.120 A 
ATOM     39  N   UNL     1      97.410  94.996  83.677  0.00  0.00    -0.263 NA
ATOM     40  C   UNL     1      96.177  94.536  83.190  0.00  0.00    +0.111 A 
ENDBRANCH   4   3
ENDBRANCH  10   9
BRANCH  12  13
ATOM     13  N   UNL     1     101.139 103.744  78.069  0.00  0.00    -0.281 N 
ATOM     14  C   UNL     1     100.040 103.534  77.253  0.00  0.00    +0.248 C 
ATOM     30  O   UNL     1      99.454 102.467  77.144  0.00  0.00    -0.270 OA
ATOM     31  H   UNL     1     101.648 104.616  77.921  0.00  0.00    +0.155 HD
BRANCH  14  15
ATOM     15  C   UNL     1      99.526 104.669  76.427  0.00  0.00    +0.037 A 
ATOM     16  C   UNL     1     100.378 105.814  76.095  0.00  0.00    +0.013 A 
ATOM     17  C   UNL     1      99.852 106.904  75.312  0.00  0.00    +0.005 A 
ATOM     18  C   UNL     1      98.466 106.852  74.854  0.00  0.00    -0.033 A 
ATOM     28  C   UNL     1      97.644 105.702  75.193  0.00  0.00    +0.005 A 
ATOM     29  C   UNL     1      98.156 104.633  75.962  0.00  0.00    +0.013 A 
BRANCH  18  19
ATOM     19  C   UNL     1      97.815 107.980  74.031  0.00  0.00    +0.119 C 
BRANCH  19  20
ATOM     20  N   UNL     1      98.698 109.098  73.583  0.00  0.00    -0.302 NA
ATOM     21  C   UNL     1      97.907 110.377  73.297  0.00  0.00    +0.066 C 
ATOM     22  C   UNL     1      98.849 111.542  72.852  0.00  0.00    -0.064 C 
ATOM     23  N   UNL     1      99.642 111.109  71.618  0.00  0.00    +0.379 N 
ATOM     24  C   UNL     1     100.487 112.223  71.162  0.00  0.00    -0.096 C 
ATOM     25  H   UNL     1      98.911 110.885  70.807  0.00  0.00    -0.082 HD
ATOM     26  C   UNL     1     100.431 109.836  71.892  0.00  0.00    -0.064 C 
ATOM     27  C   UNL     1      99.488 108.693  72.363  0.00  0.00    +0.066 C 
ENDBRANCH  19  20
ENDBRANCH  18  19
ENDBRANCH  14  15
ENDBRANCH  12  13
TORSDOF 6
ENDMDL
MODEL 3
REMARK VINA RESULT:      -9.3      5.899      8.263
REMARK  Name = C:\Users\Docking\Desktop\test protocol\1iep_ligandH.pdb
REMARK  8 active torsions:
REMARK  status: ('A' for Active; 'I' for Inactive)
REMARK    1  A    between atoms: _5  and  _11
REMARK    2  A    between atoms: _19  and  _21
REMARK    3  A    between atoms: _22  and  _66
REMARK    4  A    between atoms: _27  and  _30
REMARK    5  A    between atoms: _32  and  _33
REMARK    6  A    between atoms: _38  and  _43
REMARK    7  A    between atoms: _43  and  _46
REMARK    8  A    between atoms: _53  and  _55
REMARK                            x       y       z     vdW  Elec       q    Type
REMARK                         _______ _______ _______ _____ _____    ______ ____
ROOT
ATOM     10  C   UNL     1      96.942  97.009  80.886  0.00  0.00    +0.038 A 
ATOM     11  C   UNL     1      96.416  97.604  79.711  0.00  0.00    +0.047 A 
ATOM     12  C   UNL     1      95.033  97.391  79.314  0.00  0.00    +0.035 A 
ATOM     32  C   UNL     1      94.212  96.568  80.139  0.00  0.00    +0.024 A 
ATOM     33  C   UNL     1      94.731  95.955  81.336  0.00  0.00    +0.007 A 
ATOM     34  C   UNL     1      96.095  96.159  81.732  0.00  0.00    -0.029 A 
ATOM     35  C   UNL     1      96.599  95.471  83.022  0.00  0.00    +0.045 C 
ENDROOT
BRANCH  10   9
ATOM      4  C   UNL     1     100.558  99.950  82.033  0.00  0.00    +0.077 A 
ATOM      5  C   UNL     1      99.723 101.112  81.932  0.00  0.00    +0.048 A 
ATOM      6  C   UNL     1      98.370 100.910  81.576  0.00  0.00    +0.116 A 
ATOM      7  N   UNL     1      97.899  99.637  81.340  0.00  0.00    -0.223 NA
ATOM      8  C   UNL     1      98.731  98.538  81.445  0.00  0.00    +0.220 A 
ATOM      9  N   UNL     1      98.277  97.248  81.220  0.00  0.00    -0.283 N 
ATOM     36  H   UNL     1      98.924  96.464  81.300  0.00  0.00    +0.155 HD
ATOM     37  N   UNL     1     100.027  98.704  81.782  0.00  0.00    -0.214 NA
BRANCH   4   3
ATOM      1  C   UNL     1     104.293 101.066  82.353  0.00  0.00    +0.020 A 
ATOM      2  C   UNL     1     102.901 101.065  81.967  0.00  0.00    +0.013 A 
ATOM      3  C   UNL     1     102.008  99.999  82.403  0.00  0.00    +0.019 A 
ATOM     38  C   UNL     1     102.559  98.942  83.237  0.00  0.00    +0.120 A 
ATOM     39  N   UNL     1     103.904  98.968  83.592  0.00  0.00    -0.263 NA
ATOM     40  C   UNL     1     104.773  99.988  83.176  0.00  0.00    +0.111 A 
ENDBRANCH   4   3
ENDBRANCH  10   9
BRANCH  12  13
ATOM     13  N   UNL     1      94.446  97.962  78.127  0.00  0.00    -0.281 N 
ATOM     14  C   UNL     1      94.521  97.489  76.827  0.00  0.00    +0.248 C 
ATOM     30  O   UNL     1      95.287  96.614  76.454  0.00  0.00    -0.270 OA
ATOM     31  H   UNL     1      93.910  98.820  78.262  0.00  0.00    +0.155 HD
BRANCH  14  15
ATOM     15  C   UNL     1      93.625  98.084  75.789  0.00  0.00    +0.037 A 
ATOM     16  C   UNL     1      93.154  99.468  75.895  0.00  0.00    +0.013 A 
ATOM     17  C   UNL     1      92.277 100.012  74.889  0.00  0.00    +0.005 A 
ATOM     18  C   UNL     1      91.866  99.171  73.766  0.00  0.00    -0.033 A 
ATOM     28  C   UNL     1      92.353  97.804  73.683  0.00  0.00    +0.005 A 
ATOM     29  C   UNL     1      93.212  97.267  74.668  0.00  0.00    +0.013 A 
BRANCH  18  19
ATOM     19  C   UNL     1      90.916  99.662  72.658  0.00  0.00    +0.119 C 
BRANCH  19  20
ATOM     20  N   UNL     1      91.249  99.280  71.253  0.00  0.00    -0.302 NA
ATOM     21  C   UNL     1      92.236 100.259  70.610  0.00  0.00    +0.066 C 
ATOM     22  C   UNL     1      92.591  99.832  69.149  0.00  0.00    -0.064 C 
ATOM     23  N   UNL     1      91.307  99.736  68.323  0.00  0.00    +0.379 N 
ATOM     24  C   UNL     1      91.643  99.391  66.933  0.00  0.00    -0.096 C 
ATOM     25  H   UNL     1      90.834 100.746  68.316  0.00  0.00    -0.082 HD
ATOM     26  C   UNL     1      90.319  98.767  68.956  0.00  0.00    -0.064 C 
ATOM     27  C   UNL     1      89.996  99.184  70.418  0.00  0.00    +0.066 C 
ENDBRANCH  19  20
ENDBRANCH  18  19
ENDBRANCH  14  15
ENDBRANCH  12  13
TORSDOF 6
ENDMDL
MODEL 4
REMARK VINA RESULT:      -9.2      6.623     14.183
REMARK  Name = C:\Users\Docking\Desktop\test protocol\1iep_ligandH.pdb
REMARK  8 active torsions:
REMARK  status: ('A' for Active; 'I' for Inactive)
REMARK    1  A    between atoms: _5  and  _11
REMARK    2  A    between atoms: _19  and  _21
REMARK    3  A    between atoms: _22  and  _66
REMARK    4  A    between atoms: _27  and  _30
REMARK    5  A    between atoms: _32  and  _33
REMARK    6  A    between atoms: _38  and  _43
REMARK    7  A    between atoms: _43  and  _46
REMARK    8  A    between atoms: _53  and  _55
REMARK                            x       y       z     vdW  Elec       q    Type
REMARK                         _______ _______ _______ _____ _____    ______ ____
ROOT
ATOM     10  C   UNL     1      96.564  96.019  81.741  0.00  0.00    +0.038 A 
ATOM     11  C   UNL     1      95.164  96.006  81.513  0.00  0.00    +0.047 A 
ATOM     12  C   UNL     1      94.271  95.227  82.357  0.00  0.00    +0.035 A 
ATOM     32  C   UNL     1      94.838  94.475  83.426  0.00  0.00    +0.024 A 
ATOM     33  C   UNL     1      96.259  94.475  83.672  0.00  0.00    +0.007 A 
ATOM     34  C   UNL     1      97.145  95.240  82.841  0.00  0.00    -0.029 A 
ATOM     35  C   UNL     1      98.660  95.198  83.147  0.00  0.00    +0.045 C 
ENDROOT
BRANCH  10   9
ATOM      4  C   UNL     1      98.756 100.122  80.560  0.00  0.00    +0.077 A 
ATOM      5  C   UNL     1      98.219 100.806  81.701  0.00  0.00    +0.048 A 
ATOM      6  C   UNL     1      97.378 100.068  82.564  0.00  0.00    +0.116 A 
ATOM      7  N   UNL     1      97.101  98.745  82.295  0.00  0.00    -0.223 NA
ATOM      8  C   UNL     1      97.634  98.116  81.185  0.00  0.00    +0.220 A 
ATOM      9  N   UNL     1      97.375  96.784  80.900  0.00  0.00    -0.283 N 
ATOM     36  H   UNL     1      97.781  96.359  80.067  0.00  0.00    +0.155 HD
ATOM     37  N   UNL     1      98.439  98.799  80.346  0.00  0.00    -0.214 NA
BRANCH   4   3
ATOM      1  C   UNL     1     101.749 102.036  78.922  0.00  0.00    +0.020 A 
ATOM      2  C   UNL     1     100.907 101.430  79.929  0.00  0.00    +0.013 A 
ATOM      3  C   UNL     1      99.664 100.765  79.559  0.00  0.00    +0.019 A 
ATOM     38  C   UNL     1      99.299 100.729  78.151  0.00  0.00    +0.120 A 
ATOM     39  N   UNL     1     100.128 101.322  77.204  0.00  0.00    -0.263 NA
ATOM     40  C   UNL     1     101.326 101.967  77.548  0.00  0.00    +0.111 A 
ENDBRANCH   4   3
ENDBRANCH  10   9
BRANCH  12  13
ATOM     13  N   UNL     1      92.843  95.169  82.168  0.00  0.00    -0.281 N 
ATOM     14  C   UNL     1      92.081  94.087  81.760  0.00  0.00    +0.248 C 
ATOM     30  O   UNL     1      92.540  93.058  81.287  0.00  0.00    -0.270 OA
ATOM     31  H   UNL     1      92.331  96.031  82.359  0.00  0.00    +0.155 HD
BRANCH  14  15
ATOM     15  C   UNL     1      90.593  94.164  81.882  0.00  0.00    +0.037 A 
ATOM     16  C   UNL     1      89.778  92.955  82.018  0.00  0.00    +0.013 A 
ATOM     17  C   UNL     1      88.343  93.057  82.116  0.00  0.00    +0.005 A 
ATOM     18  C   UNL     1      87.715  94.375  82.080  0.00  0.00    -0.033 A 
ATOM     28  C   UNL     1      88.548  95.559  81.949  0.00  0.00    +0.005 A 
ATOM     29  C   UNL     1      89.954  95.463  81.852  0.00  0.00    +0.013 A 
BRANCH  18  19
ATOM     19  C   UNL     1      86.190  94.577  82.157  0.00  0.00    +0.119 C 
BRANCH  19  20
ATOM     20  N   UNL     1      85.539  94.370  83.485  0.00  0.00    -0.302 NA
ATOM     21  C   UNL     1      84.666  93.112  83.508  0.00  0.00    +0.066 C 
ATOM     22  C   UNL     1      84.011  92.899  84.911  0.00  0.00    -0.064 C 
ATOM     23  N   UNL     1      83.190  94.135  85.281  0.00  0.00    +0.379 N 
ATOM     24  C   UNL     1      82.526  93.914  86.574  0.00  0.00    -0.096 C 
ATOM     25  H   UNL     1      82.395  94.257  84.509  0.00  0.00    -0.082 HD
ATOM     26  C   UNL     1      84.050  95.391  85.259  0.00  0.00    -0.064 C 
ATOM     27  C   UNL     1      84.720  95.578  83.869  0.00  0.00    +0.066 C 
ENDBRANCH  19  20
ENDBRANCH  18  19
ENDBRANCH  14  15
ENDBRANCH  12  13
TORSDOF 6
ENDMDL
MODEL 5
REMARK VINA RESULT:      -9.1      5.485      7.966
REMARK  Name = C:\Users\Docking\Desktop\test protocol\1iep_ligandH.pdb
REMARK  8 active torsions:
REMARK  status: ('A' for Active; 'I' for Inactive)
REMARK    1  A    between atoms: _5  and  _11
REMARK    2  A    between atoms: _19  and  _21
REMARK    3  A    between atoms: _22  and  _66
REMARK    4  A    between atoms: _27  and  _30
REMARK    5  A    between atoms: _32  and  _33
REMARK    6  A    between atoms: _38  and  _43
REMARK    7  A    between atoms: _43  and  _46
REMARK    8  A    between atoms: _53  and  _55
REMARK                            x       y       z     vdW  Elec       q    Type
REMARK                         _______ _______ _______ _____ _____    ______ ____
ROOT
ATOM     10  C   UNL     1      96.791  97.026  80.748  0.00  0.00    +0.038 A 
ATOM     11  C   UNL     1      96.237  97.595  79.573  0.00  0.00    +0.047 A 
ATOM     12  C   UNL     1      94.850  97.359  79.204  0.00  0.00    +0.035 A 
ATOM     32  C   UNL     1      94.054  96.540  80.056  0.00  0.00    +0.024 A 
ATOM     33  C   UNL     1      94.601  95.953  81.254  0.00  0.00    +0.007 A 
ATOM     34  C   UNL     1      95.969  96.180  81.622  0.00  0.00    -0.029 A 
ATOM     35  C   UNL     1      96.504  95.519  82.914  0.00  0.00    +0.045 C 
ENDROOT
BRANCH  10   9
ATOM      4  C   UNL     1     100.353 100.002  81.971  0.00  0.00    +0.077 A 
ATOM      5  C   UNL     1      99.480 101.140  81.973  0.00  0.00    +0.048 A 
ATOM      6  C   UNL     1      98.123 100.918  81.647  0.00  0.00    +0.116 A 
ATOM      7  N   UNL     1      97.683  99.648  81.344  0.00  0.00    -0.223 NA
ATOM      8  C   UNL     1      98.551  98.572  81.349  0.00  0.00    +0.220 A 
ATOM      9  N   UNL     1      98.129  97.285  81.054  0.00  0.00    -0.283 N 
ATOM     36  H   UNL     1      98.802  96.519  81.062  0.00  0.00    +0.155 HD
ATOM     37  N   UNL     1      99.852  98.758  81.655  0.00  0.00    -0.214 NA
BRANCH   4   3
ATOM      1  C   UNL     1     104.077 101.178  82.179  0.00  0.00    +0.020 A 
ATOM      2  C   UNL     1     102.674 101.154  81.835  0.00  0.00    +0.013 A 
ATOM      3  C   UNL     1     101.812 100.074  82.297  0.00  0.00    +0.019 A 
ATOM     38  C   UNL     1     102.405  99.025  83.113  0.00  0.00    +0.120 A 
ATOM     39  N   UNL     1     103.759  99.073  83.427  0.00  0.00    -0.263 NA
ATOM     40  C   UNL     1     104.600 100.107  82.986  0.00  0.00    +0.111 A 
ENDBRANCH   4   3
ENDBRANCH  10   9
BRANCH  12  13
ATOM     13  N   UNL     1      94.236  97.904  78.018  0.00  0.00    -0.281 N 
ATOM     14  C   UNL     1      94.369  97.465  76.711  0.00  0.00    +0.248 C 
ATOM     30  O   UNL     1      95.211  96.663  76.334  0.00  0.00    -0.270 OA
ATOM     31  H   UNL     1      93.629  98.711  78.160  0.00  0.00    +0.155 HD
BRANCH  14  15
ATOM     15  C   UNL     1      93.443  98.005  75.670  0.00  0.00    +0.037 A 
ATOM     16  C   UNL     1      93.038  97.194  74.519  0.00  0.00    +0.013 A 
ATOM     17  C   UNL     1      92.157  97.746  73.520  0.00  0.00    +0.005 A 
ATOM     18  C   UNL     1      91.673  99.116  73.669  0.00  0.00    -0.033 A 
ATOM     28  C   UNL     1      92.086  99.896  74.824  0.00  0.00    +0.005 A 
ATOM     29  C   UNL     1      92.951  99.359  75.805  0.00  0.00    +0.013 A 
BRANCH  18  19
ATOM     19  C   UNL     1      90.747  99.793  72.642  0.00  0.00    +0.119 C 
BRANCH  19  20
ATOM     20  N   UNL     1      91.365 100.250  71.361  0.00  0.00    -0.302 NA
ATOM     21  C   UNL     1      92.163  99.136  70.679  0.00  0.00    +0.066 C 
ATOM     22  C   UNL     1      92.784  99.625  69.330  0.00  0.00    -0.064 C 
ATOM     23  N   UNL     1      93.670 100.844  69.591  0.00  0.00    +0.379 N 
ATOM     24  C   UNL     1      94.301 101.271  68.334  0.00  0.00    -0.096 C 
ATOM     25  H   UNL     1      94.482 100.528  70.287  0.00  0.00    -0.082 HD
ATOM     26  C   UNL     1      92.885 101.955  70.273  0.00  0.00    -0.064 C 
ATOM     27  C   UNL     1      92.248 101.451  71.597  0.00  0.00    +0.066 C 
ENDBRANCH  19  20
ENDBRANCH  18  19
ENDBRANCH  14  15
ENDBRANCH  12  13
TORSDOF 6
ENDMDL
