MODEL 1
REMARK VINA RESULT:      -8.8      0.000      0.000
REMARK  Name = C:\Users\Docking\Desktop\test protocol\1iep_ligandH.pdb
REMARK  8 active torsions:
REMARK  status: ('A' for Active; 'I' for Inactive)
REMARK    1  A    between atoms: _5  and  _11
REMARK    2  A    between atoms: _19  and  _21
REMARK    3  A    between atoms: _22  and  _66
REMARK    4  A    between atoms: _27  and  _30
REMARK    5  A    between atoms: _32  and  _33
REMARK    6  A    between atoms: _38  and  _43
REMARK    7  A    between atoms: _43  and  _46
REMARK    8  A    between atoms: _53  and  _55
REMARK                            x       y       z     vdW  Elec       q    Type
REMARK                         _______ _______ _______ _____ _____    ______ ____
ROOT
ATOM     10  C   UNL     1      -0.860 -23.208  33.117  0.00  0.00    +0.038 A 
ATOM     11  C   UNL     1      -1.941 -23.616  32.294  0.00  0.00    +0.047 A 
ATOM     12  C   UNL     1      -2.238 -22.931  31.046  0.00  0.00    +0.035 A 
ATOM     32  C   UNL     1      -1.411 -21.835  30.664  0.00  0.00    +0.024 A 
ATOM     33  C   UNL     1      -0.309 -21.406  31.488  0.00  0.00    +0.007 A 
ATOM     34  C   UNL     1      -0.013 -22.076  32.722  0.00  0.00    -0.029 A 
ATOM     35  C   UNL     1       1.178 -21.569  33.569  0.00  0.00    +0.045 C 
ENDROOT
BRANCH  10   9
ATOM      4  C   UNL     1      -1.051 -23.609  37.896  0.00  0.00    +0.077 A 
ATOM      5  C   UNL     1      -1.655 -22.316  38.039  0.00  0.00    +0.048 A 
ATOM      6  C   UNL     1      -1.894 -21.576  36.859  0.00  0.00    +0.116 A 
ATOM      7  N   UNL     1      -1.550 -22.101  35.632  0.00  0.00    -0.223 NA
ATOM      8  C   UNL     1      -0.967 -23.351  35.529  0.00  0.00    +0.220 A 
ATOM      9  N   UNL     1      -0.620 -23.901  34.305  0.00  0.00    -0.283 N 
ATOM     36  H   UNL     1      -0.186 -24.823  34.271  0.00  0.00    +0.155 HD
ATOM     37  N   UNL     1      -0.728 -24.076  36.641  0.00  0.00    -0.214 NA
BRANCH   4   3
ATOM      1  C   UNL     1      -0.960 -25.215  41.461  0.00  0.00    +0.020 A 
ATOM      2  C   UNL     1      -1.292 -24.313  40.382  0.00  0.00    +0.013 A 
ATOM      3  C   UNL     1      -0.740 -24.512  39.049  0.00  0.00    +0.019 A 
ATOM     38  C   UNL     1       0.153 -25.642  38.838  0.00  0.00    +0.120 A 
ATOM     39  N   UNL     1       0.457 -26.492  39.896  0.00  0.00    -0.263 NA
ATOM     40  C   UNL     1      -0.068 -26.310  41.185  0.00  0.00    +0.111 A 
ENDBRANCH   4   3
ENDBRANCH  10   9
BRANCH  12  13
ATOM     13  N   UNL     1      -3.327 -23.296  30.174  0.00  0.00    -0.281 N 
ATOM     14  C   UNL     1      -3.328 -24.241  29.162  0.00  0.00    +0.248 C 
ATOM     30  O   UNL     1      -2.323 -24.770  28.710  0.00  0.00    -0.270 OA
ATOM     31  H   UNL     1      -4.204 -22.796  30.321  0.00  0.00    +0.155 HD
BRANCH  14  15
ATOM     15  C   UNL     1      -4.632 -24.648  28.555  0.00  0.00    +0.037 A 
ATOM     16  C   UNL     1      -4.940 -24.360  27.152  0.00  0.00    +0.013 A 
ATOM     17  C   UNL     1      -6.212 -24.748  26.597  0.00  0.00    +0.005 A 
ATOM     18  C   UNL     1      -7.185 -25.432  27.445  0.00  0.00    -0.033 A 
ATOM     28  C   UNL     1      -6.852 -25.710  28.832  0.00  0.00    +0.005 A 
ATOM     29  C   UNL     1      -5.606 -25.330  29.380  0.00  0.00    +0.013 A 
BRANCH  18  19
ATOM     19  C   UNL     1      -8.576 -25.864  26.942  0.00  0.00    +0.119 C 
BRANCH  19  20
ATOM     20  N   UNL     1      -9.619 -26.144  27.973  0.00  0.00    -0.302 NA
ATOM     21  C   UNL     1      -9.883 -27.644  28.130  0.00  0.00    +0.066 C 
ATOM     22  C   UNL     1     -10.961 -27.920  29.228  0.00  0.00    -0.064 C 
ATOM     23  N   UNL     1     -12.250 -27.178  28.872  0.00  0.00    +0.379 N 
ATOM     24  C   UNL     1     -13.284 -27.482  29.872  0.00  0.00    -0.096 C 
ATOM     25  H   UNL     1     -12.605 -27.568  27.889  0.00  0.00    -0.082 HD
ATOM     26  C   UNL     1     -11.996 -25.686  28.711  0.00  0.00    -0.064 C 
ATOM     27  C   UNL     1     -10.902 -25.424  27.639  0.00  0.00    +0.066 C 
ENDBRANCH  19  20
ENDBRANCH  18  19
ENDBRANCH  14  15
ENDBRANCH  12  13
TORSDOF 6
ENDMDL
MODEL 2
REMARK VINA RESULT:      -8.5      1.664      2.392
REMARK  Name = C:\Users\Docking\Desktop\test protocol\1iep_ligandH.pdb
REMARK  8 active torsions:
REMARK  status: ('A' for Active; 'I' for Inactive)
REMARK    1  A    between atoms: _5  and  _11
REMARK    2  A    between atoms: _19  and  _21
REMARK    3  A    between atoms: _22  and  _66
REMARK    4  A    between atoms: _27  and  _30
REMARK    5  A    between atoms: _32  and  _33
REMARK    6  A    between atoms: _38  and  _43
REMARK    7  A    between atoms: _43  and  _46
REMARK    8  A    between atoms: _53  and  _55
REMARK                            x       y       z     vdW  Elec       q    Type
REMARK                         _______ _______ _______ _____ _____    ______ ____
ROOT
ATOM     10  C   UNL     1      -0.772 -23.186  33.020  0.00  0.00    +0.038 A 
ATOM     11  C   UNL     1      -1.880 -23.598  32.236  0.00  0.00    +0.047 A 
ATOM     12  C   UNL     1      -2.238 -22.899  31.012  0.00  0.00    +0.035 A 
ATOM     32  C   UNL     1      -1.444 -21.784  30.614  0.00  0.00    +0.024 A 
ATOM     33  C   UNL     1      -0.315 -21.350  31.399  0.00  0.00    +0.007 A 
ATOM     34  C   UNL     1       0.041 -22.035  32.609  0.00  0.00    -0.029 A 
ATOM     35  C   UNL     1       1.258 -21.523  33.415  0.00  0.00    +0.045 C 
ENDROOT
BRANCH  10   9
ATOM      4  C   UNL     1      -0.865 -23.718  37.789  0.00  0.00    +0.077 A 
ATOM      5  C   UNL     1      -1.541 -22.467  37.975  0.00  0.00    +0.048 A 
ATOM      6  C   UNL     1      -1.841 -21.713  36.818  0.00  0.00    +0.116 A 
ATOM      7  N   UNL     1      -1.486 -22.186  35.573  0.00  0.00    -0.223 NA
ATOM      8  C   UNL     1      -0.833 -23.396  35.429  0.00  0.00    +0.220 A 
ATOM      9  N   UNL     1      -0.474 -23.894  34.186  0.00  0.00    -0.283 N 
ATOM     36  H   UNL     1       0.013 -24.788  34.122  0.00  0.00    +0.155 HD
ATOM     37  N   UNL     1      -0.534 -24.134  36.518  0.00  0.00    -0.214 NA
BRANCH   4   3
ATOM      1  C   UNL     1      -0.294 -25.201  41.363  0.00  0.00    +0.020 A 
ATOM      2  C   UNL     1      -0.680 -24.284  40.315  0.00  0.00    +0.013 A 
ATOM      3  C   UNL     1      -0.483 -24.630  38.913  0.00  0.00    +0.019 A 
ATOM     38  C   UNL     1       0.111 -25.922  38.603  0.00  0.00    +0.120 A 
ATOM     39  N   UNL     1       0.474 -26.784  39.633  0.00  0.00    -0.263 NA
ATOM     40  C   UNL     1       0.291 -26.461  40.986  0.00  0.00    +0.111 A 
ENDBRANCH   4   3
ENDBRANCH  10   9
BRANCH  12  13
ATOM     13  N   UNL     1      -3.356 -23.267  30.179  0.00  0.00    -0.281 N 
ATOM     14  C   UNL     1      -3.395 -24.224  29.179  0.00  0.00    +0.248 C 
ATOM     30  O   UNL     1      -2.408 -24.764  28.701  0.00  0.00    -0.270 OA
ATOM     31  H   UNL     1      -4.225 -22.760  30.348  0.00  0.00    +0.155 HD
BRANCH  14  15
ATOM     15  C   UNL     1      -4.719 -24.630  28.618  0.00  0.00    +0.037 A 
ATOM     16  C   UNL     1      -5.096 -24.298  27.242  0.00  0.00    +0.013 A 
ATOM     17  C   UNL     1      -6.387 -24.686  26.732  0.00  0.00    +0.005 A 
ATOM     18  C   UNL     1      -7.311 -25.414  27.599  0.00  0.00    -0.033 A 
ATOM     28  C   UNL     1      -6.909 -25.736  28.959  0.00  0.00    +0.005 A 
ATOM     29  C   UNL     1      -5.645 -25.356  29.463  0.00  0.00    +0.013 A 
BRANCH  18  19
ATOM     19  C   UNL     1      -8.716 -25.850  27.146  0.00  0.00    +0.119 C 
BRANCH  19  20
ATOM     20  N   UNL     1      -9.052 -25.680  25.701  0.00  0.00    -0.302 NA
ATOM     21  C   UNL     1      -9.980 -24.485  25.464  0.00  0.00    +0.066 C 
ATOM     22  C   UNL     1     -10.303 -24.307  23.944  0.00  0.00    -0.064 C 
ATOM     23  N   UNL     1     -10.929 -25.595  23.405  0.00  0.00    +0.379 N 
ATOM     24  C   UNL     1     -11.287 -25.411  21.991  0.00  0.00    -0.096 C 
ATOM     25  H   UNL     1     -11.872 -25.776  23.972  0.00  0.00    -0.082 HD
ATOM     26  C   UNL     1     -10.013 -26.788  23.639  0.00  0.00    -0.064 C 
ATOM     27  C   UNL     1      -9.675 -26.938  25.148  0.00  0.00    +0.066 C 
ENDBRANCH  19  20
ENDBRANCH  18  19
ENDBRANCH  14  15
ENDBRANCH  12  13
TORSDOF 6
ENDMDL
MODEL 3
REMARK VINA RESULT:      -8.4      1.529      2.097
REMARK  Name = C:\Users\Docking\Desktop\test protocol\1iep_ligandH.pdb
REMARK  8 active torsions:
REMARK  status: ('A' for Active; 'I' for Inactive)
REMARK    1  A    between atoms: _5  and  _11
REMARK    2  A    between atoms: _19  and  _21
REMARK    3  A    between atoms: _22  and  _66
REMARK    4  A    between atoms: _27  and  _30
REMARK    5  A    between atoms: _32  and  _33
REMARK    6  A    between atoms: _38  and  _43
REMARK    7  A    between atoms: _43  and  _46
REMARK    8  A    between atoms: _53  and  _55
REMARK                            x       y       z     vdW  Elec       q    Type
REMARK                         _______ _______ _______ _____ _____    ______ ____
ROOT
ATOM     10  C   UNL     1      -1.096 -22.885  33.135  0.00  0.00    +0.038 A 
ATOM     11  C   UNL     1      -2.245 -23.315  32.424  0.00  0.00    +0.047 A 
ATOM     12  C   UNL     1      -2.181 -23.620  31.003  0.00  0.00    +0.035 A 
ATOM     32  C   UNL     1      -0.928 -23.479  30.338  0.00  0.00    +0.024 A 
ATOM     33  C   UNL     1       0.250 -23.043  31.045  0.00  0.00    +0.007 A 
ATOM     34  C   UNL     1       0.192 -22.738  32.446  0.00  0.00    -0.029 A 
ATOM     35  C   UNL     1       1.486 -22.268  33.152  0.00  0.00    +0.045 C 
ENDROOT
BRANCH  10   9
ATOM      4  C   UNL     1      -0.687 -24.110  37.758  0.00  0.00    +0.077 A 
ATOM      5  C   UNL     1      -0.223 -25.427  37.429  0.00  0.00    +0.048 A 
ATOM      6  C   UNL     1      -0.111 -25.752  36.059  0.00  0.00    +0.116 A 
ATOM      7  N   UNL     1      -0.440 -24.821  35.097  0.00  0.00    -0.223 NA
ATOM      8  C   UNL     1      -0.885 -23.561  35.449  0.00  0.00    +0.220 A 
ATOM      9  N   UNL     1      -1.214 -22.606  34.498  0.00  0.00    -0.283 N 
ATOM     36  H   UNL     1      -1.546 -21.690  34.798  0.00  0.00    +0.155 HD
ATOM     37  N   UNL     1      -1.003 -23.226  36.750  0.00  0.00    -0.214 NA
BRANCH   4   3
ATOM      1  C   UNL     1      -1.705 -23.845  41.525  0.00  0.00    +0.020 A 
ATOM      2  C   UNL     1      -1.571 -24.367  40.185  0.00  0.00    +0.013 A 
ATOM      3  C   UNL     1      -0.856 -23.616  39.161  0.00  0.00    +0.019 A 
ATOM     38  C   UNL     1      -0.282 -22.331  39.530  0.00  0.00    +0.120 A 
ATOM     39  N   UNL     1      -0.428 -21.853  40.828  0.00  0.00    -0.263 NA
ATOM     40  C   UNL     1      -1.116 -22.566  41.821  0.00  0.00    +0.111 A 
ENDBRANCH   4   3
ENDBRANCH  10   9
BRANCH  12  13
ATOM     13  N   UNL     1      -3.317 -24.053  30.228  0.00  0.00    -0.281 N 
ATOM     14  C   UNL     1      -3.846 -25.329  30.131  0.00  0.00    +0.248 C 
ATOM     30  O   UNL     1      -3.289 -26.340  30.533  0.00  0.00    -0.270 OA
ATOM     31  H   UNL     1      -3.788 -23.330  29.683  0.00  0.00    +0.155 HD
BRANCH  14  15
ATOM     15  C   UNL     1      -5.180 -25.511  29.481  0.00  0.00    +0.037 A 
ATOM     16  C   UNL     1      -6.076 -26.600  29.876  0.00  0.00    +0.013 A 
ATOM     17  C   UNL     1      -7.349 -26.763  29.221  0.00  0.00    +0.005 A 
ATOM     18  C   UNL     1      -7.735 -25.832  28.164  0.00  0.00    -0.033 A 
ATOM     28  C   UNL     1      -6.830 -24.756  27.796  0.00  0.00    +0.005 A 
ATOM     29  C   UNL     1      -5.580 -24.594  28.435  0.00  0.00    +0.013 A 
BRANCH  18  19
ATOM     19  C   UNL     1      -9.066 -25.942  27.397  0.00  0.00    +0.119 C 
BRANCH  19  20
ATOM     20  N   UNL     1     -10.152 -26.752  28.025  0.00  0.00    -0.302 NA
ATOM     21  C   UNL     1     -10.779 -27.738  27.036  0.00  0.00    +0.066 C 
ATOM     22  C   UNL     1     -11.898 -28.593  27.715  0.00  0.00    -0.064 C 
ATOM     23  N   UNL     1     -12.962 -27.662  28.300  0.00  0.00    +0.379 N 
ATOM     24  C   UNL     1     -14.045 -28.464  28.889  0.00  0.00    -0.096 C 
ATOM     25  H   UNL     1     -13.396 -27.074  27.458  0.00  0.00    -0.082 HD
ATOM     26  C   UNL     1     -12.347 -26.676  29.283  0.00  0.00    -0.064 C 
ATOM     27  C   UNL     1     -11.216 -25.853  28.605  0.00  0.00    +0.066 C 
ENDBRANCH  19  20
ENDBRANCH  18  19
ENDBRANCH  14  15
ENDBRANCH  12  13
TORSDOF 6
ENDMDL
MODEL 4
REMARK VINA RESULT:      -8.3      5.444     13.974
REMARK  Name = C:\Users\Docking\Desktop\test protocol\1iep_ligandH.pdb
REMARK  8 active torsions:
REMARK  status: ('A' for Active; 'I' for Inactive)
REMARK    1  A    between atoms: _5  and  _11
REMARK    2  A    between atoms: _19  and  _21
REMARK    3  A    between atoms: _22  and  _66
REMARK    4  A    between atoms: _27  and  _30
REMARK    5  A    between atoms: _32  and  _33
REMARK    6  A    between atoms: _38  and  _43
REMARK    7  A    between atoms: _43  and  _46
REMARK    8  A    between atoms: _53  and  _55
REMARK                            x       y       z     vdW  Elec       q    Type
REMARK                         _______ _______ _______ _____ _____    ______ ____
ROOT
ATOM     10  C   UNL     1      -7.801 -25.660  27.937  0.00  0.00    +0.038 A 
ATOM     11  C   UNL     1      -6.412 -25.373  27.898  0.00  0.00    +0.047 A 
ATOM     12  C   UNL     1      -5.504 -25.907  28.901  0.00  0.00    +0.035 A 
ATOM     32  C   UNL     1      -6.045 -26.733  29.929  0.00  0.00    +0.024 A 
ATOM     33  C   UNL     1      -7.454 -27.034  29.985  0.00  0.00    +0.007 A 
ATOM     34  C   UNL     1      -8.354 -26.508  29.000  0.00  0.00    -0.029 A 
ATOM     35  C   UNL     1      -9.856 -26.859  29.112  0.00  0.00    +0.045 C 
ENDROOT
BRANCH  10   9
ATOM      4  C   UNL     1     -10.176 -25.963  23.777  0.00  0.00    +0.077 A 
ATOM      5  C   UNL     1      -9.711 -27.300  23.541  0.00  0.00    +0.048 A 
ATOM      6  C   UNL     1      -8.857 -27.870  24.511  0.00  0.00    +0.116 A 
ATOM      7  N   UNL     1      -8.501 -27.149  25.630  0.00  0.00    -0.223 NA
ATOM      8  C   UNL     1      -8.965 -25.862  25.826  0.00  0.00    +0.220 A 
ATOM      9  N   UNL     1      -8.626 -25.121  26.948  0.00  0.00    -0.283 N 
ATOM     36  H   UNL     1      -8.984 -24.172  27.052  0.00  0.00    +0.155 HD
ATOM     37  N   UNL     1      -9.781 -25.294  24.914  0.00  0.00    -0.214 NA
BRANCH   4   3
ATOM      1  C   UNL     1     -13.178 -25.035  21.448  0.00  0.00    +0.020 A 
ATOM      2  C   UNL     1     -12.334 -25.790  22.345  0.00  0.00    +0.013 A 
ATOM      3  C   UNL     1     -11.087 -25.225  22.846  0.00  0.00    +0.019 A 
ATOM     38  C   UNL     1     -10.722 -23.883  22.419  0.00  0.00    +0.120 A 
ATOM     39  N   UNL     1     -11.554 -23.181  21.553  0.00  0.00    -0.263 NA
ATOM     40  C   UNL     1     -12.755 -23.714  21.062  0.00  0.00    +0.111 A 
ENDBRANCH   4   3
ENDBRANCH  10   9
BRANCH  12  13
ATOM     13  N   UNL     1      -4.087 -25.644  28.917  0.00  0.00    -0.281 N 
ATOM     14  C   UNL     1      -3.446 -24.449  29.204  0.00  0.00    +0.248 C 
ATOM     30  O   UNL     1      -4.006 -23.366  29.283  0.00  0.00    -0.270 OA
ATOM     31  H   UNL     1      -3.483 -26.433  28.689  0.00  0.00    +0.155 HD
BRANCH  14  15
ATOM     15  C   UNL     1      -1.967 -24.457  29.420  0.00  0.00    +0.037 A 
ATOM     16  C   UNL     1      -1.102 -25.409  28.719  0.00  0.00    +0.013 A 
ATOM     17  C   UNL     1       0.320 -25.407  28.959  0.00  0.00    +0.005 A 
ATOM     18  C   UNL     1       0.885 -24.447  29.905  0.00  0.00    -0.033 A 
ATOM     28  C   UNL     1       0.003 -23.511  30.583  0.00  0.00    +0.005 A 
ATOM     29  C   UNL     1      -1.390 -23.511  30.351  0.00  0.00    +0.013 A 
BRANCH  18  19
ATOM     19  C   UNL     1       2.387 -24.387  30.238  0.00  0.00    +0.119 C 
BRANCH  19  20
ATOM     20  N   UNL     1       3.283 -23.727  29.242  0.00  0.00    -0.302 NA
ATOM     21  C   UNL     1       3.774 -24.707  28.173  0.00  0.00    +0.066 C 
ATOM     22  C   UNL     1       4.692 -23.995  27.127  0.00  0.00    -0.064 C 
ATOM     23  N   UNL     1       5.873 -23.343  27.848  0.00  0.00    +0.379 N 
ATOM     24  C   UNL     1       6.768 -22.722  26.861  0.00  0.00    -0.096 C 
ATOM     25  H   UNL     1       6.443 -24.152  28.361  0.00  0.00    -0.082 HD
ATOM     26  C   UNL     1       5.393 -22.369  28.914  0.00  0.00    -0.064 C 
ATOM     27  C   UNL     1       4.458 -23.080  29.932  0.00  0.00    +0.066 C 
ENDBRANCH  19  20
ENDBRANCH  18  19
ENDBRANCH  14  15
ENDBRANCH  12  13
TORSDOF 6
ENDMDL
MODEL 5
REMARK VINA RESULT:      -8.1      2.062      2.920
REMARK  Name = C:\Users\Docking\Desktop\test protocol\1iep_ligandH.pdb
REMARK  8 active torsions:
REMARK  status: ('A' for Active; 'I' for Inactive)
REMARK    1  A    between atoms: _5  and  _11
REMARK    2  A    between atoms: _19  and  _21
REMARK    3  A    between atoms: _22  and  _66
REMARK    4  A    between atoms: _27  and  _30
REMARK    5  A    between atoms: _32  and  _33
REMARK    6  A    between atoms: _38  and  _43
REMARK    7  A    between atoms: _43  and  _46
REMARK    8  A    between atoms: _53  and  _55
REMARK                            x       y       z     vdW  Elec       q    Type
REMARK                         _______ _______ _______ _____ _____    ______ ____
ROOT
ATOM     10  C   UNL     1      -0.898 -23.024  33.087  0.00  0.00    +0.038 A 
ATOM     11  C   UNL     1      -2.063 -23.437  32.392  0.00  0.00    +0.047 A 
ATOM     12  C   UNL     1      -2.031 -23.710  30.963  0.00  0.00    +0.035 A 
ATOM     32  C   UNL     1      -0.793 -23.555  30.274  0.00  0.00    +0.024 A 
ATOM     33  C   UNL     1       0.401 -23.135  30.965  0.00  0.00    +0.007 A 
ATOM     34  C   UNL     1       0.374 -22.862  32.373  0.00  0.00    -0.029 A 
ATOM     35  C   UNL     1       1.683 -22.409  33.061  0.00  0.00    +0.045 C 
ENDROOT
BRANCH  10   9
ATOM      4  C   UNL     1      -0.469 -24.382  37.670  0.00  0.00    +0.077 A 
ATOM      5  C   UNL     1      -0.060 -25.707  37.301  0.00  0.00    +0.048 A 
ATOM      6  C   UNL     1       0.021 -26.000  35.922  0.00  0.00    +0.116 A 
ATOM      7  N   UNL     1      -0.287 -25.033  34.989  0.00  0.00    -0.223 NA
ATOM      8  C   UNL     1      -0.680 -23.766  35.379  0.00  0.00    +0.220 A 
ATOM      9  N   UNL     1      -0.987 -22.776  34.458  0.00  0.00    -0.283 N 
ATOM     36  H   UNL     1      -1.280 -21.856  34.786  0.00  0.00    +0.155 HD
ATOM     37  N   UNL     1      -0.766 -23.461  36.690  0.00  0.00    -0.214 NA
BRANCH   4   3
ATOM      1  C   UNL     1       0.371 -23.217  41.309  0.00  0.00    +0.020 A 
ATOM      2  C   UNL     1       0.551 -23.664  39.947  0.00  0.00    +0.013 A 
ATOM      3  C   UNL     1      -0.599 -23.919  39.088  0.00  0.00    +0.019 A 
ATOM     38  C   UNL     1      -1.928 -23.709  39.642  0.00  0.00    +0.120 A 
ATOM     39  N   UNL     1      -2.071 -23.279  40.958  0.00  0.00    -0.263 NA
ATOM     40  C   UNL     1      -0.972 -23.032  41.794  0.00  0.00    +0.111 A 
ENDBRANCH   4   3
ENDBRANCH  10   9
BRANCH  12  13
ATOM     13  N   UNL     1      -3.184 -24.124  30.203  0.00  0.00    -0.281 N 
ATOM     14  C   UNL     1      -3.791 -25.369  30.187  0.00  0.00    +0.248 C 
ATOM     30  O   UNL     1      -3.303 -26.382  30.666  0.00  0.00    -0.270 OA
ATOM     31  H   UNL     1      -3.603 -23.413  29.603  0.00  0.00    +0.155 HD
BRANCH  14  15
ATOM     15  C   UNL     1      -5.127 -25.512  29.532  0.00  0.00    +0.037 A 
ATOM     16  C   UNL     1      -5.578 -24.564  28.510  0.00  0.00    +0.013 A 
ATOM     17  C   UNL     1      -6.878 -24.716  27.906  0.00  0.00    +0.005 A 
ATOM     18  C   UNL     1      -7.737 -25.822  28.323  0.00  0.00    -0.033 A 
ATOM     28  C   UNL     1      -7.262 -26.751  29.335  0.00  0.00    +0.005 A 
ATOM     29  C   UNL     1      -5.989 -26.605  29.930  0.00  0.00    +0.013 A 
BRANCH  18  19
ATOM     19  C   UNL     1      -9.147 -26.048  27.748  0.00  0.00    +0.119 C 
BRANCH  19  20
ATOM     20  N   UNL     1      -9.329 -25.840  26.280  0.00  0.00    -0.302 NA
ATOM     21  C   UNL     1     -10.013 -24.506  25.969  0.00  0.00    +0.066 C 
ATOM     22  C   UNL     1     -10.174 -24.296  24.428  0.00  0.00    -0.064 C 
ATOM     23  N   UNL     1     -10.968 -25.462  23.837  0.00  0.00    +0.379 N 
ATOM     24  C   UNL     1     -11.172 -25.238  22.398  0.00  0.00    -0.096 C 
ATOM     25  H   UNL     1     -11.971 -25.469  24.324  0.00  0.00    -0.082 HD
ATOM     26  C   UNL     1     -10.296 -26.793  24.144  0.00  0.00    -0.064 C 
ATOM     27  C   UNL     1     -10.114 -26.979  25.677  0.00  0.00    +0.066 C 
ENDBRANCH  19  20
ENDBRANCH  18  19
ENDBRANCH  14  15
ENDBRANCH  12  13
TORSDOF 6
ENDMDL
