MODEL 1
REMARK VINA RESULT:      -9.6      0.000      0.000
REMARK  Name = C:\Users\Docking\Desktop\test protocol\1iep_ligandH.pdb
REMARK  8 active torsions:
REMARK  status: ('A' for Active; 'I' for Inactive)
REMARK    1  A    between atoms: _5  and  _11
REMARK    2  A    between atoms: _19  and  _21
REMARK    3  A    between atoms: _22  and  _66
REMARK    4  A    between atoms: _27  and  _30
REMARK    5  A    between atoms: _32  and  _33
REMARK    6  A    between atoms: _38  and  _43
REMARK    7  A    between atoms: _43  and  _46
REMARK    8  A    between atoms: _53  and  _55
REMARK                            x       y       z     vdW  Elec       q    Type
REMARK                         _______ _______ _______ _____ _____    ______ ____
ROOT
ATOM     10  C   UNL     1      74.795  44.366  21.828  0.00  0.00    +0.038 A 
ATOM     11  C   UNL     1      74.220  43.135  21.420  0.00  0.00    +0.047 A 
ATOM     12  C   UNL     1      73.468  42.310  22.353  0.00  0.00    +0.035 A 
ATOM     32  C   UNL     1      73.320  42.771  23.694  0.00  0.00    +0.024 A 
ATOM     33  C   UNL     1      73.899  44.019  24.126  0.00  0.00    +0.007 A 
ATOM     34  C   UNL     1      74.644  44.835  23.210  0.00  0.00    -0.029 A 
ATOM     35  C   UNL     1      75.248  46.161  23.729  0.00  0.00    +0.045 C 
ENDROOT
BRANCH  10   9
ATOM      4  C   UNL     1      78.875  45.652  19.650  0.00  0.00    +0.077 A 
ATOM      5  C   UNL     1      79.658  44.771  20.468  0.00  0.00    +0.048 A 
ATOM      6  C   UNL     1      78.974  44.010  21.442  0.00  0.00    +0.116 A 
ATOM      7  N   UNL     1      77.608  44.128  21.579  0.00  0.00    -0.223 NA
ATOM      8  C   UNL     1      76.883  44.988  20.775  0.00  0.00    +0.220 A 
ATOM      9  N   UNL     1      75.507  45.117  20.890  0.00  0.00    -0.283 N 
ATOM     36  H   UNL     1      75.009  45.768  20.283  0.00  0.00    +0.155 HD
ATOM     37  N   UNL     1      77.513  45.727  19.838  0.00  0.00    -0.214 NA
BRANCH   4   3
ATOM      1  C   UNL     1      79.251  48.238  16.740  0.00  0.00    +0.020 A 
ATOM      2  C   UNL     1      78.644  47.422  17.766  0.00  0.00    +0.013 A 
ATOM      3  C   UNL     1      79.452  46.519  18.575  0.00  0.00    +0.019 A 
ATOM     38  C   UNL     1      80.884  46.466  18.320  0.00  0.00    +0.120 A 
ATOM     39  N   UNL     1      81.441  47.263  17.324  0.00  0.00    -0.263 NA
ATOM     40  C   UNL     1      80.673  48.134  16.538  0.00  0.00    +0.111 A 
ENDBRANCH   4   3
ENDBRANCH  10   9
BRANCH  12  13
ATOM     13  N   UNL     1      72.868  41.048  21.999  0.00  0.00    -0.281 N 
ATOM     14  C   UNL     1      71.791  40.824  21.157  0.00  0.00    +0.248 C 
ATOM     30  O   UNL     1      71.042  41.697  20.745  0.00  0.00    -0.270 OA
ATOM     31  H   UNL     1      73.288  40.220  22.420  0.00  0.00    +0.155 HD
BRANCH  14  15
ATOM     15  C   UNL     1      71.495  39.425  20.720  0.00  0.00    +0.037 A 
ATOM     16  C   UNL     1      71.518  39.050  19.304  0.00  0.00    +0.013 A 
ATOM     17  C   UNL     1      71.212  37.698  18.909  0.00  0.00    +0.005 A 
ATOM     18  C   UNL     1      70.882  36.710  19.933  0.00  0.00    -0.033 A 
ATOM     28  C   UNL     1      70.871  37.108  21.331  0.00  0.00    +0.005 A 
ATOM     29  C   UNL     1      71.170  38.432  21.722  0.00  0.00    +0.013 A 
BRANCH  18  19
ATOM     19  C   UNL     1      70.522  35.250  19.601  0.00  0.00    +0.119 C 
BRANCH  19  20
ATOM     20  N   UNL     1      69.125  34.976  19.149  0.00  0.00    -0.302 NA
ATOM     21  C   UNL     1      68.106  35.878  19.852  0.00  0.00    +0.066 C 
ATOM     22  C   UNL     1      66.653  35.593  19.351  0.00  0.00    -0.064 C 
ATOM     23  N   UNL     1      66.318  34.118  19.577  0.00  0.00    +0.379 N 
ATOM     24  C   UNL     1      64.932  33.860  19.161  0.00  0.00    -0.096 C 
ATOM     25  H   UNL     1      66.384  33.921  20.673  0.00  0.00    -0.082 HD
ATOM     26  C   UNL     1      67.327  33.214  18.884  0.00  0.00    -0.064 C 
ATOM     27  C   UNL     1      68.771  33.525  19.368  0.00  0.00    +0.066 C 
ENDBRANCH  19  20
ENDBRANCH  18  19
ENDBRANCH  14  15
ENDBRANCH  12  13
TORSDOF 6
ENDMDL
MODEL 2
REMARK VINA RESULT:      -8.8      2.498     12.951
REMARK  Name = C:\Users\Docking\Desktop\test protocol\1iep_ligandH.pdb
REMARK  8 active torsions:
REMARK  status: ('A' for Active; 'I' for Inactive)
REMARK    1  A    between atoms: _5  and  _11
REMARK    2  A    between atoms: _19  and  _21
REMARK    3  A    between atoms: _22  and  _66
REMARK    4  A    between atoms: _27  and  _30
REMARK    5  A    between atoms: _32  and  _33
REMARK    6  A    between atoms: _38  and  _43
REMARK    7  A    between atoms: _43  and  _46
REMARK    8  A    between atoms: _53  and  _55
REMARK                            x       y       z     vdW  Elec       q    Type
REMARK                         _______ _______ _______ _____ _____    ______ ____
ROOT
ATOM     10  C   UNL     1      74.950  43.722  22.929  0.00  0.00    +0.038 A 
ATOM     11  C   UNL     1      75.928  44.075  21.965  0.00  0.00    +0.047 A 
ATOM     12  C   UNL     1      76.651  45.334  22.052  0.00  0.00    +0.035 A 
ATOM     32  C   UNL     1      76.353  46.210  23.137  0.00  0.00    +0.024 A 
ATOM     33  C   UNL     1      75.361  45.867  24.126  0.00  0.00    +0.007 A 
ATOM     34  C   UNL     1      74.644  44.627  24.043  0.00  0.00    -0.029 A 
ATOM     35  C   UNL     1      73.586  44.314  25.128  0.00  0.00    +0.045 C 
ENDROOT
BRANCH  10   9
ATOM      4  C   UNL     1      72.164  40.660  20.500  0.00  0.00    +0.077 A 
ATOM      5  C   UNL     1      71.994  41.583  19.415  0.00  0.00    +0.048 A 
ATOM      6  C   UNL     1      72.634  42.838  19.524  0.00  0.00    +0.116 A 
ATOM      7  N   UNL     1      73.386  43.136  20.640  0.00  0.00    -0.223 NA
ATOM      8  C   UNL     1      73.528  42.224  21.669  0.00  0.00    +0.220 A 
ATOM      9  N   UNL     1      74.286  42.500  22.797  0.00  0.00    -0.283 N 
ATOM     36  H   UNL     1      74.361  41.803  23.537  0.00  0.00    +0.155 HD
ATOM     37  N   UNL     1      72.926  41.019  21.589  0.00  0.00    -0.214 NA
BRANCH   4   3
ATOM      1  C   UNL     1      70.462  37.357  21.725  0.00  0.00    +0.020 A 
ATOM      2  C   UNL     1      71.044  38.680  21.750  0.00  0.00    +0.013 A 
ATOM      3  C   UNL     1      71.553  39.293  20.530  0.00  0.00    +0.019 A 
ATOM     38  C   UNL     1      71.458  38.536  19.291  0.00  0.00    +0.120 A 
ATOM     39  N   UNL     1      70.895  37.264  19.297  0.00  0.00    -0.263 NA
ATOM     40  C   UNL     1      70.403  36.663  20.465  0.00  0.00    +0.111 A 
ENDBRANCH   4   3
ENDBRANCH  10   9
BRANCH  12  13
ATOM     13  N   UNL     1      77.648  45.750  21.098  0.00  0.00    -0.281 N 
ATOM     14  C   UNL     1      77.638  45.576  19.724  0.00  0.00    +0.248 C 
ATOM     30  O   UNL     1      76.865  44.842  19.127  0.00  0.00    -0.270 OA
ATOM     31  H   UNL     1      78.461  46.232  21.483  0.00  0.00    +0.155 HD
BRANCH  14  15
ATOM     15  C   UNL     1      78.641  46.311  18.895  0.00  0.00    +0.037 A 
ATOM     16  C   UNL     1      78.233  47.382  17.982  0.00  0.00    +0.013 A 
ATOM     17  C   UNL     1      79.218  48.064  17.181  0.00  0.00    +0.005 A 
ATOM     18  C   UNL     1      80.623  47.678  17.292  0.00  0.00    -0.033 A 
ATOM     28  C   UNL     1      81.001  46.616  18.209  0.00  0.00    +0.005 A 
ATOM     29  C   UNL     1      80.037  45.944  18.995  0.00  0.00    +0.013 A 
BRANCH  18  19
ATOM     19  C   UNL     1      81.739  48.337  16.460  0.00  0.00    +0.119 C 
BRANCH  19  20
ATOM     20  N   UNL     1      82.761  47.434  15.850  0.00  0.00    -0.302 NA
ATOM     21  C   UNL     1      84.017  47.319  16.718  0.00  0.00    +0.066 C 
ATOM     22  C   UNL     1      85.066  46.354  16.076  0.00  0.00    -0.064 C 
ATOM     23  N   UNL     1      85.420  46.850  14.673  0.00  0.00    +0.379 N 
ATOM     24  C   UNL     1      86.449  45.978  14.089  0.00  0.00    -0.096 C 
ATOM     25  H   UNL     1      85.860  47.870  14.776  0.00  0.00    -0.082 HD
ATOM     26  C   UNL     1      84.176  46.970  13.804  0.00  0.00    -0.064 C 
ATOM     27  C   UNL     1      83.128  47.908  14.465  0.00  0.00    +0.066 C 
ENDBRANCH  19  20
ENDBRANCH  18  19
ENDBRANCH  14  15
ENDBRANCH  12  13
TORSDOF 6
ENDMDL
MODEL 3
REMARK VINA RESULT:      -8.6      5.971     14.429
REMARK  Name = C:\Users\Docking\Desktop\test protocol\1iep_ligandH.pdb
REMARK  8 active torsions:
REMARK  status: ('A' for Active; 'I' for Inactive)
REMARK    1  A    between atoms: _5  and  _11
REMARK    2  A    between atoms: _19  and  _21
REMARK    3  A    between atoms: _22  and  _66
REMARK    4  A    between atoms: _27  and  _30
REMARK    5  A    between atoms: _32  and  _33
REMARK    6  A    between atoms: _38  and  _43
REMARK    7  A    between atoms: _43  and  _46
REMARK    8  A    between atoms: _53  and  _55
REMARK                            x       y       z     vdW  Elec       q    Type
REMARK                         _______ _______ _______ _____ _____    ______ ____
ROOT
ATOM     10  C   UNL     1      79.553  48.111  18.163  0.00  0.00    +0.038 A 
ATOM     11  C   UNL     1      80.320  47.740  17.029  0.00  0.00    +0.047 A 
ATOM     12  C   UNL     1      81.513  48.482  16.651  0.00  0.00    +0.035 A 
ATOM     32  C   UNL     1      81.898  49.596  17.453  0.00  0.00    +0.024 A 
ATOM     33  C   UNL     1      81.129  49.988  18.608  0.00  0.00    +0.007 A 
ATOM     34  C   UNL     1      79.950  49.261  18.984  0.00  0.00    -0.029 A 
ATOM     35  C   UNL     1      79.161  49.731  20.229  0.00  0.00    +0.045 C 
ENDROOT
BRANCH  10   9
ATOM      4  C   UNL     1      77.418  44.255  20.061  0.00  0.00    +0.077 A 
ATOM      5  C   UNL     1      78.673  43.668  20.430  0.00  0.00    +0.048 A 
ATOM      6  C   UNL     1      79.846  44.387  20.106  0.00  0.00    +0.116 A 
ATOM      7  N   UNL     1      79.757  45.602  19.463  0.00  0.00    -0.223 NA
ATOM      8  C   UNL     1      78.530  46.139  19.120  0.00  0.00    +0.220 A 
ATOM      9  N   UNL     1      78.417  47.364  18.479  0.00  0.00    -0.283 N 
ATOM     36  H   UNL     1      77.494  47.722  18.236  0.00  0.00    +0.155 HD
ATOM     37  N   UNL     1      77.396  45.472  19.416  0.00  0.00    -0.214 NA
BRANCH   4   3
ATOM      1  C   UNL     1      74.651  41.713  21.150  0.00  0.00    +0.020 A 
ATOM      2  C   UNL     1      75.956  42.282  20.902  0.00  0.00    +0.013 A 
ATOM      3  C   UNL     1      76.091  43.619  20.338  0.00  0.00    +0.019 A 
ATOM     38  C   UNL     1      74.876  44.360  20.034  0.00  0.00    +0.120 A 
ATOM     39  N   UNL     1      73.633  43.786  20.282  0.00  0.00    -0.263 NA
ATOM     40  C   UNL     1      73.491  42.500  20.824  0.00  0.00    +0.111 A 
ENDBRANCH   4   3
ENDBRANCH  10   9
BRANCH  12  13
ATOM     13  N   UNL     1      82.327  48.156  15.506  0.00  0.00    -0.281 N 
ATOM     14  C   UNL     1      83.089  47.019  15.299  0.00  0.00    +0.248 C 
ATOM     30  O   UNL     1      83.358  46.199  16.165  0.00  0.00    -0.270 OA
ATOM     31  H   UNL     1      82.342  48.849  14.757  0.00  0.00    +0.155 HD
BRANCH  14  15
ATOM     15  C   UNL     1      83.646  46.761  13.936  0.00  0.00    +0.037 A 
ATOM     16  C   UNL     1      84.295  47.825  13.167  0.00  0.00    +0.013 A 
ATOM     17  C   UNL     1      84.809  47.554  11.847  0.00  0.00    +0.005 A 
ATOM     18  C   UNL     1      84.676  46.210  11.290  0.00  0.00    -0.033 A 
ATOM     28  C   UNL     1      84.033  45.172  12.077  0.00  0.00    +0.005 A 
ATOM     29  C   UNL     1      83.528  45.434  13.370  0.00  0.00    +0.013 A 
BRANCH  18  19
ATOM     19  C   UNL     1      85.176  45.836   9.882  0.00  0.00    +0.119 C 
BRANCH  19  20
ATOM     20  N   UNL     1      84.160  45.777   8.789  0.00  0.00    -0.302 NA
ATOM     21  C   UNL     1      84.260  44.480   7.981  0.00  0.00    +0.066 C 
ATOM     22  C   UNL     1      83.176  44.425   6.856  0.00  0.00    -0.064 C 
ATOM     23  N   UNL     1      83.328  45.644   5.945  0.00  0.00    +0.379 N 
ATOM     24  C   UNL     1      82.347  45.566   4.852  0.00  0.00    -0.096 C 
ATOM     25  H   UNL     1      84.345  45.601   5.490  0.00  0.00    -0.082 HD
ATOM     26  C   UNL     1      83.233  46.938   6.740  0.00  0.00    -0.064 C 
ATOM     27  C   UNL     1      84.296  46.970   7.874  0.00  0.00    +0.066 C 
ENDBRANCH  19  20
ENDBRANCH  18  19
ENDBRANCH  14  15
ENDBRANCH  12  13
TORSDOF 6
ENDMDL
MODEL 4
REMARK VINA RESULT:      -8.5      2.685     13.741
REMARK  Name = C:\Users\Docking\Desktop\test protocol\1iep_ligandH.pdb
REMARK  8 active torsions:
REMARK  status: ('A' for Active; 'I' for Inactive)
REMARK    1  A    between atoms: _5  and  _11
REMARK    2  A    between atoms: _19  and  _21
REMARK    3  A    between atoms: _22  and  _66
REMARK    4  A    between atoms: _27  and  _30
REMARK    5  A    between atoms: _32  and  _33
REMARK    6  A    between atoms: _38  and  _43
REMARK    7  A    between atoms: _43  and  _46
REMARK    8  A    between atoms: _53  and  _55
REMARK                            x       y       z     vdW  Elec       q    Type
REMARK                         _______ _______ _______ _____ _____    ______ ____
ROOT
ATOM     10  C   UNL     1      75.003  42.944  22.392  0.00  0.00    +0.038 A 
ATOM     11  C   UNL     1      76.053  43.345  21.527  0.00  0.00    +0.047 A 
ATOM     12  C   UNL     1      76.679  44.652  21.658  0.00  0.00    +0.035 A 
ATOM     32  C   UNL     1      76.211  45.525  22.683  0.00  0.00    +0.024 A 
ATOM     33  C   UNL     1      75.144  45.134  23.571  0.00  0.00    +0.007 A 
ATOM     34  C   UNL     1      74.521  43.847  23.444  0.00  0.00    -0.029 A 
ATOM     35  C   UNL     1      73.377  43.484  24.419  0.00  0.00    +0.045 C 
ENDROOT
BRANCH  10   9
ATOM      4  C   UNL     1      71.552  40.033  20.762  0.00  0.00    +0.077 A 
ATOM      5  C   UNL     1      70.797  41.130  20.229  0.00  0.00    +0.048 A 
ATOM      6  C   UNL     1      71.327  42.428  20.401  0.00  0.00    +0.116 A 
ATOM      7  N   UNL     1      72.525  42.604  21.059  0.00  0.00    -0.223 NA
ATOM      8  C   UNL     1      73.228  41.525  21.563  0.00  0.00    +0.220 A 
ATOM      9  N   UNL     1      74.438  41.678  22.221  0.00  0.00    -0.283 N 
ATOM     36  H   UNL     1      74.922  40.857  22.584  0.00  0.00    +0.155 HD
ATOM     37  N   UNL     1      72.741  40.275  21.412  0.00  0.00    -0.214 NA
BRANCH   4   3
ATOM      1  C   UNL     1      70.724  36.478  19.356  0.00  0.00    +0.020 A 
ATOM      2  C   UNL     1      71.147  37.859  19.403  0.00  0.00    +0.013 A 
ATOM      3  C   UNL     1      71.124  38.602  20.657  0.00  0.00    +0.019 A 
ATOM     38  C   UNL     1      70.665  37.914  21.853  0.00  0.00    +0.120 A 
ATOM     39  N   UNL     1      70.262  36.584  21.777  0.00  0.00    -0.263 NA
ATOM     40  C   UNL     1      70.278  35.859  20.576  0.00  0.00    +0.111 A 
ENDBRANCH   4   3
ENDBRANCH  10   9
BRANCH  12  13
ATOM     13  N   UNL     1      77.743  45.117  20.804  0.00  0.00    -0.281 N 
ATOM     14  C   UNL     1      77.675  45.443  19.459  0.00  0.00    +0.248 C 
ATOM     30  O   UNL     1      76.730  45.180  18.731  0.00  0.00    -0.270 OA
ATOM     31  H   UNL     1      78.658  45.217  21.244  0.00  0.00    +0.155 HD
BRANCH  14  15
ATOM     15  C   UNL     1      78.830  46.152  18.829  0.00  0.00    +0.037 A 
ATOM     16  C   UNL     1      80.209  45.870  19.237  0.00  0.00    +0.013 A 
ATOM     17  C   UNL     1      81.304  46.581  18.625  0.00  0.00    +0.005 A 
ATOM     18  C   UNL     1      81.024  47.580  17.597  0.00  0.00    -0.033 A 
ATOM     28  C   UNL     1      79.647  47.836  17.208  0.00  0.00    +0.005 A 
ATOM     29  C   UNL     1      78.571  47.143  17.806  0.00  0.00    +0.013 A 
BRANCH  18  19
ATOM     19  C   UNL     1      82.128  48.401  16.906  0.00  0.00    +0.119 C 
BRANCH  19  20
ATOM     20  N   UNL     1      83.126  49.082  17.784  0.00  0.00    -0.302 NA
ATOM     21  C   UNL     1      82.818  50.572  17.956  0.00  0.00    +0.066 C 
ATOM     22  C   UNL     1      83.858  51.264  18.896  0.00  0.00    -0.064 C 
ATOM     23  N   UNL     1      85.265  51.063  18.330  0.00  0.00    +0.379 N 
ATOM     24  C   UNL     1      86.240  51.762  19.180  0.00  0.00    -0.096 C 
ATOM     25  H   UNL     1      85.294  51.538  17.321  0.00  0.00    -0.082 HD
ATOM     26  C   UNL     1      85.579  49.584  18.153  0.00  0.00    -0.064 C 
ATOM     27  C   UNL     1      84.522  48.900  17.242  0.00  0.00    +0.066 C 
ENDBRANCH  19  20
ENDBRANCH  18  19
ENDBRANCH  14  15
ENDBRANCH  12  13
TORSDOF 6
ENDMDL
MODEL 5
REMARK VINA RESULT:      -8.2      3.698      6.641
REMARK  Name = C:\Users\Docking\Desktop\test protocol\1iep_ligandH.pdb
REMARK  8 active torsions:
REMARK  status: ('A' for Active; 'I' for Inactive)
REMARK    1  A    between atoms: _5  and  _11
REMARK    2  A    between atoms: _19  and  _21
REMARK    3  A    between atoms: _22  and  _66
REMARK    4  A    between atoms: _27  and  _30
REMARK    5  A    between atoms: _32  and  _33
REMARK    6  A    between atoms: _38  and  _43
REMARK    7  A    between atoms: _43  and  _46
REMARK    8  A    between atoms: _53  and  _55
REMARK                            x       y       z     vdW  Elec       q    Type
REMARK                         _______ _______ _______ _____ _____    ______ ____
ROOT
ATOM     10  C   UNL     1      79.871  46.696  18.669  0.00  0.00    +0.038 A 
ATOM     11  C   UNL     1      78.856  45.814  19.121  0.00  0.00    +0.047 A 
ATOM     12  C   UNL     1      77.526  45.834  18.533  0.00  0.00    +0.035 A 
ATOM     32  C   UNL     1      77.265  46.762  17.483  0.00  0.00    +0.024 A 
ATOM     33  C   UNL     1      78.285  47.665  17.011  0.00  0.00    +0.007 A 
ATOM     34  C   UNL     1      79.598  47.653  17.590  0.00  0.00    -0.029 A 
ATOM     35  C   UNL     1      80.651  48.648  17.049  0.00  0.00    +0.045 C 
ENDROOT
BRANCH  10   9
ATOM      4  C   UNL     1      82.982  47.918  22.114  0.00  0.00    +0.077 A 
ATOM      5  C   UNL     1      82.025  48.772  22.757  0.00  0.00    +0.048 A 
ATOM      6  C   UNL     1      80.746  48.874  22.165  0.00  0.00    +0.116 A 
ATOM      7  N   UNL     1      80.456  48.171  21.016  0.00  0.00    -0.223 NA
ATOM      8  C   UNL     1      81.403  47.357  20.421  0.00  0.00    +0.220 A 
ATOM      9  N   UNL     1      81.131  46.634  19.269  0.00  0.00    -0.283 N 
ATOM     36  H   UNL     1      81.858  46.051  18.857  0.00  0.00    +0.155 HD
ATOM     37  N   UNL     1      82.632  47.243  20.966  0.00  0.00    -0.214 NA
BRANCH   4   3
ATOM      1  C   UNL     1      86.589  46.496  22.628  0.00  0.00    +0.020 A 
ATOM      2  C   UNL     1      85.253  46.661  22.104  0.00  0.00    +0.013 A 
ATOM      3  C   UNL     1      84.374  47.703  22.620  0.00  0.00    +0.019 A 
ATOM     38  C   UNL     1      84.882  48.568  23.674  0.00  0.00    +0.120 A 
ATOM     39  N   UNL     1      86.173  48.384  24.160  0.00  0.00    -0.263 NA
ATOM     40  C   UNL     1      87.027  47.384  23.672  0.00  0.00    +0.111 A 
ENDBRANCH   4   3
ENDBRANCH  10   9
BRANCH  12  13
ATOM     13  N   UNL     1      76.453  44.969  18.956  0.00  0.00    -0.281 N 
ATOM     14  C   UNL     1      76.549  43.710  19.528  0.00  0.00    +0.248 C 
ATOM     30  O   UNL     1      77.573  43.044  19.566  0.00  0.00    -0.270 OA
ATOM     31  H   UNL     1      75.508  45.327  18.818  0.00  0.00    +0.155 HD
BRANCH  14  15
ATOM     15  C   UNL     1      75.327  43.097  20.132  0.00  0.00    +0.037 A 
ATOM     16  C   UNL     1      75.426  42.008  21.107  0.00  0.00    +0.013 A 
ATOM     17  C   UNL     1      74.231  41.423  21.661  0.00  0.00    +0.005 A 
ATOM     18  C   UNL     1      72.925  41.927  21.242  0.00  0.00    -0.033 A 
ATOM     28  C   UNL     1      72.856  43.011  20.277  0.00  0.00    +0.005 A 
ATOM     29  C   UNL     1      74.025  43.587  19.731  0.00  0.00    +0.013 A 
BRANCH  18  19
ATOM     19  C   UNL     1      71.598  41.348  21.765  0.00  0.00    +0.119 C 
BRANCH  19  20
ATOM     20  N   UNL     1      71.107  40.086  21.135  0.00  0.00    -0.302 NA
ATOM     21  C   UNL     1      71.025  38.935  22.142  0.00  0.00    +0.066 C 
ATOM     22  C   UNL     1      70.488  37.629  21.472  0.00  0.00    -0.064 C 
ATOM     23  N   UNL     1      71.390  37.255  20.295  0.00  0.00    +0.379 N 
ATOM     24  C   UNL     1      70.922  35.996  19.698  0.00  0.00    -0.096 C 
ATOM     25  H   UNL     1      72.415  37.079  20.697  0.00  0.00    -0.082 HD
ATOM     26  C   UNL     1      71.480  38.395  19.290  0.00  0.00    -0.064 C 
ATOM     27  C   UNL     1      71.986  39.696  19.973  0.00  0.00    +0.066 C 
ENDBRANCH  19  20
ENDBRANCH  18  19
ENDBRANCH  14  15
ENDBRANCH  12  13
TORSDOF 6
ENDMDL
