MODEL 1
REMARK VINA RESULT:      -9.1      0.000      0.000
REMARK  Name = C:\Users\Docking\Desktop\test protocol\1iep_ligandH.pdb
REMARK  8 active torsions:
REMARK  status: ('A' for Active; 'I' for Inactive)
REMARK    1  A    between atoms: _5  and  _11
REMARK    2  A    between atoms: _19  and  _21
REMARK    3  A    between atoms: _22  and  _66
REMARK    4  A    between atoms: _27  and  _30
REMARK    5  A    between atoms: _32  and  _33
REMARK    6  A    between atoms: _38  and  _43
REMARK    7  A    between atoms: _43  and  _46
REMARK    8  A    between atoms: _53  and  _55
REMARK                            x       y       z     vdW  Elec       q    Type
REMARK                         _______ _______ _______ _____ _____    ______ ____
ROOT
ATOM     10  C   UNL     1      -9.658  10.381  41.458  0.00  0.00    +0.038 A 
ATOM     11  C   UNL     1      -8.713  10.824  40.498  0.00  0.00    +0.047 A 
ATOM     12  C   UNL     1      -7.864   9.880  39.788  0.00  0.00    +0.035 A 
ATOM     32  C   UNL     1      -8.007   8.492  40.078  0.00  0.00    +0.024 A 
ATOM     33  C   UNL     1      -8.962   8.025  41.052  0.00  0.00    +0.007 A 
ATOM     34  C   UNL     1      -9.800   8.951  41.757  0.00  0.00    -0.029 A 
ATOM     35  C   UNL     1     -10.803   8.395  42.795  0.00  0.00    +0.045 C 
ENDROOT
BRANCH  10   9
ATOM      4  C   UNL     1     -10.660  13.189  45.220  0.00  0.00    +0.077 A 
ATOM      5  C   UNL     1      -9.531  12.703  45.959  0.00  0.00    +0.048 A 
ATOM      6  C   UNL     1      -8.721  11.725  45.338  0.00  0.00    +0.116 A 
ATOM      7  N   UNL     1      -9.027  11.275  44.072  0.00  0.00    -0.223 NA
ATOM      8  C   UNL     1     -10.125  11.764  43.388  0.00  0.00    +0.220 A 
ATOM      9  N   UNL     1     -10.448  11.331  42.111  0.00  0.00    -0.283 N 
ATOM     36  H   UNL     1     -11.270  11.711  41.643  0.00  0.00    +0.155 HD
ATOM     37  N   UNL     1     -10.915  12.696  43.960  0.00  0.00    -0.214 NA
BRANCH   4   3
ATOM      1  C   UNL     1     -12.829  16.425  45.568  0.00  0.00    +0.020 A 
ATOM      2  C   UNL     1     -11.905  15.458  45.023  0.00  0.00    +0.013 A 
ATOM      3  C   UNL     1     -11.608  14.225  45.740  0.00  0.00    +0.019 A 
ATOM     38  C   UNL     1     -12.268  13.999  47.017  0.00  0.00    +0.120 A 
ATOM     39  N   UNL     1     -13.152  14.949  47.519  0.00  0.00    -0.263 NA
ATOM     40  C   UNL     1     -13.445  16.140  46.838  0.00  0.00    +0.111 A 
ENDBRANCH   4   3
ENDBRANCH  10   9
BRANCH  12  13
ATOM     13  N   UNL     1      -6.880  10.271  38.809  0.00  0.00    -0.281 N 
ATOM     14  C   UNL     1      -6.860   9.973  37.456  0.00  0.00    +0.248 C 
ATOM     30  O   UNL     1      -7.577   9.140  36.921  0.00  0.00    -0.270 OA
ATOM     31  H   UNL     1      -6.105  10.837  39.155  0.00  0.00    +0.155 HD
BRANCH  14  15
ATOM     15  C   UNL     1      -5.894  10.693  36.572  0.00  0.00    +0.037 A 
ATOM     16  C   UNL     1      -6.144  12.069  36.135  0.00  0.00    +0.013 A 
ATOM     17  C   UNL     1      -5.204  12.735  35.269  0.00  0.00    +0.005 A 
ATOM     18  C   UNL     1      -4.003  12.025  34.835  0.00  0.00    -0.033 A 
ATOM     28  C   UNL     1      -3.777  10.663  35.287  0.00  0.00    +0.005 A 
ATOM     29  C   UNL     1      -4.697  10.006  36.135  0.00  0.00    +0.013 A 
BRANCH  18  19
ATOM     19  C   UNL     1      -2.956  12.651  33.893  0.00  0.00    +0.119 C 
BRANCH  19  20
ATOM     20  N   UNL     1      -1.791  13.337  34.527  0.00  0.00    -0.302 NA
ATOM     21  C   UNL     1      -2.199  14.637  35.224  0.00  0.00    +0.066 C 
ATOM     22  C   UNL     1      -0.971  15.330  35.900  0.00  0.00    -0.064 C 
ATOM     23  N   UNL     1       0.105  15.595  34.846  0.00  0.00    +0.379 N 
ATOM     24  C   UNL     1       1.237  16.299  35.467  0.00  0.00    -0.096 C 
ATOM     25  H   UNL     1      -0.334  16.273  34.078  0.00  0.00    -0.082 HD
ATOM     26  C   UNL     1       0.515  14.308  34.146  0.00  0.00    -0.064 C 
ATOM     27  C   UNL     1      -0.717  13.612  33.503  0.00  0.00    +0.066 C 
ENDBRANCH  19  20
ENDBRANCH  18  19
ENDBRANCH  14  15
ENDBRANCH  12  13
TORSDOF 6
ENDMDL
MODEL 2
REMARK VINA RESULT:      -8.8     12.269     14.331
REMARK  Name = C:\Users\Docking\Desktop\test protocol\1iep_ligandH.pdb
REMARK  8 active torsions:
REMARK  status: ('A' for Active; 'I' for Inactive)
REMARK    1  A    between atoms: _5  and  _11
REMARK    2  A    between atoms: _19  and  _21
REMARK    3  A    between atoms: _22  and  _66
REMARK    4  A    between atoms: _27  and  _30
REMARK    5  A    between atoms: _32  and  _33
REMARK    6  A    between atoms: _38  and  _43
REMARK    7  A    between atoms: _43  and  _46
REMARK    8  A    between atoms: _53  and  _55
REMARK                            x       y       z     vdW  Elec       q    Type
REMARK                         _______ _______ _______ _____ _____    ______ ____
ROOT
ATOM     10  C   UNL     1     -14.005  20.995  29.924  0.00  0.00    +0.038 A 
ATOM     11  C   UNL     1     -13.158  20.185  30.723  0.00  0.00    +0.047 A 
ATOM     12  C   UNL     1     -13.382  18.753  30.846  0.00  0.00    +0.035 A 
ATOM     32  C   UNL     1     -14.478  18.178  30.138  0.00  0.00    +0.024 A 
ATOM     33  C   UNL     1     -15.349  18.986  29.322  0.00  0.00    +0.007 A 
ATOM     34  C   UNL     1     -15.135  20.400  29.199  0.00  0.00    -0.029 A 
ATOM     35  C   UNL     1     -16.104  21.218  28.316  0.00  0.00    +0.045 C 
ENDROOT
BRANCH  10   9
ATOM      4  C   UNL     1     -14.352  25.478  31.602  0.00  0.00    +0.077 A 
ATOM      5  C   UNL     1     -15.144  25.061  32.722  0.00  0.00    +0.048 A 
ATOM      6  C   UNL     1     -15.447  23.684  32.826  0.00  0.00    +0.116 A 
ATOM      7  N   UNL     1     -14.985  22.800  31.875  0.00  0.00    -0.223 NA
ATOM      8  C   UNL     1     -14.225  23.237  30.806  0.00  0.00    +0.220 A 
ATOM      9  N   UNL     1     -13.743  22.364  29.842  0.00  0.00    -0.283 N 
ATOM     36  H   UNL     1     -13.192  22.726  29.064  0.00  0.00    +0.155 HD
ATOM     37  N   UNL     1     -13.924  24.546  30.683  0.00  0.00    -0.214 NA
BRANCH   4   3
ATOM      1  C   UNL     1     -13.402  28.837  29.835  0.00  0.00    +0.020 A 
ATOM      2  C   UNL     1     -13.795  27.458  30.018  0.00  0.00    +0.013 A 
ATOM      3  C   UNL     1     -13.947  26.898  31.355  0.00  0.00    +0.019 A 
ATOM     38  C   UNL     1     -13.692  27.767  32.495  0.00  0.00    +0.120 A 
ATOM     39  N   UNL     1     -13.313  29.089  32.288  0.00  0.00    -0.263 NA
ATOM     40  C   UNL     1     -13.163  29.639  31.006  0.00  0.00    +0.111 A 
ENDBRANCH   4   3
ENDBRANCH  10   9
BRANCH  12  13
ATOM     13  N   UNL     1     -12.561  17.882  31.649  0.00  0.00    -0.281 N 
ATOM     14  C   UNL     1     -12.959  17.049  32.682  0.00  0.00    +0.248 C 
ATOM     30  O   UNL     1     -14.057  17.087  33.216  0.00  0.00    -0.270 OA
ATOM     31  H   UNL     1     -11.565  17.879  31.429  0.00  0.00    +0.155 HD
BRANCH  14  15
ATOM     15  C   UNL     1     -11.992  16.038  33.207  0.00  0.00    +0.037 A 
ATOM     16  C   UNL     1     -11.211  16.291  34.421  0.00  0.00    +0.013 A 
ATOM     17  C   UNL     1     -10.273  15.305  34.896  0.00  0.00    +0.005 A 
ATOM     18  C   UNL     1     -10.112  14.055  34.158  0.00  0.00    -0.033 A 
ATOM     28  C   UNL     1     -10.903  13.828  32.960  0.00  0.00    +0.005 A 
ATOM     29  C   UNL     1     -11.822  14.792  32.490  0.00  0.00    +0.013 A 
BRANCH  18  19
ATOM     19  C   UNL     1      -9.119  12.956  34.580  0.00  0.00    +0.119 C 
BRANCH  19  20
ATOM     20  N   UNL     1      -7.714  13.377  34.865  0.00  0.00    -0.302 NA
ATOM     21  C   UNL     1      -7.099  14.152  33.697  0.00  0.00    +0.066 C 
ATOM     22  C   UNL     1      -5.637  14.604  34.020  0.00  0.00    -0.064 C 
ATOM     23  N   UNL     1      -4.791  13.376  34.361  0.00  0.00    +0.379 N 
ATOM     24  C   UNL     1      -3.402  13.791  34.610  0.00  0.00    -0.096 C 
ATOM     25  H   UNL     1      -4.790  12.708  33.469  0.00  0.00    -0.082 HD
ATOM     26  C   UNL     1      -5.397  12.597  35.520  0.00  0.00    -0.064 C 
ATOM     27  C   UNL     1      -6.860  12.179  35.200  0.00  0.00    +0.066 C 
ENDBRANCH  19  20
ENDBRANCH  18  19
ENDBRANCH  14  15
ENDBRANCH  12  13
TORSDOF 6
ENDMDL
MODEL 3
REMARK VINA RESULT:      -8.8     16.686     18.933
REMARK  Name = C:\Users\Docking\Desktop\test protocol\1iep_ligandH.pdb
REMARK  8 active torsions:
REMARK  status: ('A' for Active; 'I' for Inactive)
REMARK    1  A    between atoms: _5  and  _11
REMARK    2  A    between atoms: _19  and  _21
REMARK    3  A    between atoms: _22  and  _66
REMARK    4  A    between atoms: _27  and  _30
REMARK    5  A    between atoms: _32  and  _33
REMARK    6  A    between atoms: _38  and  _43
REMARK    7  A    between atoms: _43  and  _46
REMARK    8  A    between atoms: _53  and  _55
REMARK                            x       y       z     vdW  Elec       q    Type
REMARK                         _______ _______ _______ _____ _____    ______ ____
ROOT
ATOM     10  C   UNL     1     -15.756  23.588  31.672  0.00  0.00    +0.038 A 
ATOM     11  C   UNL     1     -14.766  24.602  31.613  0.00  0.00    +0.047 A 
ATOM     12  C   UNL     1     -15.118  25.981  31.313  0.00  0.00    +0.035 A 
ATOM     32  C   UNL     1     -16.490  26.293  31.081  0.00  0.00    +0.024 A 
ATOM     33  C   UNL     1     -17.509  25.275  31.135  0.00  0.00    +0.007 A 
ATOM     34  C   UNL     1     -17.167  23.912  31.428  0.00  0.00    -0.029 A 
ATOM     35  C   UNL     1     -18.300  22.861  31.468  0.00  0.00    +0.045 C 
ENDROOT
BRANCH  10   9
ATOM      4  C   UNL     1     -14.441  19.167  30.345  0.00  0.00    +0.077 A 
ATOM      5  C   UNL     1     -14.576  19.481  28.952  0.00  0.00    +0.048 A 
ATOM      6  C   UNL     1     -14.994  20.789  28.619  0.00  0.00    +0.116 A 
ATOM      7  N   UNL     1     -15.253  21.707  29.614  0.00  0.00    -0.223 NA
ATOM      8  C   UNL     1     -15.114  21.371  30.948  0.00  0.00    +0.220 A 
ATOM      9  N   UNL     1     -15.362  22.281  31.964  0.00  0.00    -0.283 N 
ATOM     36  H   UNL     1     -15.255  21.992  32.936  0.00  0.00    +0.155 HD
ATOM     37  N   UNL     1     -14.718  20.128  31.291  0.00  0.00    -0.214 NA
BRANCH   4   3
ATOM      1  C   UNL     1     -12.956  16.332  32.594  0.00  0.00    +0.020 A 
ATOM      2  C   UNL     1     -13.357  17.646  32.147  0.00  0.00    +0.013 A 
ATOM      3  C   UNL     1     -14.005  17.829  30.855  0.00  0.00    +0.019 A 
ATOM     38  C   UNL     1     -14.237  16.651  30.032  0.00  0.00    +0.120 A 
ATOM     39  N   UNL     1     -13.839  15.398  30.487  0.00  0.00    -0.263 NA
ATOM     40  C   UNL     1     -13.213  15.210  31.729  0.00  0.00    +0.111 A 
ENDBRANCH   4   3
ENDBRANCH  10   9
BRANCH  12  13
ATOM     13  N   UNL     1     -14.156  27.052  31.232  0.00  0.00    -0.281 N 
ATOM     14  C   UNL     1     -13.741  27.741  30.104  0.00  0.00    +0.248 C 
ATOM     30  O   UNL     1     -13.980  27.396  28.957  0.00  0.00    -0.270 OA
ATOM     31  H   UNL     1     -13.728  27.336  32.114  0.00  0.00    +0.155 HD
BRANCH  14  15
ATOM     15  C   UNL     1     -12.933  28.987  30.276  0.00  0.00    +0.037 A 
ATOM     16  C   UNL     1     -12.351  29.680  29.123  0.00  0.00    +0.013 A 
ATOM     17  C   UNL     1     -11.562  30.869  29.318  0.00  0.00    +0.005 A 
ATOM     18  C   UNL     1     -11.350  31.375  30.672  0.00  0.00    -0.033 A 
ATOM     28  C   UNL     1     -11.942  30.671  31.797  0.00  0.00    +0.005 A 
ATOM     29  C   UNL     1     -12.716  29.504  31.610  0.00  0.00    +0.013 A 
BRANCH  18  19
ATOM     19  C   UNL     1     -10.503  32.625  30.975  0.00  0.00    +0.119 C 
BRANCH  19  20
ATOM     20  N   UNL     1      -9.239  32.425  31.744  0.00  0.00    -0.302 NA
ATOM     21  C   UNL     1      -9.004  33.543  32.764  0.00  0.00    +0.066 C 
ATOM     22  C   UNL     1      -7.689  33.306  33.576  0.00  0.00    -0.064 C 
ATOM     23  N   UNL     1      -6.509  33.199  32.609  0.00  0.00    +0.379 N 
ATOM     24  C   UNL     1      -5.263  33.034  33.372  0.00  0.00    -0.096 C 
ATOM     25  H   UNL     1      -6.440  34.162  32.052  0.00  0.00    -0.082 HD
ATOM     26  C   UNL     1      -6.735  32.091  31.590  0.00  0.00    -0.064 C 
ATOM     27  C   UNL     1      -8.060  32.321  30.809  0.00  0.00    +0.066 C 
ENDBRANCH  19  20
ENDBRANCH  18  19
ENDBRANCH  14  15
ENDBRANCH  12  13
TORSDOF 6
ENDMDL
MODEL 4
REMARK VINA RESULT:      -8.7      2.388     12.802
REMARK  Name = C:\Users\Docking\Desktop\test protocol\1iep_ligandH.pdb
REMARK  8 active torsions:
REMARK  status: ('A' for Active; 'I' for Inactive)
REMARK    1  A    between atoms: _5  and  _11
REMARK    2  A    between atoms: _19  and  _21
REMARK    3  A    between atoms: _22  and  _66
REMARK    4  A    between atoms: _27  and  _30
REMARK    5  A    between atoms: _32  and  _33
REMARK    6  A    between atoms: _38  and  _43
REMARK    7  A    between atoms: _43  and  _46
REMARK    8  A    between atoms: _53  and  _55
REMARK                            x       y       z     vdW  Elec       q    Type
REMARK                         _______ _______ _______ _____ _____    ______ ____
ROOT
ATOM     10  C   UNL     1      -1.192  11.106  33.581  0.00  0.00    +0.038 A 
ATOM     11  C   UNL     1      -1.992  10.934  34.740  0.00  0.00    +0.047 A 
ATOM     12  C   UNL     1      -3.179  10.094  34.717  0.00  0.00    +0.035 A 
ATOM     32  C   UNL     1      -3.522   9.442  33.496  0.00  0.00    +0.024 A 
ATOM     33  C   UNL     1      -2.721   9.607  32.309  0.00  0.00    +0.007 A 
ATOM     34  C   UNL     1      -1.550  10.436  32.325  0.00  0.00    -0.029 A 
ATOM     35  C   UNL     1      -0.733  10.582  31.020  0.00  0.00    +0.045 C 
ENDROOT
BRANCH  10   9
ATOM      4  C   UNL     1       1.027  15.139  34.940  0.00  0.00    +0.077 A 
ATOM      5  C   UNL     1      -0.172  15.674  35.519  0.00  0.00    +0.048 A 
ATOM      6  C   UNL     1      -1.339  14.882  35.439  0.00  0.00    +0.116 A 
ATOM      7  N   UNL     1      -1.300  13.650  34.825  0.00  0.00    -0.223 NA
ATOM      8  C   UNL     1      -0.127  13.164  34.275  0.00  0.00    +0.220 A 
ATOM      9  N   UNL     1      -0.063  11.924  33.660  0.00  0.00    -0.283 N 
ATOM     36  H   UNL     1       0.819  11.605  33.260  0.00  0.00    +0.155 HD
ATOM     37  N   UNL     1       1.001  13.901  34.337  0.00  0.00    -0.214 NA
BRANCH   4   3
ATOM      1  C   UNL     1       3.751  17.946  34.877  0.00  0.00    +0.020 A 
ATOM      2  C   UNL     1       2.456  17.305  34.865  0.00  0.00    +0.013 A 
ATOM      3  C   UNL     1       2.343  15.854  34.947  0.00  0.00    +0.019 A 
ATOM     38  C   UNL     1       3.568  15.075  35.041  0.00  0.00    +0.120 A 
ATOM     39  N   UNL     1       4.801  15.720  35.048  0.00  0.00    -0.263 NA
ATOM     40  C   UNL     1       4.922  17.115  34.968  0.00  0.00    +0.111 A 
ENDBRANCH   4   3
ENDBRANCH  10   9
BRANCH  12  13
ATOM     13  N   UNL     1      -4.034   9.888  35.860  0.00  0.00    -0.281 N 
ATOM     14  C   UNL     1      -4.900  10.793  36.450  0.00  0.00    +0.248 C 
ATOM     30  O   UNL     1      -4.913  11.992  36.213  0.00  0.00    -0.270 OA
ATOM     31  H   UNL     1      -3.995   8.962  36.286  0.00  0.00    +0.155 HD
BRANCH  14  15
ATOM     15  C   UNL     1      -5.884  10.298  37.460  0.00  0.00    +0.037 A 
ATOM     16  C   UNL     1      -6.866   9.265  37.121  0.00  0.00    +0.013 A 
ATOM     17  C   UNL     1      -7.815   8.818  38.109  0.00  0.00    +0.005 A 
ATOM     18  C   UNL     1      -7.786   9.403  39.448  0.00  0.00    -0.033 A 
ATOM     28  C   UNL     1      -6.798  10.423  39.758  0.00  0.00    +0.005 A 
ATOM     29  C   UNL     1      -5.866  10.865  38.792  0.00  0.00    +0.013 A 
BRANCH  18  19
ATOM     19  C   UNL     1      -8.774   9.002  40.558  0.00  0.00    +0.119 C 
BRANCH  19  20
ATOM     20  N   UNL     1      -8.843   9.882  41.763  0.00  0.00    -0.302 NA
ATOM     21  C   UNL     1      -9.097   9.083  43.044  0.00  0.00    +0.066 C 
ATOM     22  C   UNL     1      -9.144  10.016  44.297  0.00  0.00    -0.064 C 
ATOM     23  N   UNL     1     -10.227  11.078  44.098  0.00  0.00    +0.379 N 
ATOM     24  C   UNL     1     -10.313  11.922  45.299  0.00  0.00    -0.096 C 
ATOM     25  H   UNL     1     -11.202  10.549  43.985  0.00  0.00    -0.082 HD
ATOM     26  C   UNL     1      -9.984  11.876  42.825  0.00  0.00    -0.064 C 
ATOM     27  C   UNL     1      -9.910  10.935  41.590  0.00  0.00    +0.066 C 
ENDBRANCH  19  20
ENDBRANCH  18  19
ENDBRANCH  14  15
ENDBRANCH  12  13
TORSDOF 6
ENDMDL
MODEL 5
REMARK VINA RESULT:      -8.7      1.612      2.303
REMARK  Name = C:\Users\Docking\Desktop\test protocol\1iep_ligandH.pdb
REMARK  8 active torsions:
REMARK  status: ('A' for Active; 'I' for Inactive)
REMARK    1  A    between atoms: _5  and  _11
REMARK    2  A    between atoms: _19  and  _21
REMARK    3  A    between atoms: _22  and  _66
REMARK    4  A    between atoms: _27  and  _30
REMARK    5  A    between atoms: _32  and  _33
REMARK    6  A    between atoms: _38  and  _43
REMARK    7  A    between atoms: _43  and  _46
REMARK    8  A    between atoms: _53  and  _55
REMARK                            x       y       z     vdW  Elec       q    Type
REMARK                         _______ _______ _______ _____ _____    ______ ____
ROOT
ATOM     10  C   UNL     1      -9.248  10.687  42.023  0.00  0.00    +0.038 A 
ATOM     11  C   UNL     1      -8.489  10.873  40.840  0.00  0.00    +0.047 A 
ATOM     12  C   UNL     1      -8.005   9.739  40.069  0.00  0.00    +0.035 A 
ATOM     32  C   UNL     1      -8.316   8.427  40.531  0.00  0.00    +0.024 A 
ATOM     33  C   UNL     1      -9.085   8.218  41.732  0.00  0.00    +0.007 A 
ATOM     34  C   UNL     1      -9.563   9.334  42.498  0.00  0.00    -0.029 A 
ATOM     35  C   UNL     1     -10.377   9.051  43.782  0.00  0.00    +0.045 C 
ENDROOT
BRANCH  10   9
ATOM      4  C   UNL     1     -12.534  14.042  43.012  0.00  0.00    +0.077 A 
ATOM      5  C   UNL     1     -13.443  13.526  42.030  0.00  0.00    +0.048 A 
ATOM      6  C   UNL     1     -13.023  12.400  41.286  0.00  0.00    +0.116 A 
ATOM      7  N   UNL     1     -11.786  11.840  41.517  0.00  0.00    -0.223 NA
ATOM      8  C   UNL     1     -10.933  12.364  42.471  0.00  0.00    +0.220 A 
ATOM      9  N   UNL     1      -9.686  11.812  42.725  0.00  0.00    -0.283 N 
ATOM     36  H   UNL     1      -9.084  12.232  43.432  0.00  0.00    +0.155 HD
ATOM     37  N   UNL     1     -11.309  13.439  43.193  0.00  0.00    -0.214 NA
BRANCH   4   3
ATOM      1  C   UNL     1     -12.667  16.510  46.044  0.00  0.00    +0.020 A 
ATOM      2  C   UNL     1     -12.349  15.346  45.249  0.00  0.00    +0.013 A 
ATOM      3  C   UNL     1     -12.834  15.225  43.880  0.00  0.00    +0.019 A 
ATOM     38  C   UNL     1     -13.644  16.307  43.341  0.00  0.00    +0.120 A 
ATOM     39  N   UNL     1     -13.936  17.415  44.131  0.00  0.00    -0.263 NA
ATOM     40  C   UNL     1     -13.476  17.542  45.450  0.00  0.00    +0.111 A 
ENDBRANCH   4   3
ENDBRANCH  10   9
BRANCH  12  13
ATOM     13  N   UNL     1      -7.223   9.867  38.864  0.00  0.00    -0.281 N 
ATOM     14  C   UNL     1      -7.523  10.601  37.728  0.00  0.00    +0.248 C 
ATOM     30  O   UNL     1      -8.617  11.091  37.491  0.00  0.00    -0.270 OA
ATOM     31  H   UNL     1      -6.342   9.354  38.846  0.00  0.00    +0.155 HD
BRANCH  14  15
ATOM     15  C   UNL     1      -6.458  10.809  36.701  0.00  0.00    +0.037 A 
ATOM     16  C   UNL     1      -5.194  10.070  36.756  0.00  0.00    +0.013 A 
ATOM     17  C   UNL     1      -4.177  10.302  35.762  0.00  0.00    +0.005 A 
ATOM     18  C   UNL     1      -4.420  11.277  34.702  0.00  0.00    -0.033 A 
ATOM     28  C   UNL     1      -5.685  11.992  34.667  0.00  0.00    +0.005 A 
ATOM     29  C   UNL     1      -6.685  11.768  35.641  0.00  0.00    +0.013 A 
BRANCH  18  19
ATOM     19  C   UNL     1      -3.383  11.603  33.611  0.00  0.00    +0.119 C 
BRANCH  19  20
ATOM     20  N   UNL     1      -2.153  12.336  34.035  0.00  0.00    -0.302 NA
ATOM     21  C   UNL     1      -2.462  13.768  34.482  0.00  0.00    +0.066 C 
ATOM     22  C   UNL     1      -1.167  14.512  34.944  0.00  0.00    -0.064 C 
ATOM     23  N   UNL     1      -0.146  14.509  33.804  0.00  0.00    +0.379 N 
ATOM     24  C   UNL     1       1.050  15.258  34.215  0.00  0.00    -0.096 C 
ATOM     25  H   UNL     1      -0.602  15.046  32.941  0.00  0.00    -0.082 HD
ATOM     26  C   UNL     1       0.165  13.089  33.352  0.00  0.00    -0.064 C 
ATOM     27  C   UNL     1      -1.133  12.348  32.923  0.00  0.00    +0.066 C 
ENDBRANCH  19  20
ENDBRANCH  18  19
ENDBRANCH  14  15
ENDBRANCH  12  13
TORSDOF 6
ENDMDL
