MODEL 1
REMARK VINA RESULT:     -10.3      0.000      0.000
REMARK  Name = C:\Users\Docking\Desktop\test protocol\1iep_ligandH.pdb
REMARK  8 active torsions:
REMARK  status: ('A' for Active; 'I' for Inactive)
REMARK    1  A    between atoms: _5  and  _11
REMARK    2  A    between atoms: _19  and  _21
REMARK    3  A    between atoms: _22  and  _66
REMARK    4  A    between atoms: _27  and  _30
REMARK    5  A    between atoms: _32  and  _33
REMARK    6  A    between atoms: _38  and  _43
REMARK    7  A    between atoms: _43  and  _46
REMARK    8  A    between atoms: _53  and  _55
REMARK                            x       y       z     vdW  Elec       q    Type
REMARK                         _______ _______ _______ _____ _____    ______ ____
ROOT
ATOM     10  C   UNL     1     -22.871   4.659  32.741  0.00  0.00    +0.038 A 
ATOM     11  C   UNL     1     -21.674   5.391  32.530  0.00  0.00    +0.047 A 
ATOM     12  C   UNL     1     -20.632   5.438  33.544  0.00  0.00    +0.035 A 
ATOM     32  C   UNL     1     -20.841   4.726  34.761  0.00  0.00    +0.024 A 
ATOM     33  C   UNL     1     -22.052   3.978  34.993  0.00  0.00    +0.007 A 
ATOM     34  C   UNL     1     -23.084   3.930  33.997  0.00  0.00    -0.029 A 
ATOM     35  C   UNL     1     -24.364   3.118  34.302  0.00  0.00    +0.045 C 
ENDROOT
BRANCH  10   9
ATOM      4  C   UNL     1     -26.654   6.565  30.485  0.00  0.00    +0.077 A 
ATOM      5  C   UNL     1     -26.727   7.661  31.408  0.00  0.00    +0.048 A 
ATOM      6  C   UNL     1     -25.777   7.694  32.453  0.00  0.00    +0.116 A 
ATOM      7  N   UNL     1     -24.829   6.699  32.558  0.00  0.00    -0.223 NA
ATOM      8  C   UNL     1     -24.788   5.655  31.652  0.00  0.00    +0.220 A 
ATOM      9  N   UNL     1     -23.838   4.648  31.734  0.00  0.00    -0.283 N 
ATOM     36  H   UNL     1     -23.845   3.891  31.050  0.00  0.00    +0.155 HD
ATOM     37  N   UNL     1     -25.685   5.600  30.646  0.00  0.00    -0.214 NA
BRANCH   4   3
ATOM      1  C   UNL     1     -29.886   6.377  28.289  0.00  0.00    +0.020 A 
ATOM      2  C   UNL     1     -29.030   6.554  29.440  0.00  0.00    +0.013 A 
ATOM      3  C   UNL     1     -27.586   6.393  29.326  0.00  0.00    +0.019 A 
ATOM     38  C   UNL     1     -27.036   6.050  28.023  0.00  0.00    +0.120 A 
ATOM     39  N   UNL     1     -27.884   5.885  26.933  0.00  0.00    -0.263 NA
ATOM     40  C   UNL     1     -29.276   6.036  27.031  0.00  0.00    +0.111 A 
ENDBRANCH   4   3
ENDBRANCH  10   9
BRANCH  12  13
ATOM     13  N   UNL     1     -19.400   6.170  33.389  0.00  0.00    -0.281 N 
ATOM     14  C   UNL     1     -18.365   5.918  32.503  0.00  0.00    +0.248 C 
ATOM     30  O   UNL     1     -18.248   4.891  31.851  0.00  0.00    -0.270 OA
ATOM     31  H   UNL     1     -19.275   6.972  34.008  0.00  0.00    +0.155 HD
BRANCH  14  15
ATOM     15  C   UNL     1     -17.299   6.951  32.326  0.00  0.00    +0.037 A 
ATOM     16  C   UNL     1     -16.093   6.949  33.159  0.00  0.00    +0.013 A 
ATOM     17  C   UNL     1     -15.088   7.966  32.979  0.00  0.00    +0.005 A 
ATOM     18  C   UNL     1     -15.284   8.994  31.960  0.00  0.00    -0.033 A 
ATOM     28  C   UNL     1     -16.486   8.969  31.144  0.00  0.00    +0.005 A 
ATOM     29  C   UNL     1     -17.474   7.974  31.318  0.00  0.00    +0.013 A 
BRANCH  18  19
ATOM     19  C   UNL     1     -14.274  10.130  31.713  0.00  0.00    +0.119 C 
BRANCH  19  20
ATOM     20  N   UNL     1     -14.376  11.337  32.586  0.00  0.00    -0.302 NA
ATOM     21  C   UNL     1     -15.255  12.425  31.962  0.00  0.00    +0.066 C 
ATOM     22  C   UNL     1     -15.368  13.671  32.898  0.00  0.00    -0.064 C 
ATOM     23  N   UNL     1     -13.969  14.211  33.197  0.00  0.00    +0.379 N 
ATOM     24  C   UNL     1     -14.075  15.418  34.030  0.00  0.00    -0.096 C 
ATOM     25  H   UNL     1     -13.508  14.510  32.226  0.00  0.00    -0.082 HD
ATOM     26  C   UNL     1     -13.087  13.135  33.815  0.00  0.00    -0.064 C 
ATOM     27  C   UNL     1     -13.005  11.889  32.890  0.00  0.00    +0.066 C 
ENDBRANCH  19  20
ENDBRANCH  18  19
ENDBRANCH  14  15
ENDBRANCH  12  13
TORSDOF 6
ENDMDL
MODEL 2
REMARK VINA RESULT:      -9.8      7.247     12.212
REMARK  Name = C:\Users\Docking\Desktop\test protocol\1iep_ligandH.pdb
REMARK  8 active torsions:
REMARK  status: ('A' for Active; 'I' for Inactive)
REMARK    1  A    between atoms: _5  and  _11
REMARK    2  A    between atoms: _19  and  _21
REMARK    3  A    between atoms: _22  and  _66
REMARK    4  A    between atoms: _27  and  _30
REMARK    5  A    between atoms: _32  and  _33
REMARK    6  A    between atoms: _38  and  _43
REMARK    7  A    between atoms: _43  and  _46
REMARK    8  A    between atoms: _53  and  _55
REMARK                            x       y       z     vdW  Elec       q    Type
REMARK                         _______ _______ _______ _____ _____    ______ ____
ROOT
ATOM     10  C   UNL     1     -24.552   4.998  32.443  0.00  0.00    +0.038 A 
ATOM     11  C   UNL     1     -24.864   4.870  31.065  0.00  0.00    +0.047 A 
ATOM     12  C   UNL     1     -25.158   6.038  30.249  0.00  0.00    +0.035 A 
ATOM     32  C   UNL     1     -25.124   7.321  30.869  0.00  0.00    +0.024 A 
ATOM     33  C   UNL     1     -24.810   7.469  32.268  0.00  0.00    +0.007 A 
ATOM     34  C   UNL     1     -24.521   6.320  33.078  0.00  0.00    -0.029 A 
ATOM     35  C   UNL     1     -24.197   6.538  34.575  0.00  0.00    +0.045 C 
ENDROOT
BRANCH  10   9
ATOM      4  C   UNL     1     -25.779   0.699  34.189  0.00  0.00    +0.077 A 
ATOM      5  C   UNL     1     -27.089   0.771  33.608  0.00  0.00    +0.048 A 
ATOM      6  C   UNL     1     -27.410   1.935  32.874  0.00  0.00    +0.116 A 
ATOM      7  N   UNL     1     -26.482   2.944  32.736  0.00  0.00    -0.223 NA
ATOM      8  C   UNL     1     -25.228   2.843  33.311  0.00  0.00    +0.220 A 
ATOM      9  N   UNL     1     -24.277   3.843  33.179  0.00  0.00    -0.283 N 
ATOM     36  H   UNL     1     -23.366   3.734  33.624  0.00  0.00    +0.155 HD
ATOM     37  N   UNL     1     -24.898   1.743  34.019  0.00  0.00    -0.214 NA
BRANCH   4   3
ATOM      1  C   UNL     1     -24.351  -2.799  35.202  0.00  0.00    +0.020 A 
ATOM      2  C   UNL     1     -24.813  -1.703  34.383  0.00  0.00    +0.013 A 
ATOM      3  C   UNL     1     -25.290  -0.467  34.991  0.00  0.00    +0.019 A 
ATOM     38  C   UNL     1     -25.287  -0.373  36.443  0.00  0.00    +0.120 A 
ATOM     39  N   UNL     1     -24.838  -1.445  37.207  0.00  0.00    -0.263 NA
ATOM     40  C   UNL     1     -24.377  -2.640  36.632  0.00  0.00    +0.111 A 
ENDBRANCH   4   3
ENDBRANCH  10   9
BRANCH  12  13
ATOM     13  N   UNL     1     -25.490   5.969  28.847  0.00  0.00    -0.281 N 
ATOM     14  C   UNL     1     -26.744   5.838  28.274  0.00  0.00    +0.248 C 
ATOM     30  O   UNL     1     -27.758   5.543  28.889  0.00  0.00    -0.270 OA
ATOM     31  H   UNL     1     -24.704   6.024  28.199  0.00  0.00    +0.155 HD
BRANCH  14  15
ATOM     15  C   UNL     1     -26.890   6.051  26.802  0.00  0.00    +0.037 A 
ATOM     16  C   UNL     1     -28.192   5.920  26.141  0.00  0.00    +0.013 A 
ATOM     17  C   UNL     1     -28.302   6.114  24.717  0.00  0.00    +0.005 A 
ATOM     18  C   UNL     1     -27.107   6.442  23.944  0.00  0.00    -0.033 A 
ATOM     28  C   UNL     1     -25.830   6.570  24.626  0.00  0.00    +0.005 A 
ATOM     29  C   UNL     1     -25.717   6.380  26.021  0.00  0.00    +0.013 A 
BRANCH  18  19
ATOM     19  C   UNL     1     -27.128   6.645  22.417  0.00  0.00    +0.119 C 
BRANCH  19  20
ATOM     20  N   UNL     1     -28.349   7.270  21.827  0.00  0.00    -0.302 NA
ATOM     21  C   UNL     1     -28.305   7.285  20.297  0.00  0.00    +0.066 C 
ATOM     22  C   UNL     1     -29.600   7.922  19.696  0.00  0.00    -0.064 C 
ATOM     23  N   UNL     1     -29.770   9.339  20.247  0.00  0.00    +0.379 N 
ATOM     24  C   UNL     1     -30.955   9.962  19.639  0.00  0.00    -0.096 C 
ATOM     25  H   UNL     1     -28.879   9.932  19.935  0.00  0.00    -0.082 HD
ATOM     26  C   UNL     1     -29.812   9.334  21.768  0.00  0.00    -0.064 C 
ATOM     27  C   UNL     1     -28.534   8.672  22.354  0.00  0.00    +0.066 C 
ENDBRANCH  19  20
ENDBRANCH  18  19
ENDBRANCH  14  15
ENDBRANCH  12  13
TORSDOF 6
ENDMDL
MODEL 3
REMARK VINA RESULT:      -9.5      8.413     13.056
REMARK  Name = C:\Users\Docking\Desktop\test protocol\1iep_ligandH.pdb
REMARK  8 active torsions:
REMARK  status: ('A' for Active; 'I' for Inactive)
REMARK    1  A    between atoms: _5  and  _11
REMARK    2  A    between atoms: _19  and  _21
REMARK    3  A    between atoms: _22  and  _66
REMARK    4  A    between atoms: _27  and  _30
REMARK    5  A    between atoms: _32  and  _33
REMARK    6  A    between atoms: _38  and  _43
REMARK    7  A    between atoms: _43  and  _46
REMARK    8  A    between atoms: _53  and  _55
REMARK                            x       y       z     vdW  Elec       q    Type
REMARK                         _______ _______ _______ _____ _____    ______ ____
ROOT
ATOM     10  C   UNL     1     -29.245  -2.358  33.913  0.00  0.00    +0.038 A 
ATOM     11  C   UNL     1     -28.659  -1.168  33.411  0.00  0.00    +0.047 A 
ATOM     12  C   UNL     1     -29.474  -0.127  32.804  0.00  0.00    +0.035 A 
ATOM     32  C   UNL     1     -30.883  -0.330  32.727  0.00  0.00    +0.024 A 
ATOM     33  C   UNL     1     -31.494  -1.535  33.231  0.00  0.00    +0.007 A 
ATOM     34  C   UNL     1     -30.695  -2.566  33.828  0.00  0.00    -0.029 A 
ATOM     35  C   UNL     1     -31.404  -3.840  34.346  0.00  0.00    +0.045 C 
ENDROOT
BRANCH  10   9
ATOM      4  C   UNL     1     -26.214  -6.066  33.588  0.00  0.00    +0.077 A 
ATOM      5  C   UNL     1     -26.313  -6.098  32.157  0.00  0.00    +0.048 A 
ATOM      6  C   UNL     1     -27.160  -5.148  31.544  0.00  0.00    +0.116 A 
ATOM      7  N   UNL     1     -27.851  -4.238  32.314  0.00  0.00    -0.223 NA
ATOM      8  C   UNL     1     -27.735  -4.236  33.692  0.00  0.00    +0.220 A 
ATOM      9  N   UNL     1     -28.415  -3.325  34.486  0.00  0.00    -0.283 N 
ATOM     36  H   UNL     1     -28.308  -3.360  35.499  0.00  0.00    +0.155 HD
ATOM     37  N   UNL     1     -26.934  -5.134  34.302  0.00  0.00    -0.214 NA
BRANCH   4   3
ATOM      1  C   UNL     1     -24.283  -9.249  34.787  0.00  0.00    +0.020 A 
ATOM      2  C   UNL     1     -25.118  -8.385  33.986  0.00  0.00    +0.013 A 
ATOM      3  C   UNL     1     -25.358  -7.004  34.382  0.00  0.00    +0.019 A 
ATOM     38  C   UNL     1     -24.732  -6.523  35.604  0.00  0.00    +0.120 A 
ATOM     39  N   UNL     1     -23.933  -7.378  36.357  0.00  0.00    -0.263 NA
ATOM     40  C   UNL     1     -23.697  -8.710  35.986  0.00  0.00    +0.111 A 
ENDBRANCH   4   3
ENDBRANCH  10   9
BRANCH  12  13
ATOM     13  N   UNL     1     -28.935   1.100  32.270  0.00  0.00    -0.281 N 
ATOM     14  C   UNL     1     -27.862   1.837  32.746  0.00  0.00    +0.248 C 
ATOM     30  O   UNL     1     -27.334   1.665  33.834  0.00  0.00    -0.270 OA
ATOM     31  H   UNL     1     -29.401   1.469  31.442  0.00  0.00    +0.155 HD
BRANCH  14  15
ATOM     15  C   UNL     1     -27.305   2.932  31.895  0.00  0.00    +0.037 A 
ATOM     16  C   UNL     1     -25.952   3.449  32.111  0.00  0.00    +0.013 A 
ATOM     17  C   UNL     1     -25.445   4.517  31.287  0.00  0.00    +0.005 A 
ATOM     18  C   UNL     1     -26.293   5.076  30.237  0.00  0.00    -0.033 A 
ATOM     28  C   UNL     1     -27.631   4.541  30.041  0.00  0.00    +0.005 A 
ATOM     29  C   UNL     1     -28.131   3.494  30.847  0.00  0.00    +0.013 A 
BRANCH  18  19
ATOM     19  C   UNL     1     -25.843   6.232  29.324  0.00  0.00    +0.119 C 
BRANCH  19  20
ATOM     20  N   UNL     1     -25.366   5.876  27.955  0.00  0.00    -0.302 NA
ATOM     21  C   UNL     1     -26.479   5.996  26.910  0.00  0.00    +0.066 C 
ATOM     22  C   UNL     1     -25.957   5.642  25.479  0.00  0.00    -0.064 C 
ATOM     23  N   UNL     1     -25.373   4.228  25.488  0.00  0.00    +0.379 N 
ATOM     24  C   UNL     1     -24.934   3.870  24.131  0.00  0.00    -0.096 C 
ATOM     25  H   UNL     1     -26.191   3.527  25.776  0.00  0.00    -0.082 HD
ATOM     26  C   UNL     1     -24.268   4.098  26.527  0.00  0.00    -0.064 C 
ATOM     27  C   UNL     1     -24.789   4.481  27.940  0.00  0.00    +0.066 C 
ENDBRANCH  19  20
ENDBRANCH  18  19
ENDBRANCH  14  15
ENDBRANCH  12  13
TORSDOF 6
ENDMDL
MODEL 4
REMARK VINA RESULT:      -9.3      5.207     12.540
REMARK  Name = C:\Users\Docking\Desktop\test protocol\1iep_ligandH.pdb
REMARK  8 active torsions:
REMARK  status: ('A' for Active; 'I' for Inactive)
REMARK    1  A    between atoms: _5  and  _11
REMARK    2  A    between atoms: _19  and  _21
REMARK    3  A    between atoms: _22  and  _66
REMARK    4  A    between atoms: _27  and  _30
REMARK    5  A    between atoms: _32  and  _33
REMARK    6  A    between atoms: _38  and  _43
REMARK    7  A    between atoms: _43  and  _46
REMARK    8  A    between atoms: _53  and  _55
REMARK                            x       y       z     vdW  Elec       q    Type
REMARK                         _______ _______ _______ _____ _____    ______ ____
ROOT
ATOM     10  C   UNL     1     -15.067   4.673  31.931  0.00  0.00    +0.038 A 
ATOM     11  C   UNL     1     -16.454   4.593  31.645  0.00  0.00    +0.047 A 
ATOM     12  C   UNL     1     -17.365   5.660  32.030  0.00  0.00    +0.035 A 
ATOM     32  C   UNL     1     -16.829   6.796  32.703  0.00  0.00    +0.024 A 
ATOM     33  C   UNL     1     -15.422   6.894  33.003  0.00  0.00    +0.007 A 
ATOM     34  C   UNL     1     -14.519   5.843  32.628  0.00  0.00    -0.029 A 
ATOM     35  C   UNL     1     -13.021   5.998  32.981  0.00  0.00    +0.045 C 
ENDROOT
BRANCH  10   9
ATOM      4  C   UNL     1     -13.668   0.086  32.135  0.00  0.00    +0.077 A 
ATOM      5  C   UNL     1     -14.654  -0.232  33.127  0.00  0.00    +0.048 A 
ATOM      6  C   UNL     1     -15.497   0.815  33.563  0.00  0.00    +0.116 A 
ATOM      7  N   UNL     1     -15.356   2.081  33.039  0.00  0.00    -0.223 NA
ATOM      8  C   UNL     1     -14.393   2.355  32.085  0.00  0.00    +0.220 A 
ATOM      9  N   UNL     1     -14.238   3.620  31.539  0.00  0.00    -0.283 N 
ATOM     36  H   UNL     1     -13.511   3.783  30.843  0.00  0.00    +0.155 HD
ATOM     37  N   UNL     1     -13.575   1.373  31.653  0.00  0.00    -0.214 NA
BRANCH   4   3
ATOM      1  C   UNL     1     -11.147  -2.884  31.788  0.00  0.00    +0.020 A 
ATOM      2  C   UNL     1     -12.069  -1.943  32.381  0.00  0.00    +0.013 A 
ATOM      3  C   UNL     1     -12.705  -0.912  31.572  0.00  0.00    +0.019 A 
ATOM     38  C   UNL     1     -12.386  -0.861  30.153  0.00  0.00    +0.120 A 
ATOM     39  N   UNL     1     -11.493  -1.779  29.609  0.00  0.00    -0.263 NA
ATOM     40  C   UNL     1     -10.873  -2.774  30.379  0.00  0.00    +0.111 A 
ENDBRANCH   4   3
ENDBRANCH  10   9
BRANCH  12  13
ATOM     13  N   UNL     1     -18.784   5.630  31.773  0.00  0.00    -0.281 N 
ATOM     14  C   UNL     1     -19.721   4.739  32.270  0.00  0.00    +0.248 C 
ATOM     30  O   UNL     1     -19.446   3.696  32.845  0.00  0.00    -0.270 OA
ATOM     31  H   UNL     1     -19.140   6.354  31.149  0.00  0.00    +0.155 HD
BRANCH  14  15
ATOM     15  C   UNL     1     -21.173   5.042  32.089  0.00  0.00    +0.037 A 
ATOM     16  C   UNL     1     -22.009   4.247  31.187  0.00  0.00    +0.013 A 
ATOM     17  C   UNL     1     -23.403   4.571  31.017  0.00  0.00    +0.005 A 
ATOM     18  C   UNL     1     -23.970   5.698  31.754  0.00  0.00    -0.033 A 
ATOM     28  C   UNL     1     -23.119   6.468  32.647  0.00  0.00    +0.005 A 
ATOM     29  C   UNL     1     -21.752   6.153  32.814  0.00  0.00    +0.013 A 
BRANCH  18  19
ATOM     19  C   UNL     1     -25.443   6.130  31.619  0.00  0.00    +0.119 C 
BRANCH  19  20
ATOM     20  N   UNL     1     -26.167   5.711  30.382  0.00  0.00    -0.302 NA
ATOM     21  C   UNL     1     -25.789   6.574  29.175  0.00  0.00    +0.066 C 
ATOM     22  C   UNL     1     -26.539   6.108  27.885  0.00  0.00    -0.064 C 
ATOM     23  N   UNL     1     -28.048   6.153  28.131  0.00  0.00    +0.379 N 
ATOM     24  C   UNL     1     -28.757   5.771  26.901  0.00  0.00    -0.096 C 
ATOM     25  H   UNL     1     -28.320   7.208  28.365  0.00  0.00    -0.082 HD
ATOM     26  C   UNL     1     -28.432   5.299  29.331  0.00  0.00    -0.064 C 
ATOM     27  C   UNL     1     -27.659   5.752  30.602  0.00  0.00    +0.066 C 
ENDBRANCH  19  20
ENDBRANCH  18  19
ENDBRANCH  14  15
ENDBRANCH  12  13
TORSDOF 6
ENDMDL
MODEL 5
REMARK VINA RESULT:      -9.2      2.378      2.760
REMARK  Name = C:\Users\Docking\Desktop\test protocol\1iep_ligandH.pdb
REMARK  8 active torsions:
REMARK  status: ('A' for Active; 'I' for Inactive)
REMARK    1  A    between atoms: _5  and  _11
REMARK    2  A    between atoms: _19  and  _21
REMARK    3  A    between atoms: _22  and  _66
REMARK    4  A    between atoms: _27  and  _30
REMARK    5  A    between atoms: _32  and  _33
REMARK    6  A    between atoms: _38  and  _43
REMARK    7  A    between atoms: _43  and  _46
REMARK    8  A    between atoms: _53  and  _55
REMARK                            x       y       z     vdW  Elec       q    Type
REMARK                         _______ _______ _______ _____ _____    ______ ____
ROOT
ATOM     10  C   UNL     1     -23.222   4.316  32.623  0.00  0.00    +0.038 A 
ATOM     11  C   UNL     1     -21.908   4.798  32.392  0.00  0.00    +0.047 A 
ATOM     12  C   UNL     1     -20.911   4.804  33.452  0.00  0.00    +0.035 A 
ATOM     32  C   UNL     1     -21.287   4.309  34.735  0.00  0.00    +0.024 A 
ATOM     33  C   UNL     1     -22.618   3.817  34.988  0.00  0.00    +0.007 A 
ATOM     34  C   UNL     1     -23.606   3.811  33.947  0.00  0.00    -0.029 A 
ATOM     35  C   UNL     1     -25.020   3.277  34.277  0.00  0.00    +0.045 C 
ENDROOT
BRANCH  10   9
ATOM      4  C   UNL     1     -26.767   6.380  30.131  0.00  0.00    +0.077 A 
ATOM      5  C   UNL     1     -26.815   7.506  31.018  0.00  0.00    +0.048 A 
ATOM      6  C   UNL     1     -25.915   7.513  32.108  0.00  0.00    +0.116 A 
ATOM      7  N   UNL     1     -25.037   6.466  32.287  0.00  0.00    -0.223 NA
ATOM      8  C   UNL     1     -25.019   5.394  31.414  0.00  0.00    +0.220 A 
ATOM      9  N   UNL     1     -24.139   4.334  31.570  0.00  0.00    -0.283 N 
ATOM     36  H   UNL     1     -24.161   3.558  30.908  0.00  0.00    +0.155 HD
ATOM     37  N   UNL     1     -25.869   5.363  30.366  0.00  0.00    -0.214 NA
BRANCH   4   3
ATOM      1  C   UNL     1     -29.916   6.088  27.829  0.00  0.00    +0.020 A 
ATOM      2  C   UNL     1     -29.107   6.236  29.017  0.00  0.00    +0.013 A 
ATOM      3  C   UNL     1     -27.652   6.230  28.933  0.00  0.00    +0.019 A 
ATOM     38  C   UNL     1     -27.042   6.071  27.622  0.00  0.00    +0.120 A 
ATOM     39  N   UNL     1     -27.846   5.929  26.495  0.00  0.00    -0.263 NA
ATOM     40  C   UNL     1     -29.247   5.932  26.564  0.00  0.00    +0.111 A 
ENDBRANCH   4   3
ENDBRANCH  10   9
BRANCH  12  13
ATOM     13  N   UNL     1     -19.564   5.288  33.278  0.00  0.00    -0.281 N 
ATOM     14  C   UNL     1     -18.502   4.648  32.662  0.00  0.00    +0.248 C 
ATOM     30  O   UNL     1     -18.493   3.465  32.353  0.00  0.00    -0.270 OA
ATOM     31  H   UNL     1     -19.371   6.216  33.655  0.00  0.00    +0.155 HD
BRANCH  14  15
ATOM     15  C   UNL     1     -17.265   5.430  32.358  0.00  0.00    +0.037 A 
ATOM     16  C   UNL     1     -16.126   4.814  31.673  0.00  0.00    +0.013 A 
ATOM     17  C   UNL     1     -14.938   5.586  31.407  0.00  0.00    +0.005 A 
ATOM     18  C   UNL     1     -14.885   6.985  31.826  0.00  0.00    -0.033 A 
ATOM     28  C   UNL     1     -16.032   7.572  32.499  0.00  0.00    +0.005 A 
ATOM     29  C   UNL     1     -17.197   6.818  32.762  0.00  0.00    +0.013 A 
BRANCH  18  19
ATOM     19  C   UNL     1     -13.651   7.879  31.602  0.00  0.00    +0.119 C 
BRANCH  19  20
ATOM     20  N   UNL     1     -12.952   8.396  32.816  0.00  0.00    -0.302 NA
ATOM     21  C   UNL     1     -11.555   8.933  32.491  0.00  0.00    +0.066 C 
ATOM     22  C   UNL     1     -10.848   9.491  33.768  0.00  0.00    -0.064 C 
ATOM     23  N   UNL     1     -10.771   8.390  34.827  0.00  0.00    +0.379 N 
ATOM     24  C   UNL     1     -10.055   8.894  36.008  0.00  0.00    -0.096 C 
ATOM     25  H   UNL     1     -10.173   7.552  34.401  0.00  0.00    -0.082 HD
ATOM     26  C   UNL     1     -12.155   7.848  35.155  0.00  0.00    -0.064 C 
ATOM     27  C   UNL     1     -12.862   7.323  33.874  0.00  0.00    +0.066 C 
ENDBRANCH  19  20
ENDBRANCH  18  19
ENDBRANCH  14  15
ENDBRANCH  12  13
TORSDOF 6
ENDMDL
