MODEL 1
REMARK VINA RESULT:      -9.9      0.000      0.000
REMARK  Name = C:\Users\Docking\Desktop\test protocol\1iep_ligandH.pdb
REMARK  8 active torsions:
REMARK  status: ('A' for Active; 'I' for Inactive)
REMARK    1  A    between atoms: _5  and  _11
REMARK    2  A    between atoms: _19  and  _21
REMARK    3  A    between atoms: _22  and  _66
REMARK    4  A    between atoms: _27  and  _30
REMARK    5  A    between atoms: _32  and  _33
REMARK    6  A    between atoms: _38  and  _43
REMARK    7  A    between atoms: _43  and  _46
REMARK    8  A    between atoms: _53  and  _55
REMARK                            x       y       z     vdW  Elec       q    Type
REMARK                         _______ _______ _______ _____ _____    ______ ____
ROOT
ATOM     10  C   UNL     1     -18.687  14.661  88.345  0.00  0.00    +0.038 A 
ATOM     11  C   UNL     1     -18.390  13.598  87.454  0.00  0.00    +0.047 A 
ATOM     12  C   UNL     1     -19.429  12.691  86.992  0.00  0.00    +0.035 A 
ATOM     32  C   UNL     1     -20.761  12.897  87.455  0.00  0.00    +0.024 A 
ATOM     33  C   UNL     1     -21.080  13.972  88.361  0.00  0.00    +0.007 A 
ATOM     34  C   UNL     1     -20.059  14.868  88.823  0.00  0.00    -0.029 A 
ATOM     35  C   UNL     1     -20.458  15.999  89.799  0.00  0.00    +0.045 C 
ENDROOT
BRANCH  10   9
ATOM      4  C   UNL     1     -16.352  18.854  88.261  0.00  0.00    +0.077 A 
ATOM      5  C   UNL     1     -17.258  19.407  87.296  0.00  0.00    +0.048 A 
ATOM      6  C   UNL     1     -18.307  18.577  86.841  0.00  0.00    +0.116 A 
ATOM      7  N   UNL     1     -18.432  17.292  87.322  0.00  0.00    -0.223 NA
ATOM      8  C   UNL     1     -17.540  16.789  88.252  0.00  0.00    +0.220 A 
ATOM      9  N   UNL     1     -17.651  15.502  88.756  0.00  0.00    -0.283 N 
ATOM     36  H   UNL     1     -16.968  15.166  89.435  0.00  0.00    +0.155 HD
ATOM     37  N   UNL     1     -16.529  17.561  88.701  0.00  0.00    -0.214 NA
BRANCH   4   3
ATOM      1  C   UNL     1     -12.951  20.744  88.657  0.00  0.00    +0.020 A 
ATOM      2  C   UNL     1     -14.042  20.017  88.050  0.00  0.00    +0.013 A 
ATOM      3  C   UNL     1     -15.196  19.608  88.840  0.00  0.00    +0.019 A 
ATOM     38  C   UNL     1     -15.216  19.953  90.253  0.00  0.00    +0.120 A 
ATOM     39  N   UNL     1     -14.150  20.653  90.812  0.00  0.00    -0.263 NA
ATOM     40  C   UNL     1     -13.034  21.050  90.061  0.00  0.00    +0.111 A 
ENDBRANCH   4   3
ENDBRANCH  10   9
BRANCH  12  13
ATOM     13  N   UNL     1     -19.185  11.589  86.094  0.00  0.00    -0.281 N 
ATOM     14  C   UNL     1     -18.610  10.363  86.386  0.00  0.00    +0.248 C 
ATOM     30  O   UNL     1     -18.020  10.107  87.425  0.00  0.00    -0.270 OA
ATOM     31  H   UNL     1     -19.471  11.731  85.125  0.00  0.00    +0.155 HD
BRANCH  14  15
ATOM     15  C   UNL     1     -18.690   9.268  85.372  0.00  0.00    +0.037 A 
ATOM     16  C   UNL     1     -18.402   9.520  83.958  0.00  0.00    +0.013 A 
ATOM     17  C   UNL     1     -18.503   8.450  82.998  0.00  0.00    +0.005 A 
ATOM     18  C   UNL     1     -18.892   7.116  83.450  0.00  0.00    -0.033 A 
ATOM     28  C   UNL     1     -19.166   6.893  84.860  0.00  0.00    +0.005 A 
ATOM     29  C   UNL     1     -19.070   7.940  85.804  0.00  0.00    +0.013 A 
BRANCH  18  19
ATOM     19  C   UNL     1     -19.045   5.920  82.492  0.00  0.00    +0.119 C 
BRANCH  19  20
ATOM     20  N   UNL     1     -20.383   5.716  81.861  0.00  0.00    -0.302 NA
ATOM     21  C   UNL     1     -20.587   6.621  80.643  0.00  0.00    +0.066 C 
ATOM     22  C   UNL     1     -21.983   6.379  79.981  0.00  0.00    -0.064 C 
ATOM     23  N   UNL     1     -23.083   6.611  81.019  0.00  0.00    +0.379 N 
ATOM     24  C   UNL     1     -24.399   6.441  80.385  0.00  0.00    -0.096 C 
ATOM     25  H   UNL     1     -23.007   7.669  81.361  0.00  0.00    -0.082 HD
ATOM     26  C   UNL     1     -22.886   5.717  82.235  0.00  0.00    -0.064 C 
ATOM     27  C   UNL     1     -21.485   5.944  82.867  0.00  0.00    +0.066 C 
ENDBRANCH  19  20
ENDBRANCH  18  19
ENDBRANCH  14  15
ENDBRANCH  12  13
TORSDOF 6
ENDMDL
MODEL 2
REMARK VINA RESULT:      -9.8      9.846     12.009
REMARK  Name = C:\Users\Docking\Desktop\test protocol\1iep_ligandH.pdb
REMARK  8 active torsions:
REMARK  status: ('A' for Active; 'I' for Inactive)
REMARK    1  A    between atoms: _5  and  _11
REMARK    2  A    between atoms: _19  and  _21
REMARK    3  A    between atoms: _22  and  _66
REMARK    4  A    between atoms: _27  and  _30
REMARK    5  A    between atoms: _32  and  _33
REMARK    6  A    between atoms: _38  and  _43
REMARK    7  A    between atoms: _43  and  _46
REMARK    8  A    between atoms: _53  and  _55
REMARK                            x       y       z     vdW  Elec       q    Type
REMARK                         _______ _______ _______ _____ _____    ______ ____
ROOT
ATOM     10  C   UNL     1     -23.854  20.374  86.337  0.00  0.00    +0.038 A 
ATOM     11  C   UNL     1     -24.992  19.620  85.952  0.00  0.00    +0.047 A 
ATOM     12  C   UNL     1     -25.989  20.171  85.047  0.00  0.00    +0.035 A 
ATOM     32  C   UNL     1     -25.793  21.492  84.549  0.00  0.00    +0.024 A 
ATOM     33  C   UNL     1     -24.642  22.273  84.930  0.00  0.00    +0.007 A 
ATOM     34  C   UNL     1     -23.657  21.736  85.825  0.00  0.00    -0.029 A 
ATOM     35  C   UNL     1     -22.447  22.620  86.204  0.00  0.00    +0.045 C 
ENDROOT
BRANCH  10   9
ATOM      4  C   UNL     1     -19.444  18.805  87.397  0.00  0.00    +0.077 A 
ATOM      5  C   UNL     1     -18.947  19.140  86.093  0.00  0.00    +0.048 A 
ATOM      6  C   UNL     1     -19.861  19.708  85.177  0.00  0.00    +0.116 A 
ATOM      7  N   UNL     1     -21.171  19.920  85.548  0.00  0.00    -0.223 NA
ATOM      8  C   UNL     1     -21.618  19.584  86.812  0.00  0.00    +0.220 A 
ATOM      9  N   UNL     1     -22.929  19.796  87.209  0.00  0.00    -0.283 N 
ATOM     36  H   UNL     1     -23.221  19.528  88.148  0.00  0.00    +0.155 HD
ATOM     37  N   UNL     1     -20.765  19.039  87.705  0.00  0.00    -0.214 NA
BRANCH   4   3
ATOM      1  C   UNL     1     -16.551  18.149  89.947  0.00  0.00    +0.020 A 
ATOM      2  C   UNL     1     -17.327  18.772  88.900  0.00  0.00    +0.013 A 
ATOM      3  C   UNL     1     -18.600  18.201  88.476  0.00  0.00    +0.019 A 
ATOM     38  C   UNL     1     -19.063  16.991  89.139  0.00  0.00    +0.120 A 
ATOM     39  N   UNL     1     -18.294  16.414  90.144  0.00  0.00    -0.263 NA
ATOM     40  C   UNL     1     -17.067  16.953  90.559  0.00  0.00    +0.111 A 
ENDBRANCH   4   3
ENDBRANCH  10   9
BRANCH  12  13
ATOM     13  N   UNL     1     -27.168  19.456  84.628  0.00  0.00    -0.281 N 
ATOM     14  C   UNL     1     -28.052  18.736  85.415  0.00  0.00    +0.248 C 
ATOM     30  O   UNL     1     -27.843  18.418  86.576  0.00  0.00    -0.270 OA
ATOM     31  H   UNL     1     -27.377  19.483  83.630  0.00  0.00    +0.155 HD
BRANCH  14  15
ATOM     15  C   UNL     1     -29.351  18.292  84.822  0.00  0.00    +0.037 A 
ATOM     16  C   UNL     1     -29.706  16.873  84.747  0.00  0.00    +0.013 A 
ATOM     17  C   UNL     1     -30.958  16.471  84.155  0.00  0.00    +0.005 A 
ATOM     18  C   UNL     1     -31.863  17.491  83.633  0.00  0.00    -0.033 A 
ATOM     28  C   UNL     1     -31.488  18.892  83.724  0.00  0.00    +0.005 A 
ATOM     29  C   UNL     1     -30.262  19.290  84.303  0.00  0.00    +0.013 A 
BRANCH  18  19
ATOM     19  C   UNL     1     -33.209  17.153  82.965  0.00  0.00    +0.119 C 
BRANCH  19  20
ATOM     20  N   UNL     1     -33.700  18.083  81.905  0.00  0.00    -0.302 NA
ATOM     21  C   UNL     1     -35.030  18.739  82.288  0.00  0.00    +0.066 C 
ATOM     22  C   UNL     1     -35.517  19.727  81.178  0.00  0.00    -0.064 C 
ATOM     23  N   UNL     1     -35.646  18.976  79.852  0.00  0.00    +0.379 N 
ATOM     24  C   UNL     1     -36.160  19.888  78.819  0.00  0.00    -0.096 C 
ATOM     25  H   UNL     1     -36.399  18.166  79.994  0.00  0.00    -0.082 HD
ATOM     26  C   UNL     1     -34.329  18.318  79.465  0.00  0.00    -0.064 C 
ATOM     27  C   UNL     1     -33.839  17.361  80.588  0.00  0.00    +0.066 C 
ENDBRANCH  19  20
ENDBRANCH  18  19
ENDBRANCH  14  15
ENDBRANCH  12  13
TORSDOF 6
ENDMDL
MODEL 3
REMARK VINA RESULT:      -9.8     12.931     17.767
REMARK  Name = C:\Users\Docking\Desktop\test protocol\1iep_ligandH.pdb
REMARK  8 active torsions:
REMARK  status: ('A' for Active; 'I' for Inactive)
REMARK    1  A    between atoms: _5  and  _11
REMARK    2  A    between atoms: _19  and  _21
REMARK    3  A    between atoms: _22  and  _66
REMARK    4  A    between atoms: _27  and  _30
REMARK    5  A    between atoms: _32  and  _33
REMARK    6  A    between atoms: _38  and  _43
REMARK    7  A    between atoms: _43  and  _46
REMARK    8  A    between atoms: _53  and  _55
REMARK                            x       y       z     vdW  Elec       q    Type
REMARK                         _______ _______ _______ _____ _____    ______ ____
ROOT
ATOM     10  C   UNL     1     -32.784  18.887  82.437  0.00  0.00    +0.038 A 
ATOM     11  C   UNL     1     -31.519  19.493  82.650  0.00  0.00    +0.047 A 
ATOM     12  C   UNL     1     -30.555  18.917  83.575  0.00  0.00    +0.035 A 
ATOM     32  C   UNL     1     -30.912  17.722  84.265  0.00  0.00    +0.024 A 
ATOM     33  C   UNL     1     -32.194  17.093  84.061  0.00  0.00    +0.007 A 
ATOM     34  C   UNL     1     -33.149  17.658  83.152  0.00  0.00    -0.029 A 
ATOM     35  C   UNL     1     -34.511  16.946  82.978  0.00  0.00    +0.045 C 
ENDROOT
BRANCH  10   9
ATOM      4  C   UNL     1     -34.940  19.135  78.156  0.00  0.00    +0.077 A 
ATOM      5  C   UNL     1     -34.219  17.998  77.661  0.00  0.00    +0.048 A 
ATOM      6  C   UNL     1     -33.298  17.382  78.537  0.00  0.00    +0.116 A 
ATOM      7  N   UNL     1     -33.119  17.875  79.812  0.00  0.00    -0.223 NA
ATOM      8  C   UNL     1     -33.829  18.975  80.257  0.00  0.00    +0.220 A 
ATOM      9  N   UNL     1     -33.671  19.483  81.538  0.00  0.00    -0.283 N 
ATOM     36  H   UNL     1     -34.208  20.300  81.826  0.00  0.00    +0.155 HD
ATOM     37  N   UNL     1     -34.714  19.582  79.439  0.00  0.00    -0.214 NA
BRANCH   4   3
ATOM      1  C   UNL     1     -38.157  20.083  76.142  0.00  0.00    +0.020 A 
ATOM      2  C   UNL     1     -37.215  19.309  76.918  0.00  0.00    +0.013 A 
ATOM      3  C   UNL     1     -35.951  19.892  77.352  0.00  0.00    +0.019 A 
ATOM     38  C   UNL     1     -35.669  21.271  76.982  0.00  0.00    +0.120 A 
ATOM     39  N   UNL     1     -36.595  21.991  76.233  0.00  0.00    -0.263 NA
ATOM     40  C   UNL     1     -37.813  21.441  75.809  0.00  0.00    +0.111 A 
ENDBRANCH   4   3
ENDBRANCH  10   9
BRANCH  12  13
ATOM     13  N   UNL     1     -29.259  19.491  83.838  0.00  0.00    -0.281 N 
ATOM     14  C   UNL     1     -28.658  19.710  85.067  0.00  0.00    +0.248 C 
ATOM     30  O   UNL     1     -29.236  19.640  86.141  0.00  0.00    -0.270 OA
ATOM     31  H   UNL     1     -28.720  19.771  83.019  0.00  0.00    +0.155 HD
BRANCH  14  15
ATOM     15  C   UNL     1     -27.209  20.073  85.107  0.00  0.00    +0.037 A 
ATOM     16  C   UNL     1     -26.242  19.259  85.849  0.00  0.00    +0.013 A 
ATOM     17  C   UNL     1     -24.852  19.641  85.886  0.00  0.00    +0.005 A 
ATOM     18  C   UNL     1     -24.421  20.843  85.176  0.00  0.00    -0.033 A 
ATOM     28  C   UNL     1     -25.400  21.628  84.443  0.00  0.00    +0.005 A 
ATOM     29  C   UNL     1     -26.763  21.258  84.406  0.00  0.00    +0.013 A 
BRANCH  18  19
ATOM     19  C   UNL     1     -22.962  21.337  85.178  0.00  0.00    +0.119 C 
BRANCH  19  20
ATOM     20  N   UNL     1     -21.913  20.370  85.619  0.00  0.00    -0.302 NA
ATOM     21  C   UNL     1     -22.194  19.817  87.019  0.00  0.00    +0.066 C 
ATOM     22  C   UNL     1     -21.099  18.790  87.455  0.00  0.00    -0.064 C 
ATOM     23  N   UNL     1     -19.725  19.461  87.403  0.00  0.00    +0.379 N 
ATOM     24  C   UNL     1     -18.700  18.516  87.868  0.00  0.00    -0.096 C 
ATOM     25  H   UNL     1     -19.741  20.320  88.114  0.00  0.00    -0.082 HD
ATOM     26  C   UNL     1     -19.439  20.016  86.015  0.00  0.00    -0.064 C 
ATOM     27  C   UNL     1     -20.549  21.013  85.579  0.00  0.00    +0.066 C 
ENDBRANCH  19  20
ENDBRANCH  18  19
ENDBRANCH  14  15
ENDBRANCH  12  13
TORSDOF 6
ENDMDL
MODEL 4
REMARK VINA RESULT:      -9.7     20.173     24.463
REMARK  Name = C:\Users\Docking\Desktop\test protocol\1iep_ligandH.pdb
REMARK  8 active torsions:
REMARK  status: ('A' for Active; 'I' for Inactive)
REMARK    1  A    between atoms: _5  and  _11
REMARK    2  A    between atoms: _19  and  _21
REMARK    3  A    between atoms: _22  and  _66
REMARK    4  A    between atoms: _27  and  _30
REMARK    5  A    between atoms: _32  and  _33
REMARK    6  A    between atoms: _38  and  _43
REMARK    7  A    between atoms: _43  and  _46
REMARK    8  A    between atoms: _53  and  _55
REMARK                            x       y       z     vdW  Elec       q    Type
REMARK                         _______ _______ _______ _____ _____    ______ ____
ROOT
ATOM     10  C   UNL     1     -35.375  19.646  92.690  0.00  0.00    +0.038 A 
ATOM     11  C   UNL     1     -36.235  20.586  92.065  0.00  0.00    +0.047 A 
ATOM     12  C   UNL     1     -35.733  21.514  91.064  0.00  0.00    +0.035 A 
ATOM     32  C   UNL     1     -34.351  21.456  90.721  0.00  0.00    +0.024 A 
ATOM     33  C   UNL     1     -33.463  20.509  91.347  0.00  0.00    +0.007 A 
ATOM     34  C   UNL     1     -33.951  19.592  92.338  0.00  0.00    -0.029 A 
ATOM     35  C   UNL     1     -32.953  18.602  92.981  0.00  0.00    +0.045 C 
ENDROOT
BRANCH  10   9
ATOM      4  C   UNL     1     -36.705  18.594  97.181  0.00  0.00    +0.077 A 
ATOM      5  C   UNL     1     -36.273  19.871  97.671  0.00  0.00    +0.048 A 
ATOM      6  C   UNL     1     -35.708  20.768  96.736  0.00  0.00    +0.116 A 
ATOM      7  N   UNL     1     -35.588  20.403  95.413  0.00  0.00    -0.223 NA
ATOM      8  C   UNL     1     -36.013  19.163  94.973  0.00  0.00    +0.220 A 
ATOM      9  N   UNL     1     -35.910  18.779  93.645  0.00  0.00    -0.283 N 
ATOM     36  H   UNL     1     -36.228  17.852  93.362  0.00  0.00    +0.155 HD
ATOM     37  N   UNL     1     -36.555  18.289  95.846  0.00  0.00    -0.214 NA
BRANCH   4   3
ATOM      1  C   UNL     1     -37.328  15.274  99.153  0.00  0.00    +0.020 A 
ATOM      2  C   UNL     1     -36.686  16.257  98.311  0.00  0.00    +0.013 A 
ATOM      3  C   UNL     1     -37.325  17.540  98.045  0.00  0.00    +0.019 A 
ATOM     38  C   UNL     1     -38.622  17.799  98.652  0.00  0.00    +0.120 A 
ATOM     39  N   UNL     1     -39.216  16.833  99.457  0.00  0.00    -0.263 NA
ATOM     40  C   UNL     1     -38.612  15.594  99.719  0.00  0.00    +0.111 A 
ENDBRANCH   4   3
ENDBRANCH  10   9
BRANCH  12  13
ATOM     13  N   UNL     1     -36.557  22.495  90.401  0.00  0.00    -0.281 N 
ATOM     14  C   UNL     1     -37.253  22.359  89.211  0.00  0.00    +0.248 C 
ATOM     30  O   UNL     1     -37.100  21.437  88.423  0.00  0.00    -0.270 OA
ATOM     31  H   UNL     1     -36.636  23.399  90.866  0.00  0.00    +0.155 HD
BRANCH  14  15
ATOM     15  C   UNL     1     -38.253  23.404  88.836  0.00  0.00    +0.037 A 
ATOM     16  C   UNL     1     -38.524  23.727  87.433  0.00  0.00    +0.013 A 
ATOM     17  C   UNL     1     -39.481  24.752  87.099  0.00  0.00    +0.005 A 
ATOM     18  C   UNL     1     -40.176  25.460  88.171  0.00  0.00    -0.033 A 
ATOM     28  C   UNL     1     -39.891  25.116  89.554  0.00  0.00    +0.005 A 
ATOM     29  C   UNL     1     -38.953  24.113  89.886  0.00  0.00    +0.013 A 
BRANCH  18  19
ATOM     19  C   UNL     1     -41.197  26.582  87.908  0.00  0.00    +0.119 C 
BRANCH  19  20
ATOM     20  N   UNL     1     -40.661  27.962  87.706  0.00  0.00    -0.302 NA
ATOM     21  C   UNL     1     -41.449  29.006  88.502  0.00  0.00    +0.066 C 
ATOM     22  C   UNL     1     -40.861  30.440  88.297  0.00  0.00    -0.064 C 
ATOM     23  N   UNL     1     -40.862  30.781  86.806  0.00  0.00    +0.379 N 
ATOM     24  C   UNL     1     -40.364  32.151  86.616  0.00  0.00    -0.096 C 
ATOM     25  H   UNL     1     -41.920  30.754  86.454  0.00  0.00    -0.082 HD
ATOM     26  C   UNL     1     -40.083  29.746  86.007  0.00  0.00    -0.064 C 
ATOM     27  C   UNL     1     -40.658  28.321  86.241  0.00  0.00    +0.066 C 
ENDBRANCH  19  20
ENDBRANCH  18  19
ENDBRANCH  14  15
ENDBRANCH  12  13
TORSDOF 6
ENDMDL
MODEL 5
REMARK VINA RESULT:      -9.5      1.499      2.047
REMARK  Name = C:\Users\Docking\Desktop\test protocol\1iep_ligandH.pdb
REMARK  8 active torsions:
REMARK  status: ('A' for Active; 'I' for Inactive)
REMARK    1  A    between atoms: _5  and  _11
REMARK    2  A    between atoms: _19  and  _21
REMARK    3  A    between atoms: _22  and  _66
REMARK    4  A    between atoms: _27  and  _30
REMARK    5  A    between atoms: _32  and  _33
REMARK    6  A    between atoms: _38  and  _43
REMARK    7  A    between atoms: _43  and  _46
REMARK    8  A    between atoms: _53  and  _55
REMARK                            x       y       z     vdW  Elec       q    Type
REMARK                         _______ _______ _______ _____ _____    ______ ____
ROOT
ATOM     10  C   UNL     1     -18.606  14.474  88.946  0.00  0.00    +0.038 A 
ATOM     11  C   UNL     1     -18.414  13.559  87.879  0.00  0.00    +0.047 A 
ATOM     12  C   UNL     1     -19.453  12.612  87.504  0.00  0.00    +0.035 A 
ATOM     32  C   UNL     1     -20.677  12.628  88.234  0.00  0.00    +0.024 A 
ATOM     33  C   UNL     1     -20.888  13.551  89.322  0.00  0.00    +0.007 A 
ATOM     34  C   UNL     1     -19.866  14.485  89.698  0.00  0.00    -0.029 A 
ATOM     35  C   UNL     1     -20.145  15.447  90.876  0.00  0.00    +0.045 C 
ENDROOT
BRANCH  10   9
ATOM      4  C   UNL     1     -16.366  18.696  88.500  0.00  0.00    +0.077 A 
ATOM      5  C   UNL     1     -17.315  19.164  87.532  0.00  0.00    +0.048 A 
ATOM      6  C   UNL     1     -18.361  18.285  87.170  0.00  0.00    +0.116 A 
ATOM      7  N   UNL     1     -18.442  17.034  87.741  0.00  0.00    -0.223 NA
ATOM      8  C   UNL     1     -17.508  16.612  88.671  0.00  0.00    +0.220 A 
ATOM      9  N   UNL     1     -17.575  15.361  89.263  0.00  0.00    -0.283 N 
ATOM     36  H   UNL     1     -16.863  15.085  89.939  0.00  0.00    +0.155 HD
ATOM     37  N   UNL     1     -16.499  17.432  89.031  0.00  0.00    -0.214 NA
BRANCH   4   3
ATOM      1  C   UNL     1     -13.905  20.685  90.798  0.00  0.00    +0.020 A 
ATOM      2  C   UNL     1     -15.043  19.900  90.381  0.00  0.00    +0.013 A 
ATOM      3  C   UNL     1     -15.207  19.509  88.986  0.00  0.00    +0.019 A 
ATOM     38  C   UNL     1     -14.193  19.932  88.032  0.00  0.00    +0.120 A 
ATOM     39  N   UNL     1     -13.108  20.689  88.463  0.00  0.00    -0.263 NA
ATOM     40  C   UNL     1     -12.941  21.073  89.802  0.00  0.00    +0.111 A 
ENDBRANCH   4   3
ENDBRANCH  10   9
BRANCH  12  13
ATOM     13  N   UNL     1     -19.312  11.654  86.436  0.00  0.00    -0.281 N 
ATOM     14  C   UNL     1     -19.035  10.301  86.537  0.00  0.00    +0.248 C 
ATOM     30  O   UNL     1     -18.653   9.748  87.558  0.00  0.00    -0.270 OA
ATOM     31  H   UNL     1     -19.431  12.018  85.490  0.00  0.00    +0.155 HD
BRANCH  14  15
ATOM     15  C   UNL     1     -19.190   9.439  85.325  0.00  0.00    +0.037 A 
ATOM     16  C   UNL     1     -18.305   9.588  84.168  0.00  0.00    +0.013 A 
ATOM     17  C   UNL     1     -18.487   8.756  83.005  0.00  0.00    +0.005 A 
ATOM     18  C   UNL     1     -19.561   7.765  82.996  0.00  0.00    -0.033 A 
ATOM     28  C   UNL     1     -20.422   7.635  84.159  0.00  0.00    +0.005 A 
ATOM     29  C   UNL     1     -20.247   8.450  85.300  0.00  0.00    +0.013 A 
BRANCH  18  19
ATOM     19  C   UNL     1     -19.843   6.849  81.790  0.00  0.00    +0.119 C 
BRANCH  19  20
ATOM     20  N   UNL     1     -19.805   5.375  82.028  0.00  0.00    -0.302 NA
ATOM     21  C   UNL     1     -18.810   4.669  81.102  0.00  0.00    +0.066 C 
ATOM     22  C   UNL     1     -18.767   3.131  81.380  0.00  0.00    -0.064 C 
ATOM     23  N   UNL     1     -20.170   2.546  81.213  0.00  0.00    +0.379 N 
ATOM     24  C   UNL     1     -20.122   1.091  81.417  0.00  0.00    -0.096 C 
ATOM     25  H   UNL     1     -20.490   2.730  80.161  0.00  0.00    -0.082 HD
ATOM     26  C   UNL     1     -21.166   3.244  82.128  0.00  0.00    -0.064 C 
ATOM     27  C   UNL     1     -21.180   4.776  81.864  0.00  0.00    +0.066 C 
ENDBRANCH  19  20
ENDBRANCH  18  19
ENDBRANCH  14  15
ENDBRANCH  12  13
TORSDOF 6
ENDMDL
