MODEL 1
REMARK VINA RESULT:      -8.7      0.000      0.000
REMARK  Name = C:\Users\Docking\Desktop\test protocol\1iep_ligandH.pdb
REMARK  8 active torsions:
REMARK  status: ('A' for Active; 'I' for Inactive)
REMARK    1  A    between atoms: _5  and  _11
REMARK    2  A    between atoms: _19  and  _21
REMARK    3  A    between atoms: _22  and  _66
REMARK    4  A    between atoms: _27  and  _30
REMARK    5  A    between atoms: _32  and  _33
REMARK    6  A    between atoms: _38  and  _43
REMARK    7  A    between atoms: _43  and  _46
REMARK    8  A    between atoms: _53  and  _55
REMARK                            x       y       z     vdW  Elec       q    Type
REMARK                         _______ _______ _______ _____ _____    ______ ____
ROOT
ATOM     10  C   UNL     1      15.053  55.682  21.774  0.00  0.00    +0.038 A 
ATOM     11  C   UNL     1      15.297  57.002  21.317  0.00  0.00    +0.047 A 
ATOM     12  C   UNL     1      14.493  57.593  20.259  0.00  0.00    +0.035 A 
ATOM     32  C   UNL     1      13.445  56.812  19.690  0.00  0.00    +0.024 A 
ATOM     33  C   UNL     1      13.183  55.468  20.142  0.00  0.00    +0.007 A 
ATOM     34  C   UNL     1      13.975  54.879  21.184  0.00  0.00    -0.029 A 
ATOM     35  C   UNL     1      13.653  53.432  21.625  0.00  0.00    +0.045 C 
ENDROOT
BRANCH  10   9
ATOM      4  C   UNL     1      18.999  53.430  23.323  0.00  0.00    +0.077 A 
ATOM      5  C   UNL     1      19.489  53.246  21.987  0.00  0.00    +0.048 A 
ATOM      6  C   UNL     1      18.692  53.739  20.929  0.00  0.00    +0.116 A 
ATOM      7  N   UNL     1      17.496  54.368  21.199  0.00  0.00    -0.223 NA
ATOM      8  C   UNL     1      17.052  54.528  22.498  0.00  0.00    +0.220 A 
ATOM      9  N   UNL     1      15.856  55.164  22.793  0.00  0.00    -0.283 N 
ATOM     36  H   UNL     1      15.559  55.256  23.764  0.00  0.00    +0.155 HD
ATOM     37  N   UNL     1      17.793  54.065  23.526  0.00  0.00    -0.214 NA
BRANCH   4   3
ATOM      1  C   UNL     1      19.894  51.630  26.678  0.00  0.00    +0.020 A 
ATOM      2  C   UNL     1      19.147  52.046  25.513  0.00  0.00    +0.013 A 
ATOM      3  C   UNL     1      19.728  52.968  24.546  0.00  0.00    +0.019 A 
ATOM     38  C   UNL     1      21.078  53.454  24.787  0.00  0.00    +0.120 A 
ATOM     39  N   UNL     1      21.773  53.037  25.918  0.00  0.00    -0.263 NA
ATOM     40  C   UNL     1      21.223  52.151  26.857  0.00  0.00    +0.111 A 
ENDBRANCH   4   3
ENDBRANCH  10   9
BRANCH  12  13
ATOM     13  N   UNL     1      14.700  58.925  19.748  0.00  0.00    -0.281 N 
ATOM     14  C   UNL     1      13.840  60.009  19.821  0.00  0.00    +0.248 C 
ATOM     30  O   UNL     1      12.666  59.938  20.153  0.00  0.00    -0.270 OA
ATOM     31  H   UNL     1      15.589  59.089  19.274  0.00  0.00    +0.155 HD
BRANCH  14  15
ATOM     15  C   UNL     1      14.355  61.365  19.461  0.00  0.00    +0.037 A 
ATOM     16  C   UNL     1      13.908  62.049  18.245  0.00  0.00    +0.013 A 
ATOM     17  C   UNL     1      14.433  63.350  17.912  0.00  0.00    +0.005 A 
ATOM     18  C   UNL     1      15.412  63.975  18.798  0.00  0.00    -0.033 A 
ATOM     28  C   UNL     1      15.835  63.276  20.001  0.00  0.00    +0.005 A 
ATOM     29  C   UNL     1      15.323  62.001  20.330  0.00  0.00    +0.013 A 
BRANCH  18  19
ATOM     19  C   UNL     1      16.042  65.351  18.511  0.00  0.00    +0.119 C 
BRANCH  19  20
ATOM     20  N   UNL     1      15.416  66.178  17.436  0.00  0.00    -0.302 NA
ATOM     21  C   UNL     1      16.007  65.871  16.057  0.00  0.00    +0.066 C 
ATOM     22  C   UNL     1      15.325  66.729  14.942  0.00  0.00    -0.064 C 
ATOM     23  N   UNL     1      15.479  68.213  15.279  0.00  0.00    +0.379 N 
ATOM     24  C   UNL     1      14.890  69.024  14.203  0.00  0.00    -0.096 C 
ATOM     25  H   UNL     1      16.570  68.440  15.315  0.00  0.00    -0.082 HD
ATOM     26  C   UNL     1      14.896  68.527  16.650  0.00  0.00    -0.064 C 
ATOM     27  C   UNL     1      15.560  67.648  17.747  0.00  0.00    +0.066 C 
ENDBRANCH  19  20
ENDBRANCH  18  19
ENDBRANCH  14  15
ENDBRANCH  12  13
TORSDOF 6
ENDMDL
MODEL 2
REMARK VINA RESULT:      -8.6      1.567      2.402
REMARK  Name = C:\Users\Docking\Desktop\test protocol\1iep_ligandH.pdb
REMARK  8 active torsions:
REMARK  status: ('A' for Active; 'I' for Inactive)
REMARK    1  A    between atoms: _5  and  _11
REMARK    2  A    between atoms: _19  and  _21
REMARK    3  A    between atoms: _22  and  _66
REMARK    4  A    between atoms: _27  and  _30
REMARK    5  A    between atoms: _32  and  _33
REMARK    6  A    between atoms: _38  and  _43
REMARK    7  A    between atoms: _43  and  _46
REMARK    8  A    between atoms: _53  and  _55
REMARK                            x       y       z     vdW  Elec       q    Type
REMARK                         _______ _______ _______ _____ _____    ______ ____
ROOT
ATOM     10  C   UNL     1      15.056  55.721  21.788  0.00  0.00    +0.038 A 
ATOM     11  C   UNL     1      15.316  57.037  21.326  0.00  0.00    +0.047 A 
ATOM     12  C   UNL     1      14.506  57.640  20.279  0.00  0.00    +0.035 A 
ATOM     32  C   UNL     1      13.438  56.875  19.726  0.00  0.00    +0.024 A 
ATOM     33  C   UNL     1      13.161  55.536  20.183  0.00  0.00    +0.007 A 
ATOM     34  C   UNL     1      13.958  54.935  21.214  0.00  0.00    -0.029 A 
ATOM     35  C   UNL     1      13.620  53.494  21.660  0.00  0.00    +0.045 C 
ENDROOT
BRANCH  10   9
ATOM      4  C   UNL     1      18.988  53.409  23.282  0.00  0.00    +0.077 A 
ATOM      5  C   UNL     1      19.457  53.216  21.940  0.00  0.00    +0.048 A 
ATOM      6  C   UNL     1      18.653  53.721  20.893  0.00  0.00    +0.116 A 
ATOM      7  N   UNL     1      17.471  54.369  21.179  0.00  0.00    -0.223 NA
ATOM      8  C   UNL     1      17.047  54.536  22.485  0.00  0.00    +0.220 A 
ATOM      9  N   UNL     1      15.866  55.192  22.796  0.00  0.00    -0.283 N 
ATOM     36  H   UNL     1      15.584  55.288  23.771  0.00  0.00    +0.155 HD
ATOM     37  N   UNL     1      17.796  54.062  23.502  0.00  0.00    -0.214 NA
BRANCH   4   3
ATOM      1  C   UNL     1      19.947  51.510  26.565  0.00  0.00    +0.020 A 
ATOM      2  C   UNL     1      19.192  51.933  25.408  0.00  0.00    +0.013 A 
ATOM      3  C   UNL     1      19.727  52.935  24.495  0.00  0.00    +0.019 A 
ATOM     38  C   UNL     1      21.039  53.494  24.784  0.00  0.00    +0.120 A 
ATOM     39  N   UNL     1      21.743  53.069  25.906  0.00  0.00    -0.263 NA
ATOM     40  C   UNL     1      21.237  52.106  26.793  0.00  0.00    +0.111 A 
ENDBRANCH   4   3
ENDBRANCH  10   9
BRANCH  12  13
ATOM     13  N   UNL     1      14.727  58.969  19.764  0.00  0.00    -0.281 N 
ATOM     14  C   UNL     1      13.859  60.048  19.792  0.00  0.00    +0.248 C 
ATOM     30  O   UNL     1      12.672  59.973  20.075  0.00  0.00    -0.270 OA
ATOM     31  H   UNL     1      15.633  59.134  19.327  0.00  0.00    +0.155 HD
BRANCH  14  15
ATOM     15  C   UNL     1      14.381  61.403  19.440  0.00  0.00    +0.037 A 
ATOM     16  C   UNL     1      15.434  62.041  20.233  0.00  0.00    +0.013 A 
ATOM     17  C   UNL     1      15.908  63.357  19.882  0.00  0.00    +0.005 A 
ATOM     18  C   UNL     1      15.328  64.043  18.730  0.00  0.00    -0.033 A 
ATOM     28  C   UNL     1      14.287  63.385  17.957  0.00  0.00    +0.005 A 
ATOM     29  C   UNL     1      13.820  62.096  18.299  0.00  0.00    +0.013 A 
BRANCH  18  19
ATOM     19  C   UNL     1      15.757  65.457  18.295  0.00  0.00    +0.119 C 
BRANCH  19  20
ATOM     20  N   UNL     1      16.968  66.035  18.950  0.00  0.00    -0.302 NA
ATOM     21  C   UNL     1      16.607  66.911  20.153  0.00  0.00    +0.066 C 
ATOM     22  C   UNL     1      17.887  67.490  20.840  0.00  0.00    -0.064 C 
ATOM     23  N   UNL     1      18.697  68.285  19.815  0.00  0.00    +0.379 N 
ATOM     24  C   UNL     1      19.871  68.879  20.471  0.00  0.00    -0.096 C 
ATOM     25  H   UNL     1      18.055  69.120  19.450  0.00  0.00    -0.082 HD
ATOM     26  C   UNL     1      19.058  67.423  18.614  0.00  0.00    -0.064 C 
ATOM     27  C   UNL     1      17.781  66.828  17.956  0.00  0.00    +0.066 C 
ENDBRANCH  19  20
ENDBRANCH  18  19
ENDBRANCH  14  15
ENDBRANCH  12  13
TORSDOF 6
ENDMDL
MODEL 3
REMARK VINA RESULT:      -8.4     16.090     18.643
REMARK  Name = C:\Users\Docking\Desktop\test protocol\1iep_ligandH.pdb
REMARK  8 active torsions:
REMARK  status: ('A' for Active; 'I' for Inactive)
REMARK    1  A    between atoms: _5  and  _11
REMARK    2  A    between atoms: _19  and  _21
REMARK    3  A    between atoms: _22  and  _66
REMARK    4  A    between atoms: _27  and  _30
REMARK    5  A    between atoms: _32  and  _33
REMARK    6  A    between atoms: _38  and  _43
REMARK    7  A    between atoms: _43  and  _46
REMARK    8  A    between atoms: _53  and  _55
REMARK                            x       y       z     vdW  Elec       q    Type
REMARK                         _______ _______ _______ _____ _____    ______ ____
ROOT
ATOM     10  C   UNL     1      22.382  73.734  19.715  0.00  0.00    +0.038 A 
ATOM     11  C   UNL     1      21.507  73.921  18.615  0.00  0.00    +0.047 A 
ATOM     12  C   UNL     1      20.064  73.931  18.793  0.00  0.00    +0.035 A 
ATOM     32  C   UNL     1      19.545  73.751  20.109  0.00  0.00    +0.024 A 
ATOM     33  C   UNL     1      20.419  73.559  21.239  0.00  0.00    +0.007 A 
ATOM     34  C   UNL     1      21.844  73.545  21.068  0.00  0.00    -0.029 A 
ATOM     35  C   UNL     1      22.733  73.329  22.315  0.00  0.00    +0.045 C 
ENDROOT
BRANCH  10   9
ATOM      4  C   UNL     1      26.663  75.903  19.651  0.00  0.00    +0.077 A 
ATOM      5  C   UNL     1      26.104  77.151  20.085  0.00  0.00    +0.048 A 
ATOM      6  C   UNL     1      24.709  77.194  20.306  0.00  0.00    +0.116 A 
ATOM      7  N   UNL     1      23.941  76.068  20.106  0.00  0.00    -0.223 NA
ATOM      8  C   UNL     1      24.512  74.881  19.686  0.00  0.00    +0.220 A 
ATOM      9  N   UNL     1      23.759  73.733  19.486  0.00  0.00    -0.283 N 
ATOM     36  H   UNL     1      24.217  72.879  19.169  0.00  0.00    +0.155 HD
ATOM     37  N   UNL     1      25.841  74.814  19.466  0.00  0.00    -0.214 NA
BRANCH   4   3
ATOM      1  C   UNL     1      30.262  74.374  19.545  0.00  0.00    +0.020 A 
ATOM      2  C   UNL     1      28.855  74.525  19.835  0.00  0.00    +0.013 A 
ATOM      3  C   UNL     1      28.121  75.697  19.378  0.00  0.00    +0.019 A 
ATOM     38  C   UNL     1      28.846  76.708  18.621  0.00  0.00    +0.120 A 
ATOM     39  N   UNL     1      30.201  76.536  18.358  0.00  0.00    -0.263 NA
ATOM     40  C   UNL     1      30.918  75.413  18.794  0.00  0.00    +0.111 A 
ENDBRANCH   4   3
ENDBRANCH  10   9
BRANCH  12  13
ATOM     13  N   UNL     1      19.126  74.108  17.712  0.00  0.00    -0.281 N 
ATOM     14  C   UNL     1      18.142  73.232  17.286  0.00  0.00    +0.248 C 
ATOM     30  O   UNL     1      18.058  72.064  17.637  0.00  0.00    -0.270 OA
ATOM     31  H   UNL     1      19.197  74.987  17.198  0.00  0.00    +0.155 HD
BRANCH  14  15
ATOM     15  C   UNL     1      17.110  73.718  16.320  0.00  0.00    +0.037 A 
ATOM     16  C   UNL     1      16.647  75.108  16.340  0.00  0.00    +0.013 A 
ATOM     17  C   UNL     1      15.638  75.547  15.408  0.00  0.00    +0.005 A 
ATOM     18  C   UNL     1      15.088  74.594  14.447  0.00  0.00    -0.033 A 
ATOM     28  C   UNL     1      15.570  73.223  14.446  0.00  0.00    +0.005 A 
ATOM     29  C   UNL     1      16.557  72.789  15.358  0.00  0.00    +0.013 A 
BRANCH  18  19
ATOM     19  C   UNL     1      13.994  74.970  13.430  0.00  0.00    +0.119 C 
BRANCH  19  20
ATOM     20  N   UNL     1      13.891  76.406  13.035  0.00  0.00    -0.302 NA
ATOM     21  C   UNL     1      12.770  77.130  13.787  0.00  0.00    +0.066 C 
ATOM     22  C   UNL     1      12.692  78.637  13.378  0.00  0.00    -0.064 C 
ATOM     23  N   UNL     1      12.486  78.743  11.866  0.00  0.00    +0.379 N 
ATOM     24  C   UNL     1      12.354  80.157  11.486  0.00  0.00    -0.096 C 
ATOM     25  H   UNL     1      11.525  78.235  11.619  0.00  0.00    -0.082 HD
ATOM     26  C   UNL     1      13.595  78.023  11.111  0.00  0.00    -0.064 C 
ATOM     27  C   UNL     1      13.684  76.534  11.546  0.00  0.00    +0.066 C 
ENDBRANCH  19  20
ENDBRANCH  18  19
ENDBRANCH  14  15
ENDBRANCH  12  13
TORSDOF 6
ENDMDL
MODEL 4
REMARK VINA RESULT:      -8.4     15.583     18.571
REMARK  Name = C:\Users\Docking\Desktop\test protocol\1iep_ligandH.pdb
REMARK  8 active torsions:
REMARK  status: ('A' for Active; 'I' for Inactive)
REMARK    1  A    between atoms: _5  and  _11
REMARK    2  A    between atoms: _19  and  _21
REMARK    3  A    between atoms: _22  and  _66
REMARK    4  A    between atoms: _27  and  _30
REMARK    5  A    between atoms: _32  and  _33
REMARK    6  A    between atoms: _38  and  _43
REMARK    7  A    between atoms: _43  and  _46
REMARK    8  A    between atoms: _53  and  _55
REMARK                            x       y       z     vdW  Elec       q    Type
REMARK                         _______ _______ _______ _____ _____    ______ ____
ROOT
ATOM     10  C   UNL     1      19.993  73.558  18.617  0.00  0.00    +0.038 A 
ATOM     11  C   UNL     1      19.212  74.072  17.550  0.00  0.00    +0.047 A 
ATOM     12  C   UNL     1      17.765  73.929  17.540  0.00  0.00    +0.035 A 
ATOM     32  C   UNL     1      17.144  73.259  18.634  0.00  0.00    +0.024 A 
ATOM     33  C   UNL     1      17.922  72.729  19.726  0.00  0.00    +0.007 A 
ATOM     34  C   UNL     1      19.351  72.864  19.741  0.00  0.00    -0.029 A 
ATOM     35  C   UNL     1      20.135  72.271  20.934  0.00  0.00    +0.045 C 
ENDROOT
BRANCH  10   9
ATOM      4  C   UNL     1      23.973  76.127  19.385  0.00  0.00    +0.077 A 
ATOM      5  C   UNL     1      23.226  77.245  19.885  0.00  0.00    +0.048 A 
ATOM      6  C   UNL     1      21.819  77.121  19.922  0.00  0.00    +0.116 A 
ATOM      7  N   UNL     1      21.215  75.961  19.488  0.00  0.00    -0.223 NA
ATOM      8  C   UNL     1      21.965  74.902  19.010  0.00  0.00    +0.220 A 
ATOM      9  N   UNL     1      21.379  73.723  18.576  0.00  0.00    -0.283 N 
ATOM     36  H   UNL     1      21.967  72.968  18.223  0.00  0.00    +0.155 HD
ATOM     37  N   UNL     1      23.310  74.997  18.964  0.00  0.00    -0.214 NA
BRANCH   4   3
ATOM      1  C   UNL     1      27.720  75.052  19.711  0.00  0.00    +0.020 A 
ATOM      2  C   UNL     1      26.280  75.026  19.833  0.00  0.00    +0.013 A 
ATOM      3  C   UNL     1      25.467  76.105  19.287  0.00  0.00    +0.019 A 
ATOM     38  C   UNL     1      26.146  77.204  18.618  0.00  0.00    +0.120 A 
ATOM     39  N   UNL     1      27.534  77.203  18.517  0.00  0.00    -0.263 NA
ATOM     40  C   UNL     1      28.327  76.171  19.040  0.00  0.00    +0.111 A 
ENDBRANCH   4   3
ENDBRANCH  10   9
BRANCH  12  13
ATOM     13  N   UNL     1      16.922  74.424  16.480  0.00  0.00    -0.281 N 
ATOM     14  C   UNL     1      16.347  73.706  15.444  0.00  0.00    +0.248 C 
ATOM     30  O   UNL     1      16.646  72.559  15.148  0.00  0.00    -0.270 OA
ATOM     31  H   UNL     1      16.724  75.425  16.496  0.00  0.00    +0.155 HD
BRANCH  14  15
ATOM     15  C   UNL     1      15.297  74.363  14.606  0.00  0.00    +0.037 A 
ATOM     16  C   UNL     1      15.108  75.816  14.626  0.00  0.00    +0.013 A 
ATOM     17  C   UNL     1      14.077  76.422  13.821  0.00  0.00    +0.005 A 
ATOM     18  C   UNL     1      13.227  75.574  12.988  0.00  0.00    -0.033 A 
ATOM     28  C   UNL     1      13.440  74.136  12.984  0.00  0.00    +0.005 A 
ATOM     29  C   UNL     1      14.449  73.538  13.772  0.00  0.00    +0.013 A 
BRANCH  18  19
ATOM     19  C   UNL     1      12.089  76.132  12.114  0.00  0.00    +0.119 C 
BRANCH  19  20
ATOM     20  N   UNL     1      12.452  77.162  11.095  0.00  0.00    -0.302 NA
ATOM     21  C   UNL     1      13.737  76.801  10.346  0.00  0.00    +0.066 C 
ATOM     22  C   UNL     1      14.090  77.878   9.268  0.00  0.00    -0.064 C 
ATOM     23  N   UNL     1      14.221  79.245   9.942  0.00  0.00    +0.379 N 
ATOM     24  C   UNL     1      14.609  80.250   8.941  0.00  0.00    -0.096 C 
ATOM     25  H   UNL     1      15.045  79.176  10.689  0.00  0.00    -0.082 HD
ATOM     26  C   UNL     1      12.948  79.611  10.692  0.00  0.00    -0.064 C 
ATOM     27  C   UNL     1      12.590  78.520  11.739  0.00  0.00    +0.066 C 
ENDBRANCH  19  20
ENDBRANCH  18  19
ENDBRANCH  14  15
ENDBRANCH  12  13
TORSDOF 6
ENDMDL
MODEL 5
REMARK VINA RESULT:      -8.4      3.679     12.355
REMARK  Name = C:\Users\Docking\Desktop\test protocol\1iep_ligandH.pdb
REMARK  8 active torsions:
REMARK  status: ('A' for Active; 'I' for Inactive)
REMARK    1  A    between atoms: _5  and  _11
REMARK    2  A    between atoms: _19  and  _21
REMARK    3  A    between atoms: _22  and  _66
REMARK    4  A    between atoms: _27  and  _30
REMARK    5  A    between atoms: _32  and  _33
REMARK    6  A    between atoms: _38  and  _43
REMARK    7  A    between atoms: _43  and  _46
REMARK    8  A    between atoms: _53  and  _55
REMARK                            x       y       z     vdW  Elec       q    Type
REMARK                         _______ _______ _______ _____ _____    ______ ____
ROOT
ATOM     10  C   UNL     1      15.445  65.467  19.525  0.00  0.00    +0.038 A 
ATOM     11  C   UNL     1      15.438  64.081  19.826  0.00  0.00    +0.047 A 
ATOM     12  C   UNL     1      14.736  63.130  18.978  0.00  0.00    +0.035 A 
ATOM     32  C   UNL     1      14.053  63.626  17.829  0.00  0.00    +0.024 A 
ATOM     33  C   UNL     1      14.049  65.031  17.509  0.00  0.00    +0.007 A 
ATOM     34  C   UNL     1      14.738  65.974  18.343  0.00  0.00    -0.029 A 
ATOM     35  C   UNL     1      14.695  67.470  17.955  0.00  0.00    +0.045 C 
ENDROOT
BRANCH  10   9
ATOM      4  C   UNL     1      19.294  68.096  20.671  0.00  0.00    +0.077 A 
ATOM      5  C   UNL     1      20.000  67.684  19.492  0.00  0.00    +0.048 A 
ATOM      6  C   UNL     1      19.340  66.789  18.620  0.00  0.00    +0.116 A 
ATOM      7  N   UNL     1      18.069  66.346  18.915  0.00  0.00    -0.223 NA
ATOM      8  C   UNL     1      17.417  66.761  20.062  0.00  0.00    +0.220 A 
ATOM      9  N   UNL     1      16.135  66.335  20.374  0.00  0.00    -0.283 N 
ATOM     36  H   UNL     1      15.692  66.659  21.233  0.00  0.00    +0.155 HD
ATOM     37  N   UNL     1      18.026  67.615  20.911  0.00  0.00    -0.214 NA
BRANCH   4   3
ATOM      1  C   UNL     1      20.618  69.619  24.022  0.00  0.00    +0.020 A 
ATOM      2  C   UNL     1      20.071  68.669  23.080  0.00  0.00    +0.013 A 
ATOM      3  C   UNL     1      19.856  69.040  21.688  0.00  0.00    +0.019 A 
ATOM     38  C   UNL     1      20.209  70.391  21.276  0.00  0.00    +0.120 A 
ATOM     39  N   UNL     1      20.732  71.284  22.205  0.00  0.00    -0.263 NA
ATOM     40  C   UNL     1      20.942  70.939  23.549  0.00  0.00    +0.111 A 
ENDBRANCH   4   3
ENDBRANCH  10   9
BRANCH  12  13
ATOM     13  N   UNL     1      14.687  61.713  19.238  0.00  0.00    -0.281 N 
ATOM     14  C   UNL     1      13.590  60.952  19.608  0.00  0.00    +0.248 C 
ATOM     30  O   UNL     1      12.522  61.415  19.981  0.00  0.00    -0.270 OA
ATOM     31  H   UNL     1      15.568  61.209  19.136  0.00  0.00    +0.155 HD
BRANCH  14  15
ATOM     15  C   UNL     1      13.699  59.462  19.572  0.00  0.00    +0.037 A 
ATOM     16  C   UNL     1      12.880  58.618  20.445  0.00  0.00    +0.013 A 
ATOM     17  C   UNL     1      13.017  57.184  20.402  0.00  0.00    +0.005 A 
ATOM     18  C   UNL     1      13.978  56.584  19.480  0.00  0.00    -0.033 A 
ATOM     28  C   UNL     1      14.775  57.444  18.621  0.00  0.00    +0.005 A 
ATOM     29  C   UNL     1      14.643  58.850  18.661  0.00  0.00    +0.013 A 
BRANCH  18  19
ATOM     19  C   UNL     1      14.206  55.064  19.382  0.00  0.00    +0.119 C 
BRANCH  19  20
ATOM     20  N   UNL     1      14.954  54.411  20.497  0.00  0.00    -0.302 NA
ATOM     21  C   UNL     1      14.141  54.382  21.795  0.00  0.00    +0.066 C 
ATOM     22  C   UNL     1      14.930  53.676  22.945  0.00  0.00    -0.064 C 
ATOM     23  N   UNL     1      16.265  54.392  23.158  0.00  0.00    +0.379 N 
ATOM     24  C   UNL     1      16.984  53.766  24.278  0.00  0.00    -0.096 C 
ATOM     25  H   UNL     1      16.042  55.445  23.446  0.00  0.00    -0.082 HD
ATOM     26  C   UNL     1      17.079  54.428  21.872  0.00  0.00    -0.064 C 
ATOM     27  C   UNL     1      16.274  55.105  20.728  0.00  0.00    +0.066 C 
ENDBRANCH  19  20
ENDBRANCH  18  19
ENDBRANCH  14  15
ENDBRANCH  12  13
TORSDOF 6
ENDMDL
