MODEL 1
REMARK VINA RESULT:      -8.9      0.000      0.000
REMARK  Name = C:\Users\Docking\Desktop\test protocol\1iep_ligandH.pdb
REMARK  8 active torsions:
REMARK  status: ('A' for Active; 'I' for Inactive)
REMARK    1  A    between atoms: _5  and  _11
REMARK    2  A    between atoms: _19  and  _21
REMARK    3  A    between atoms: _22  and  _66
REMARK    4  A    between atoms: _27  and  _30
REMARK    5  A    between atoms: _32  and  _33
REMARK    6  A    between atoms: _38  and  _43
REMARK    7  A    between atoms: _43  and  _46
REMARK    8  A    between atoms: _53  and  _55
REMARK                            x       y       z     vdW  Elec       q    Type
REMARK                         _______ _______ _______ _____ _____    ______ ____
ROOT
ATOM     10  C   UNL     1      14.670  55.441  21.738  0.00  0.00    +0.038 A 
ATOM     11  C   UNL     1      14.930  56.755  21.270  0.00  0.00    +0.047 A 
ATOM     12  C   UNL     1      14.107  57.361  20.234  0.00  0.00    +0.035 A 
ATOM     32  C   UNL     1      13.026  56.601  19.699  0.00  0.00    +0.024 A 
ATOM     33  C   UNL     1      12.749  55.264  20.162  0.00  0.00    +0.007 A 
ATOM     34  C   UNL     1      13.558  54.661  21.182  0.00  0.00    -0.029 A 
ATOM     35  C   UNL     1      13.219  53.222  21.636  0.00  0.00    +0.045 C 
ENDROOT
BRANCH  10   9
ATOM      4  C   UNL     1      18.655  53.189  23.182  0.00  0.00    +0.077 A 
ATOM      5  C   UNL     1      19.128  53.037  21.836  0.00  0.00    +0.048 A 
ATOM      6  C   UNL     1      18.312  53.545  20.800  0.00  0.00    +0.116 A 
ATOM      7  N   UNL     1      17.115  54.159  21.100  0.00  0.00    -0.223 NA
ATOM      8  C   UNL     1      16.688  54.288  22.409  0.00  0.00    +0.220 A 
ATOM      9  N   UNL     1      15.492  54.909  22.734  0.00  0.00    -0.283 N 
ATOM     36  H   UNL     1      15.208  54.977  23.711  0.00  0.00    +0.155 HD
ATOM     37  N   UNL     1      17.448  53.809  23.415  0.00  0.00    -0.214 NA
BRANCH   4   3
ATOM      1  C   UNL     1      21.477  52.557  25.815  0.00  0.00    +0.020 A 
ATOM      2  C   UNL     1      20.799  53.049  24.638  0.00  0.00    +0.013 A 
ATOM      3  C   UNL     1      19.405  52.707  24.384  0.00  0.00    +0.019 A 
ATOM     38  C   UNL     1      18.721  51.859  25.349  0.00  0.00    +0.120 A 
ATOM     39  N   UNL     1      19.400  51.399  26.472  0.00  0.00    -0.263 NA
ATOM     40  C   UNL     1      20.742  51.720  26.726  0.00  0.00    +0.111 A 
ENDBRANCH   4   3
ENDBRANCH  10   9
BRANCH  12  13
ATOM     13  N   UNL     1      14.328  58.687  19.714  0.00  0.00    -0.281 N 
ATOM     14  C   UNL     1      13.530  59.809  19.874  0.00  0.00    +0.248 C 
ATOM     30  O   UNL     1      12.390  59.789  20.314  0.00  0.00    -0.270 OA
ATOM     31  H   UNL     1      15.174  58.815  19.159  0.00  0.00    +0.155 HD
BRANCH  14  15
ATOM     15  C   UNL     1      14.072  61.143  19.475  0.00  0.00    +0.037 A 
ATOM     16  C   UNL     1      13.675  61.779  18.216  0.00  0.00    +0.013 A 
ATOM     17  C   UNL     1      14.226  63.059  17.846  0.00  0.00    +0.005 A 
ATOM     18  C   UNL     1      15.179  63.713  18.740  0.00  0.00    -0.033 A 
ATOM     28  C   UNL     1      15.551  63.062  19.985  0.00  0.00    +0.005 A 
ATOM     29  C   UNL     1      15.014  61.807  20.350  0.00  0.00    +0.013 A 
BRANCH  18  19
ATOM     19  C   UNL     1      15.833  65.069  18.416  0.00  0.00    +0.119 C 
BRANCH  19  20
ATOM     20  N   UNL     1      15.189  65.904  17.359  0.00  0.00    -0.302 NA
ATOM     21  C   UNL     1      15.742  65.592  15.965  0.00  0.00    +0.066 C 
ATOM     22  C   UNL     1      15.042  66.458  14.868  0.00  0.00    -0.064 C 
ATOM     23  N   UNL     1      15.219  67.940  15.202  0.00  0.00    +0.379 N 
ATOM     24  C   UNL     1      14.612  68.758  14.142  0.00  0.00    -0.096 C 
ATOM     25  H   UNL     1      16.313  68.156  15.211  0.00  0.00    -0.082 HD
ATOM     26  C   UNL     1      14.674  68.258  16.587  0.00  0.00    -0.064 C 
ATOM     27  C   UNL     1      15.356  67.372  17.666  0.00  0.00    +0.066 C 
ENDBRANCH  19  20
ENDBRANCH  18  19
ENDBRANCH  14  15
ENDBRANCH  12  13
TORSDOF 6
ENDMDL
MODEL 2
REMARK VINA RESULT:      -8.8      5.366     10.104
REMARK  Name = C:\Users\Docking\Desktop\test protocol\1iep_ligandH.pdb
REMARK  8 active torsions:
REMARK  status: ('A' for Active; 'I' for Inactive)
REMARK    1  A    between atoms: _5  and  _11
REMARK    2  A    between atoms: _19  and  _21
REMARK    3  A    between atoms: _22  and  _66
REMARK    4  A    between atoms: _27  and  _30
REMARK    5  A    between atoms: _32  and  _33
REMARK    6  A    between atoms: _38  and  _43
REMARK    7  A    between atoms: _43  and  _46
REMARK    8  A    between atoms: _53  and  _55
REMARK                            x       y       z     vdW  Elec       q    Type
REMARK                         _______ _______ _______ _____ _____    ______ ____
ROOT
ATOM     10  C   UNL     1      16.205  65.044  18.988  0.00  0.00    +0.038 A 
ATOM     11  C   UNL     1      15.727  65.800  17.888  0.00  0.00    +0.047 A 
ATOM     12  C   UNL     1      15.847  67.250  17.862  0.00  0.00    +0.035 A 
ATOM     32  C   UNL     1      16.464  67.896  18.973  0.00  0.00    +0.024 A 
ATOM     33  C   UNL     1      16.955  67.143  20.099  0.00  0.00    +0.007 A 
ATOM     34  C   UNL     1      16.836  65.713  20.132  0.00  0.00    -0.029 A 
ATOM     35  C   UNL     1      17.374  64.957  21.369  0.00  0.00    +0.045 C 
ENDROOT
BRANCH  10   9
ATOM      4  C   UNL     1      13.588  61.046  19.443  0.00  0.00    +0.077 A 
ATOM      5  C   UNL     1      12.410  61.787  19.793  0.00  0.00    +0.048 A 
ATOM      6  C   UNL     1      12.522  63.194  19.851  0.00  0.00    +0.116 A 
ATOM      7  N   UNL     1      13.726  63.805  19.578  0.00  0.00    -0.223 NA
ATOM      8  C   UNL     1      14.844  63.061  19.246  0.00  0.00    +0.220 A 
ATOM      9  N   UNL     1      16.063  63.655  18.960  0.00  0.00    -0.283 N 
ATOM     36  H   UNL     1      16.866  63.071  18.726  0.00  0.00    +0.155 HD
ATOM     37  N   UNL     1      14.763  61.715  19.185  0.00  0.00    -0.214 NA
BRANCH   4   3
ATOM      1  C   UNL     1      12.955  57.240  20.083  0.00  0.00    +0.020 A 
ATOM      2  C   UNL     1      12.882  58.675  20.229  0.00  0.00    +0.013 A 
ATOM      3  C   UNL     1      13.629  59.554  19.337  0.00  0.00    +0.019 A 
ATOM     38  C   UNL     1      14.446  58.943  18.300  0.00  0.00    +0.120 A 
ATOM     39  N   UNL     1      14.498  57.557  18.184  0.00  0.00    -0.263 NA
ATOM     40  C   UNL     1      13.786  56.702  19.038  0.00  0.00    +0.111 A 
ENDBRANCH   4   3
ENDBRANCH  10   9
BRANCH  12  13
ATOM     13  N   UNL     1      15.373  68.071  16.776  0.00  0.00    -0.281 N 
ATOM     14  C   UNL     1      14.841  67.659  15.565  0.00  0.00    +0.248 C 
ATOM     30  O   UNL     1      14.890  66.513  15.143  0.00  0.00    -0.270 OA
ATOM     31  H   UNL     1      15.437  69.080  16.917  0.00  0.00    +0.155 HD
BRANCH  14  15
ATOM     15  C   UNL     1      14.170  68.667  14.690  0.00  0.00    +0.037 A 
ATOM     16  C   UNL     1      13.109  69.536  15.206  0.00  0.00    +0.013 A 
ATOM     17  C   UNL     1      12.467  70.489  14.336  0.00  0.00    +0.005 A 
ATOM     18  C   UNL     1      12.885  70.579  12.939  0.00  0.00    -0.033 A 
ATOM     28  C   UNL     1      13.944  69.709  12.455  0.00  0.00    +0.005 A 
ATOM     29  C   UNL     1      14.575  68.773  13.304  0.00  0.00    +0.013 A 
BRANCH  18  19
ATOM     19  C   UNL     1      12.241  71.552  11.934  0.00  0.00    +0.119 C 
BRANCH  19  20
ATOM     20  N   UNL     1      12.188  72.994  12.316  0.00  0.00    -0.302 NA
ATOM     21  C   UNL     1      11.830  73.891  11.128  0.00  0.00    +0.066 C 
ATOM     22  C   UNL     1      11.757  75.394  11.550  0.00  0.00    -0.064 C 
ATOM     23  N   UNL     1      13.095  75.815  12.162  0.00  0.00    +0.379 N 
ATOM     24  C   UNL     1      13.049  77.243  12.507  0.00  0.00    -0.096 C 
ATOM     25  H   UNL     1      13.880  75.680  11.382  0.00  0.00    -0.082 HD
ATOM     26  C   UNL     1      13.460  74.926  13.343  0.00  0.00    -0.064 C 
ATOM     27  C   UNL     1      13.501  73.432  12.919  0.00  0.00    +0.066 C 
ENDBRANCH  19  20
ENDBRANCH  18  19
ENDBRANCH  14  15
ENDBRANCH  12  13
TORSDOF 6
ENDMDL
MODEL 3
REMARK VINA RESULT:      -8.7      3.757     12.366
REMARK  Name = C:\Users\Docking\Desktop\test protocol\1iep_ligandH.pdb
REMARK  8 active torsions:
REMARK  status: ('A' for Active; 'I' for Inactive)
REMARK    1  A    between atoms: _5  and  _11
REMARK    2  A    between atoms: _19  and  _21
REMARK    3  A    between atoms: _22  and  _66
REMARK    4  A    between atoms: _27  and  _30
REMARK    5  A    between atoms: _32  and  _33
REMARK    6  A    between atoms: _38  and  _43
REMARK    7  A    between atoms: _43  and  _46
REMARK    8  A    between atoms: _53  and  _55
REMARK                            x       y       z     vdW  Elec       q    Type
REMARK                         _______ _______ _______ _____ _____    ______ ____
ROOT
ATOM     10  C   UNL     1      15.272  65.353  19.437  0.00  0.00    +0.038 A 
ATOM     11  C   UNL     1      15.243  63.967  19.736  0.00  0.00    +0.047 A 
ATOM     12  C   UNL     1      14.559  63.023  18.865  0.00  0.00    +0.035 A 
ATOM     32  C   UNL     1      13.917  63.525  17.696  0.00  0.00    +0.024 A 
ATOM     33  C   UNL     1      13.936  64.931  17.377  0.00  0.00    +0.007 A 
ATOM     34  C   UNL     1      14.607  65.867  18.233  0.00  0.00    -0.029 A 
ATOM     35  C   UNL     1      14.589  67.364  17.846  0.00  0.00    +0.045 C 
ENDROOT
BRANCH  10   9
ATOM      4  C   UNL     1      19.136  67.881  20.746  0.00  0.00    +0.077 A 
ATOM      5  C   UNL     1      19.890  67.427  19.613  0.00  0.00    +0.048 A 
ATOM      6  C   UNL     1      19.250  66.537  18.722  0.00  0.00    +0.116 A 
ATOM      7  N   UNL     1      17.951  66.139  18.955  0.00  0.00    -0.223 NA
ATOM      8  C   UNL     1      17.253  66.595  20.058  0.00  0.00    +0.220 A 
ATOM      9  N   UNL     1      15.943  66.214  20.307  0.00  0.00    -0.283 N 
ATOM     36  H   UNL     1      15.465  66.567  21.136  0.00  0.00    +0.155 HD
ATOM     37  N   UNL     1      17.842  67.444  20.925  0.00  0.00    -0.214 NA
BRANCH   4   3
ATOM      1  C   UNL     1      20.406  69.395  24.121  0.00  0.00    +0.020 A 
ATOM      2  C   UNL     1      19.885  68.445  23.166  0.00  0.00    +0.013 A 
ATOM      3  C   UNL     1      19.673  68.826  21.776  0.00  0.00    +0.019 A 
ATOM     38  C   UNL     1      20.004  70.186  21.380  0.00  0.00    +0.120 A 
ATOM     39  N   UNL     1      20.504  71.080  22.322  0.00  0.00    -0.263 NA
ATOM     40  C   UNL     1      20.709  70.725  23.664  0.00  0.00    +0.111 A 
ENDBRANCH   4   3
ENDBRANCH  10   9
BRANCH  12  13
ATOM     13  N   UNL     1      14.490  61.606  19.122  0.00  0.00    -0.281 N 
ATOM     14  C   UNL     1      13.365  60.843  19.391  0.00  0.00    +0.248 C 
ATOM     30  O   UNL     1      12.266  61.304  19.664  0.00  0.00    -0.270 OA
ATOM     31  H   UNL     1      15.377  61.104  19.103  0.00  0.00    +0.155 HD
BRANCH  14  15
ATOM     15  C   UNL     1      13.480  59.353  19.368  0.00  0.00    +0.037 A 
ATOM     16  C   UNL     1      14.361  58.674  18.415  0.00  0.00    +0.013 A 
ATOM     17  C   UNL     1      14.441  57.235  18.402  0.00  0.00    +0.005 A 
ATOM     18  C   UNL     1      13.637  56.465  19.348  0.00  0.00    -0.033 A 
ATOM     28  C   UNL     1      12.775  57.164  20.286  0.00  0.00    +0.005 A 
ATOM     29  C   UNL     1      12.693  58.575  20.301  0.00  0.00    +0.013 A 
BRANCH  18  19
ATOM     19  C   UNL     1      13.642  54.925  19.391  0.00  0.00    +0.119 C 
BRANCH  19  20
ATOM     20  N   UNL     1      14.481  54.274  20.442  0.00  0.00    -0.302 NA
ATOM     21  C   UNL     1      13.775  54.241  21.801  0.00  0.00    +0.066 C 
ATOM     22  C   UNL     1      14.657  53.536  22.882  0.00  0.00    -0.064 C 
ATOM     23  N   UNL     1      16.003  54.256  22.988  0.00  0.00    +0.379 N 
ATOM     24  C   UNL     1      16.812  53.632  24.045  0.00  0.00    -0.096 C 
ATOM     25  H   UNL     1      15.799  55.309  23.294  0.00  0.00    -0.082 HD
ATOM     26  C   UNL     1      16.709  54.296  21.641  0.00  0.00    -0.064 C 
ATOM     27  C   UNL     1      15.813  54.972  20.566  0.00  0.00    +0.066 C 
ENDBRANCH  19  20
ENDBRANCH  18  19
ENDBRANCH  14  15
ENDBRANCH  12  13
TORSDOF 6
ENDMDL
MODEL 4
REMARK VINA RESULT:      -8.6      4.150     12.631
REMARK  Name = C:\Users\Docking\Desktop\test protocol\1iep_ligandH.pdb
REMARK  8 active torsions:
REMARK  status: ('A' for Active; 'I' for Inactive)
REMARK    1  A    between atoms: _5  and  _11
REMARK    2  A    between atoms: _19  and  _21
REMARK    3  A    between atoms: _22  and  _66
REMARK    4  A    between atoms: _27  and  _30
REMARK    5  A    between atoms: _32  and  _33
REMARK    6  A    between atoms: _38  and  _43
REMARK    7  A    between atoms: _43  and  _46
REMARK    8  A    between atoms: _53  and  _55
REMARK                            x       y       z     vdW  Elec       q    Type
REMARK                         _______ _______ _______ _____ _____    ______ ____
ROOT
ATOM     10  C   UNL     1      15.810  65.706  19.433  0.00  0.00    +0.038 A 
ATOM     11  C   UNL     1      15.713  64.316  19.695  0.00  0.00    +0.047 A 
ATOM     12  C   UNL     1      15.099  63.410  18.737  0.00  0.00    +0.035 A 
ATOM     32  C   UNL     1      14.597  63.954  17.519  0.00  0.00    +0.024 A 
ATOM     33  C   UNL     1      14.686  65.365  17.236  0.00  0.00    +0.007 A 
ATOM     34  C   UNL     1      15.288  66.264  18.179  0.00  0.00    -0.029 A 
ATOM     35  C   UNL     1      15.351  67.768  17.826  0.00  0.00    +0.045 C 
ENDROOT
BRANCH  10   9
ATOM      4  C   UNL     1      19.576  68.109  21.187  0.00  0.00    +0.077 A 
ATOM      5  C   UNL     1      20.430  67.664  20.124  0.00  0.00    +0.048 A 
ATOM      6  C   UNL     1      19.863  66.812  19.150  0.00  0.00    +0.116 A 
ATOM      7  N   UNL     1      18.540  66.440  19.242  0.00  0.00    -0.223 NA
ATOM      8  C   UNL     1      17.744  66.886  20.281  0.00  0.00    +0.220 A 
ATOM      9  N   UNL     1      16.408  66.530  20.388  0.00  0.00    -0.283 N 
ATOM     36  H   UNL     1      15.857  66.874  21.174  0.00  0.00    +0.155 HD
ATOM     37  N   UNL     1      18.262  67.699  21.225  0.00  0.00    -0.214 NA
BRANCH   4   3
ATOM      1  C   UNL     1      20.733  69.461  24.671  0.00  0.00    +0.020 A 
ATOM      2  C   UNL     1      20.299  68.544  23.642  0.00  0.00    +0.013 A 
ATOM      3  C   UNL     1      20.027  69.016  22.290  0.00  0.00    +0.019 A 
ATOM     38  C   UNL     1      20.206  70.432  22.010  0.00  0.00    +0.120 A 
ATOM     39  N   UNL     1      20.624  71.292  23.021  0.00  0.00    -0.263 NA
ATOM     40  C   UNL     1      20.887  70.850  24.326  0.00  0.00    +0.111 A 
ENDBRANCH   4   3
ENDBRANCH  10   9
BRANCH  12  13
ATOM     13  N   UNL     1      14.965  61.991  18.952  0.00  0.00    -0.281 N 
ATOM     14  C   UNL     1      13.801  61.264  19.141  0.00  0.00    +0.248 C 
ATOM     30  O   UNL     1      12.707  61.758  19.367  0.00  0.00    -0.270 OA
ATOM     31  H   UNL     1      15.835  61.457  18.967  0.00  0.00    +0.155 HD
BRANCH  14  15
ATOM     15  C   UNL     1      13.865  59.772  19.084  0.00  0.00    +0.037 A 
ATOM     16  C   UNL     1      14.521  59.080  17.971  0.00  0.00    +0.013 A 
ATOM     17  C   UNL     1      14.552  57.640  17.933  0.00  0.00    +0.005 A 
ATOM     18  C   UNL     1      13.927  56.880  19.013  0.00  0.00    -0.033 A 
ATOM     28  C   UNL     1      13.288  57.592  20.107  0.00  0.00    +0.005 A 
ATOM     29  C   UNL     1      13.253  59.004  20.148  0.00  0.00    +0.013 A 
BRANCH  18  19
ATOM     19  C   UNL     1      13.895  55.341  19.043  0.00  0.00    +0.119 C 
BRANCH  19  20
ATOM     20  N   UNL     1      13.592  54.689  20.352  0.00  0.00    -0.302 NA
ATOM     21  C   UNL     1      14.862  54.395  21.155  0.00  0.00    +0.066 C 
ATOM     22  C   UNL     1      14.525  53.734  22.531  0.00  0.00    -0.064 C 
ATOM     23  N   UNL     1      13.725  52.452  22.295  0.00  0.00    +0.379 N 
ATOM     24  C   UNL     1      13.456  51.797  23.584  0.00  0.00    -0.096 C 
ATOM     25  H   UNL     1      14.360  51.763  21.691  0.00  0.00    -0.082 HD
ATOM     26  C   UNL     1      12.461  52.734  21.495  0.00  0.00    -0.064 C 
ATOM     27  C   UNL     1      12.805  53.418  20.142  0.00  0.00    +0.066 C 
ENDBRANCH  19  20
ENDBRANCH  18  19
ENDBRANCH  14  15
ENDBRANCH  12  13
TORSDOF 6
ENDMDL
MODEL 5
REMARK VINA RESULT:      -8.6      4.520     12.331
REMARK  Name = C:\Users\Docking\Desktop\test protocol\1iep_ligandH.pdb
REMARK  8 active torsions:
REMARK  status: ('A' for Active; 'I' for Inactive)
REMARK    1  A    between atoms: _5  and  _11
REMARK    2  A    between atoms: _19  and  _21
REMARK    3  A    between atoms: _22  and  _66
REMARK    4  A    between atoms: _27  and  _30
REMARK    5  A    between atoms: _32  and  _33
REMARK    6  A    between atoms: _38  and  _43
REMARK    7  A    between atoms: _43  and  _46
REMARK    8  A    between atoms: _53  and  _55
REMARK                            x       y       z     vdW  Elec       q    Type
REMARK                         _______ _______ _______ _____ _____    ______ ____
ROOT
ATOM     10  C   UNL     1      15.580  64.481  18.786  0.00  0.00    +0.038 A 
ATOM     11  C   UNL     1      15.615  63.089  19.058  0.00  0.00    +0.047 A 
ATOM     12  C   UNL     1      14.594  62.194  18.536  0.00  0.00    +0.035 A 
ATOM     32  C   UNL     1      13.552  62.750  17.738  0.00  0.00    +0.024 A 
ATOM     33  C   UNL     1      13.501  64.163  17.452  0.00  0.00    +0.007 A 
ATOM     34  C   UNL     1      14.504  65.051  17.966  0.00  0.00    -0.029 A 
ATOM     35  C   UNL     1      14.395  66.557  17.633  0.00  0.00    +0.045 C 
ENDROOT
BRANCH  10   9
ATOM      4  C   UNL     1      17.600  66.914  22.397  0.00  0.00    +0.077 A 
ATOM      5  C   UNL     1      16.547  66.557  23.304  0.00  0.00    +0.048 A 
ATOM      6  C   UNL     1      15.501  65.752  22.800  0.00  0.00    +0.116 A 
ATOM      7  N   UNL     1      15.517  65.340  21.485  0.00  0.00    -0.223 NA
ATOM      8  C   UNL     1      16.546  65.703  20.636  0.00  0.00    +0.220 A 
ATOM      9  N   UNL     1      16.586  65.294  19.312  0.00  0.00    -0.283 N 
ATOM     36  H   UNL     1      17.359  65.589  18.716  0.00  0.00    +0.155 HD
ATOM     37  N   UNL     1      17.556  66.473  21.093  0.00  0.00    -0.214 NA
BRANCH   4   3
ATOM      1  C   UNL     1      20.416  68.672  24.465  0.00  0.00    +0.020 A 
ATOM      2  C   UNL     1      19.275  67.844  24.147  0.00  0.00    +0.013 A 
ATOM      3  C   UNL     1      18.776  67.757  22.781  0.00  0.00    +0.019 A 
ATOM     38  C   UNL     1      19.459  68.525  21.751  0.00  0.00    +0.120 A 
ATOM     39  N   UNL     1      20.554  69.315  22.087  0.00  0.00    -0.263 NA
ATOM     40  C   UNL     1      21.042  69.409  23.399  0.00  0.00    +0.111 A 
ENDBRANCH   4   3
ENDBRANCH  10   9
BRANCH  12  13
ATOM     13  N   UNL     1      14.573  60.774  18.787  0.00  0.00    -0.281 N 
ATOM     14  C   UNL     1      13.566  60.029  19.377  0.00  0.00    +0.248 C 
ATOM     30  O   UNL     1      12.613  60.505  19.976  0.00  0.00    -0.270 OA
ATOM     31  H   UNL     1      15.401  60.256  18.493  0.00  0.00    +0.155 HD
BRANCH  14  15
ATOM     15  C   UNL     1      13.634  58.537  19.303  0.00  0.00    +0.037 A 
ATOM     16  C   UNL     1      14.518  57.863  18.348  0.00  0.00    +0.013 A 
ATOM     17  C   UNL     1      14.551  56.423  18.286  0.00  0.00    +0.005 A 
ATOM     18  C   UNL     1      13.699  55.648  19.184  0.00  0.00    -0.033 A 
ATOM     28  C   UNL     1      12.835  56.342  20.125  0.00  0.00    +0.005 A 
ATOM     29  C   UNL     1      12.799  57.753  20.188  0.00  0.00    +0.013 A 
BRANCH  18  19
ATOM     19  C   UNL     1      13.654  54.108  19.172  0.00  0.00    +0.119 C 
BRANCH  19  20
ATOM     20  N   UNL     1      12.520  53.451  19.889  0.00  0.00    -0.302 NA
ATOM     21  C   UNL     1      12.965  52.820  21.211  0.00  0.00    +0.066 C 
ATOM     22  C   UNL     1      11.762  52.157  21.958  0.00  0.00    -0.064 C 
ATOM     23  N   UNL     1      11.115  51.111  21.049  0.00  0.00    +0.379 N 
ATOM     24  C   UNL     1      10.020  50.445  21.769  0.00  0.00    -0.096 C 
ATOM     25  H   UNL     1      11.886  50.340  20.818  0.00  0.00    -0.082 HD
ATOM     26  C   UNL     1      10.672  51.730  19.731  0.00  0.00    -0.064 C 
ATOM     27  C   UNL     1      11.869  52.412  19.011  0.00  0.00    +0.066 C 
ENDBRANCH  19  20
ENDBRANCH  18  19
ENDBRANCH  14  15
ENDBRANCH  12  13
TORSDOF 6
ENDMDL
