MODEL 1
REMARK VINA RESULT:      -8.6      0.000      0.000
REMARK  Name = C:\Users\Docking\Desktop\test protocol\1iep_ligandH.pdb
REMARK  8 active torsions:
REMARK  status: ('A' for Active; 'I' for Inactive)
REMARK    1  A    between atoms: _5  and  _11
REMARK    2  A    between atoms: _19  and  _21
REMARK    3  A    between atoms: _22  and  _66
REMARK    4  A    between atoms: _27  and  _30
REMARK    5  A    between atoms: _32  and  _33
REMARK    6  A    between atoms: _38  and  _43
REMARK    7  A    between atoms: _43  and  _46
REMARK    8  A    between atoms: _53  and  _55
REMARK                            x       y       z     vdW  Elec       q    Type
REMARK                         _______ _______ _______ _____ _____    ______ ____
ROOT
ATOM     10  C   UNL     1      15.085  55.597  21.901  0.00  0.00    +0.038 A 
ATOM     11  C   UNL     1      15.316  56.915  21.430  0.00  0.00    +0.047 A 
ATOM     12  C   UNL     1      14.471  57.506  20.403  0.00  0.00    +0.035 A 
ATOM     32  C   UNL     1      13.399  56.727  19.880  0.00  0.00    +0.024 A 
ATOM     33  C   UNL     1      13.151  55.385  20.346  0.00  0.00    +0.007 A 
ATOM     34  C   UNL     1      13.982  54.796  21.357  0.00  0.00    -0.029 A 
ATOM     35  C   UNL     1      13.673  53.351  21.814  0.00  0.00    +0.045 C 
ENDROOT
BRANCH  10   9
ATOM      4  C   UNL     1      19.087  53.345  23.297  0.00  0.00    +0.077 A 
ATOM      5  C   UNL     1      19.526  53.160  21.944  0.00  0.00    +0.048 A 
ATOM      6  C   UNL     1      18.689  53.653  20.917  0.00  0.00    +0.116 A 
ATOM      7  N   UNL     1      17.504  54.283  21.232  0.00  0.00    -0.223 NA
ATOM      8  C   UNL     1      17.110  54.443  22.548  0.00  0.00    +0.220 A 
ATOM      9  N   UNL     1      15.926  55.080  22.888  0.00  0.00    -0.283 N 
ATOM     36  H   UNL     1      15.667  55.171  23.870  0.00  0.00    +0.155 HD
ATOM     37  N   UNL     1      17.891  53.980  23.546  0.00  0.00    -0.214 NA
BRANCH   4   3
ATOM      1  C   UNL     1      21.862  52.964  26.027  0.00  0.00    +0.020 A 
ATOM      2  C   UNL     1      21.154  53.446  24.864  0.00  0.00    +0.013 A 
ATOM      3  C   UNL     1      19.863  52.883  24.491  0.00  0.00    +0.019 A 
ATOM     38  C   UNL     1      19.310  51.825  25.324  0.00  0.00    +0.120 A 
ATOM     39  N   UNL     1      20.015  51.380  26.438  0.00  0.00    -0.263 NA
ATOM     40  C   UNL     1      21.260  51.913  26.805  0.00  0.00    +0.111 A 
ENDBRANCH   4   3
ENDBRANCH  10   9
BRANCH  12  13
ATOM     13  N   UNL     1      14.662  58.836  19.881  0.00  0.00    -0.281 N 
ATOM     14  C   UNL     1      13.839  59.939  20.037  0.00  0.00    +0.248 C 
ATOM     30  O   UNL     1      12.699  59.894  20.475  0.00  0.00    -0.270 OA
ATOM     31  H   UNL     1      15.507  58.982  19.328  0.00  0.00    +0.155 HD
BRANCH  14  15
ATOM     15  C   UNL     1      14.351  61.285  19.637  0.00  0.00    +0.037 A 
ATOM     16  C   UNL     1      13.893  61.936  18.407  0.00  0.00    +0.013 A 
ATOM     17  C   UNL     1      14.415  63.227  18.035  0.00  0.00    +0.005 A 
ATOM     18  C   UNL     1      15.401  63.876  18.896  0.00  0.00    -0.033 A 
ATOM     28  C   UNL     1      15.834  63.210  20.113  0.00  0.00    +0.005 A 
ATOM     29  C   UNL     1      15.325  61.944  20.480  0.00  0.00    +0.013 A 
BRANCH  18  19
ATOM     19  C   UNL     1      16.028  65.244  18.566  0.00  0.00    +0.119 C 
BRANCH  19  20
ATOM     20  N   UNL     1      15.382  66.051  17.488  0.00  0.00    -0.302 NA
ATOM     21  C   UNL     1      15.977  65.749  16.110  0.00  0.00    +0.066 C 
ATOM     22  C   UNL     1      15.274  66.585  14.991  0.00  0.00    -0.064 C 
ATOM     23  N   UNL     1      15.394  68.074  15.320  0.00  0.00    +0.379 N 
ATOM     24  C   UNL     1      14.785  68.865  14.241  0.00  0.00    -0.096 C 
ATOM     25  H   UNL     1      16.480  68.327  15.353  0.00  0.00    -0.082 HD
ATOM     26  C   UNL     1      14.807  68.382  16.690  0.00  0.00    -0.064 C 
ATOM     27  C   UNL     1      15.493  67.525  17.790  0.00  0.00    +0.066 C 
ENDBRANCH  19  20
ENDBRANCH  18  19
ENDBRANCH  14  15
ENDBRANCH  12  13
TORSDOF 6
ENDMDL
MODEL 2
REMARK VINA RESULT:      -8.4      1.829      2.640
REMARK  Name = C:\Users\Docking\Desktop\test protocol\1iep_ligandH.pdb
REMARK  8 active torsions:
REMARK  status: ('A' for Active; 'I' for Inactive)
REMARK    1  A    between atoms: _5  and  _11
REMARK    2  A    between atoms: _19  and  _21
REMARK    3  A    between atoms: _22  and  _66
REMARK    4  A    between atoms: _27  and  _30
REMARK    5  A    between atoms: _32  and  _33
REMARK    6  A    between atoms: _38  and  _43
REMARK    7  A    between atoms: _43  and  _46
REMARK    8  A    between atoms: _53  and  _55
REMARK                            x       y       z     vdW  Elec       q    Type
REMARK                         _______ _______ _______ _____ _____    ______ ____
ROOT
ATOM     10  C   UNL     1      15.134  55.833  21.596  0.00  0.00    +0.038 A 
ATOM     11  C   UNL     1      15.322  57.179  21.191  0.00  0.00    +0.047 A 
ATOM     12  C   UNL     1      14.579  57.740  20.073  0.00  0.00    +0.035 A 
ATOM     32  C   UNL     1      13.649  56.901  19.392  0.00  0.00    +0.024 A 
ATOM     33  C   UNL     1      13.446  55.530  19.790  0.00  0.00    +0.007 A 
ATOM     34  C   UNL     1      14.178  54.971  20.890  0.00  0.00    -0.029 A 
ATOM     35  C   UNL     1      13.924  53.494  21.269  0.00  0.00    +0.045 C 
ENDROOT
BRANCH  10   9
ATOM      4  C   UNL     1      18.891  53.481  23.436  0.00  0.00    +0.077 A 
ATOM      5  C   UNL     1      19.410  53.171  22.134  0.00  0.00    +0.048 A 
ATOM      6  C   UNL     1      18.676  53.630  21.017  0.00  0.00    +0.116 A 
ATOM      7  N   UNL     1      17.511  54.344  21.200  0.00  0.00    -0.223 NA
ATOM      8  C   UNL     1      17.038  54.624  22.469  0.00  0.00    +0.220 A 
ATOM      9  N   UNL     1      15.874  55.347  22.676  0.00  0.00    -0.283 N 
ATOM     36  H   UNL     1      15.554  55.526  23.628  0.00  0.00    +0.155 HD
ATOM     37  N   UNL     1      17.720  54.196  23.552  0.00  0.00    -0.214 NA
BRANCH   4   3
ATOM      1  C   UNL     1      19.508  52.154  27.063  0.00  0.00    +0.020 A 
ATOM      2  C   UNL     1      18.819  52.537  25.853  0.00  0.00    +0.013 A 
ATOM      3  C   UNL     1      19.555  53.069  24.713  0.00  0.00    +0.019 A 
ATOM     38  C   UNL     1      21.000  53.199  24.831  0.00  0.00    +0.120 A 
ATOM     39  N   UNL     1      21.636  52.823  26.009  0.00  0.00    -0.263 NA
ATOM     40  C   UNL     1      20.938  52.312  27.113  0.00  0.00    +0.111 A 
ENDBRANCH   4   3
ENDBRANCH  10   9
BRANCH  12  13
ATOM     13  N   UNL     1      14.734  59.097  19.611  0.00  0.00    -0.281 N 
ATOM     14  C   UNL     1      13.869  60.163  19.795  0.00  0.00    +0.248 C 
ATOM     30  O   UNL     1      12.722  60.060  20.203  0.00  0.00    -0.270 OA
ATOM     31  H   UNL     1      15.585  59.296  19.085  0.00  0.00    +0.155 HD
BRANCH  14  15
ATOM     15  C   UNL     1      14.342  61.542  19.462  0.00  0.00    +0.037 A 
ATOM     16  C   UNL     1      13.802  62.274  18.314  0.00  0.00    +0.013 A 
ATOM     17  C   UNL     1      14.287  63.596  18.006  0.00  0.00    +0.005 A 
ATOM     18  C   UNL     1      15.318  64.195  18.850  0.00  0.00    -0.033 A 
ATOM     28  C   UNL     1      15.833  63.448  19.986  0.00  0.00    +0.005 A 
ATOM     29  C   UNL     1      15.360  62.152  20.290  0.00  0.00    +0.013 A 
BRANCH  18  19
ATOM     19  C   UNL     1      15.910  65.591  18.583  0.00  0.00    +0.119 C 
BRANCH  19  20
ATOM     20  N   UNL     1      17.235  65.902  19.199  0.00  0.00    -0.302 NA
ATOM     21  C   UNL     1      17.091  66.665  20.518  0.00  0.00    +0.066 C 
ATOM     22  C   UNL     1      18.485  66.961  21.160  0.00  0.00    -0.064 C 
ATOM     23  N   UNL     1      19.342  67.751  20.169  0.00  0.00    +0.379 N 
ATOM     24  C   UNL     1      20.633  68.081  20.790  0.00  0.00    -0.096 C 
ATOM     25  H   UNL     1      18.814  68.709  19.954  0.00  0.00    -0.082 HD
ATOM     26  C   UNL     1      19.488  67.000  18.853  0.00  0.00    -0.064 C 
ATOM     27  C   UNL     1      18.096  66.685  18.238  0.00  0.00    +0.066 C 
ENDBRANCH  19  20
ENDBRANCH  18  19
ENDBRANCH  14  15
ENDBRANCH  12  13
TORSDOF 6
ENDMDL
MODEL 3
REMARK VINA RESULT:      -8.3      4.428     12.655
REMARK  Name = C:\Users\Docking\Desktop\test protocol\1iep_ligandH.pdb
REMARK  8 active torsions:
REMARK  status: ('A' for Active; 'I' for Inactive)
REMARK    1  A    between atoms: _5  and  _11
REMARK    2  A    between atoms: _19  and  _21
REMARK    3  A    between atoms: _22  and  _66
REMARK    4  A    between atoms: _27  and  _30
REMARK    5  A    between atoms: _32  and  _33
REMARK    6  A    between atoms: _38  and  _43
REMARK    7  A    between atoms: _43  and  _46
REMARK    8  A    between atoms: _53  and  _55
REMARK                            x       y       z     vdW  Elec       q    Type
REMARK                         _______ _______ _______ _____ _____    ______ ____
ROOT
ATOM     10  C   UNL     1      15.321  65.300  19.593  0.00  0.00    +0.038 A 
ATOM     11  C   UNL     1      15.320  63.913  19.890  0.00  0.00    +0.047 A 
ATOM     12  C   UNL     1      14.607  62.964  19.048  0.00  0.00    +0.035 A 
ATOM     32  C   UNL     1      13.909  63.463  17.910  0.00  0.00    +0.024 A 
ATOM     33  C   UNL     1      13.899  64.869  17.594  0.00  0.00    +0.007 A 
ATOM     34  C   UNL     1      14.597  65.810  18.422  0.00  0.00    -0.029 A 
ATOM     35  C   UNL     1      14.547  67.308  18.040  0.00  0.00    +0.045 C 
ENDROOT
BRANCH  10   9
ATOM      4  C   UNL     1      19.198  67.897  20.716  0.00  0.00    +0.077 A 
ATOM      5  C   UNL     1      19.898  67.470  19.539  0.00  0.00    +0.048 A 
ATOM      6  C   UNL     1      19.228  66.576  18.674  0.00  0.00    +0.116 A 
ATOM      7  N   UNL     1      17.952  66.148  18.974  0.00  0.00    -0.223 NA
ATOM      8  C   UNL     1      17.307  66.578  20.118  0.00  0.00    +0.220 A 
ATOM      9  N   UNL     1      16.021  66.167  20.435  0.00  0.00    -0.283 N 
ATOM     36  H   UNL     1      15.582  66.500  21.293  0.00  0.00    +0.155 HD
ATOM     37  N   UNL     1      17.926  67.430  20.961  0.00  0.00    -0.214 NA
BRANCH   4   3
ATOM      1  C   UNL     1      20.550  69.425  24.054  0.00  0.00    +0.020 A 
ATOM      2  C   UNL     1      19.992  68.475  23.119  0.00  0.00    +0.013 A 
ATOM      3  C   UNL     1      19.772  68.842  21.726  0.00  0.00    +0.019 A 
ATOM     38  C   UNL     1      20.131  70.188  21.307  0.00  0.00    +0.120 A 
ATOM     39  N   UNL     1      20.665  71.082  22.230  0.00  0.00    -0.263 NA
ATOM     40  C   UNL     1      20.879  70.741  23.573  0.00  0.00    +0.111 A 
ENDBRANCH   4   3
ENDBRANCH  10   9
BRANCH  12  13
ATOM     13  N   UNL     1      14.564  61.546  19.304  0.00  0.00    -0.281 N 
ATOM     14  C   UNL     1      13.474  60.783  19.691  0.00  0.00    +0.248 C 
ATOM     30  O   UNL     1      12.413  61.244  20.084  0.00  0.00    -0.270 OA
ATOM     31  H   UNL     1      15.444  61.043  19.185  0.00  0.00    +0.155 HD
BRANCH  14  15
ATOM     15  C   UNL     1      13.584  59.293  19.647  0.00  0.00    +0.037 A 
ATOM     16  C   UNL     1      12.687  58.442  20.433  0.00  0.00    +0.013 A 
ATOM     17  C   UNL     1      12.825  57.008  20.387  0.00  0.00    +0.005 A 
ATOM     18  C   UNL     1      13.865  56.416  19.549  0.00  0.00    -0.033 A 
ATOM     28  C   UNL     1      14.737  57.284  18.775  0.00  0.00    +0.005 A 
ATOM     29  C   UNL     1      14.606  58.690  18.819  0.00  0.00    +0.013 A 
BRANCH  18  19
ATOM     19  C   UNL     1      14.098  54.897  19.454  0.00  0.00    +0.119 C 
BRANCH  19  20
ATOM     20  N   UNL     1      13.102  54.009  20.124  0.00  0.00    -0.302 NA
ATOM     21  C   UNL     1      13.682  53.331  21.369  0.00  0.00    +0.066 C 
ATOM     22  C   UNL     1      12.620  52.423  22.070  0.00  0.00    -0.064 C 
ATOM     23  N   UNL     1      12.106  51.381  21.075  0.00  0.00    +0.379 N 
ATOM     24  C   UNL     1      11.150  50.490  21.748  0.00  0.00    -0.096 C 
ATOM     25  H   UNL     1      12.977  50.763  20.754  0.00  0.00    -0.082 HD
ATOM     26  C   UNL     1      11.530  52.047  19.833  0.00  0.00    -0.064 C 
ATOM     27  C   UNL     1      12.585  52.969  19.161  0.00  0.00    +0.066 C 
ENDBRANCH  19  20
ENDBRANCH  18  19
ENDBRANCH  14  15
ENDBRANCH  12  13
TORSDOF 6
ENDMDL
MODEL 4
REMARK VINA RESULT:      -8.3      3.792     12.370
REMARK  Name = C:\Users\Docking\Desktop\test protocol\1iep_ligandH.pdb
REMARK  8 active torsions:
REMARK  status: ('A' for Active; 'I' for Inactive)
REMARK    1  A    between atoms: _5  and  _11
REMARK    2  A    between atoms: _19  and  _21
REMARK    3  A    between atoms: _22  and  _66
REMARK    4  A    between atoms: _27  and  _30
REMARK    5  A    between atoms: _32  and  _33
REMARK    6  A    between atoms: _38  and  _43
REMARK    7  A    between atoms: _43  and  _46
REMARK    8  A    between atoms: _53  and  _55
REMARK                            x       y       z     vdW  Elec       q    Type
REMARK                         _______ _______ _______ _____ _____    ______ ____
ROOT
ATOM     10  C   UNL     1      15.563  65.446  19.639  0.00  0.00    +0.038 A 
ATOM     11  C   UNL     1      15.518  64.062  19.948  0.00  0.00    +0.047 A 
ATOM     12  C   UNL     1      14.842  63.117  19.074  0.00  0.00    +0.035 A 
ATOM     32  C   UNL     1      14.223  63.616  17.890  0.00  0.00    +0.024 A 
ATOM     33  C   UNL     1      14.258  65.019  17.561  0.00  0.00    +0.007 A 
ATOM     34  C   UNL     1      14.922  65.956  18.422  0.00  0.00    -0.029 A 
ATOM     35  C   UNL     1      14.922  67.450  18.023  0.00  0.00    +0.045 C 
ENDROOT
BRANCH  10   9
ATOM      4  C   UNL     1      19.382  68.051  20.930  0.00  0.00    +0.077 A 
ATOM      5  C   UNL     1      20.128  67.637  19.777  0.00  0.00    +0.048 A 
ATOM      6  C   UNL     1      19.496  66.747  18.880  0.00  0.00    +0.116 A 
ATOM      7  N   UNL     1      18.212  66.311  19.127  0.00  0.00    -0.223 NA
ATOM      8  C   UNL     1      17.521  66.728  20.250  0.00  0.00    +0.220 A 
ATOM      9  N   UNL     1      16.227  66.308  20.515  0.00  0.00    -0.283 N 
ATOM     36  H   UNL     1      15.754  66.633  21.358  0.00  0.00    +0.155 HD
ATOM     37  N   UNL     1      18.104  67.576  21.123  0.00  0.00    -0.214 NA
BRANCH   4   3
ATOM      1  C   UNL     1      20.658  69.539  24.315  0.00  0.00    +0.020 A 
ATOM      2  C   UNL     1      20.144  68.593  23.352  0.00  0.00    +0.013 A 
ATOM      3  C   UNL     1      19.913  68.990  21.969  0.00  0.00    +0.019 A 
ATOM     38  C   UNL     1      20.215  70.362  21.590  0.00  0.00    +0.120 A 
ATOM     39  N   UNL     1      20.708  71.251  22.540  0.00  0.00    -0.263 NA
ATOM     40  C   UNL     1      20.933  70.881  23.874  0.00  0.00    +0.111 A 
ENDBRANCH   4   3
ENDBRANCH  10   9
BRANCH  12  13
ATOM     13  N   UNL     1      14.757  61.703  19.340  0.00  0.00    -0.281 N 
ATOM     14  C   UNL     1      13.619  60.947  19.571  0.00  0.00    +0.248 C 
ATOM     30  O   UNL     1      12.513  61.414  19.797  0.00  0.00    -0.270 OA
ATOM     31  H   UNL     1      15.642  61.197  19.360  0.00  0.00    +0.155 HD
BRANCH  14  15
ATOM     15  C   UNL     1      13.729  59.456  19.565  0.00  0.00    +0.037 A 
ATOM     16  C   UNL     1      14.663  58.767  18.671  0.00  0.00    +0.013 A 
ATOM     17  C   UNL     1      14.737  57.327  18.673  0.00  0.00    +0.005 A 
ATOM     18  C   UNL     1      13.875  56.567  19.575  0.00  0.00    -0.033 A 
ATOM     28  C   UNL     1      12.962  57.276  20.455  0.00  0.00    +0.005 A 
ATOM     29  C   UNL     1      12.885  58.687  20.455  0.00  0.00    +0.013 A 
BRANCH  18  19
ATOM     19  C   UNL     1      13.872  55.028  19.629  0.00  0.00    +0.119 C 
BRANCH  19  20
ATOM     20  N   UNL     1      14.720  54.379  20.673  0.00  0.00    -0.302 NA
ATOM     21  C   UNL     1      14.033  54.361  22.042  0.00  0.00    +0.066 C 
ATOM     22  C   UNL     1      14.924  53.658  23.117  0.00  0.00    -0.064 C 
ATOM     23  N   UNL     1      16.276  54.370  23.199  0.00  0.00    +0.379 N 
ATOM     24  C   UNL     1      17.095  53.748  24.249  0.00  0.00    -0.096 C 
ATOM     25  H   UNL     1      16.084  55.426  23.500  0.00  0.00    -0.082 HD
ATOM     26  C   UNL     1      16.965  54.394  21.841  0.00  0.00    -0.064 C 
ATOM     27  C   UNL     1      16.058  55.068  20.774  0.00  0.00    +0.066 C 
ENDBRANCH  19  20
ENDBRANCH  18  19
ENDBRANCH  14  15
ENDBRANCH  12  13
TORSDOF 6
ENDMDL
MODEL 5
REMARK VINA RESULT:      -8.3      4.633     12.304
REMARK  Name = C:\Users\Docking\Desktop\test protocol\1iep_ligandH.pdb
REMARK  8 active torsions:
REMARK  status: ('A' for Active; 'I' for Inactive)
REMARK    1  A    between atoms: _5  and  _11
REMARK    2  A    between atoms: _19  and  _21
REMARK    3  A    between atoms: _22  and  _66
REMARK    4  A    between atoms: _27  and  _30
REMARK    5  A    between atoms: _32  and  _33
REMARK    6  A    between atoms: _38  and  _43
REMARK    7  A    between atoms: _43  and  _46
REMARK    8  A    between atoms: _53  and  _55
REMARK                            x       y       z     vdW  Elec       q    Type
REMARK                         _______ _______ _______ _____ _____    ______ ____
ROOT
ATOM     10  C   UNL     1      15.747  64.265  19.073  0.00  0.00    +0.038 A 
ATOM     11  C   UNL     1      15.783  62.881  19.380  0.00  0.00    +0.047 A 
ATOM     12  C   UNL     1      14.777  61.968  18.860  0.00  0.00    +0.035 A 
ATOM     32  C   UNL     1      13.749  62.499  18.028  0.00  0.00    +0.024 A 
ATOM     33  C   UNL     1      13.696  63.904  17.706  0.00  0.00    +0.007 A 
ATOM     34  C   UNL     1      14.685  64.809  18.219  0.00  0.00    -0.029 A 
ATOM     35  C   UNL     1      14.576  66.306  17.847  0.00  0.00    +0.045 C 
ENDROOT
BRANCH  10   9
ATOM      4  C   UNL     1      17.673  66.812  22.657  0.00  0.00    +0.077 A 
ATOM      5  C   UNL     1      16.598  66.481  23.548  0.00  0.00    +0.048 A 
ATOM      6  C   UNL     1      15.566  65.659  23.043  0.00  0.00    +0.116 A 
ATOM      7  N   UNL     1      15.615  65.207  21.742  0.00  0.00    -0.223 NA
ATOM      8  C   UNL     1      16.665  65.546  20.909  0.00  0.00    +0.220 A 
ATOM      9  N   UNL     1      16.739  65.096  19.599  0.00  0.00    -0.283 N 
ATOM     36  H   UNL     1      17.526  65.375  19.014  0.00  0.00    +0.155 HD
ATOM     37  N   UNL     1      17.662  66.331  21.367  0.00  0.00    -0.214 NA
BRANCH   4   3
ATOM      1  C   UNL     1      20.471  68.593  24.730  0.00  0.00    +0.020 A 
ATOM      2  C   UNL     1      19.342  67.751  24.410  0.00  0.00    +0.013 A 
ATOM      3  C   UNL     1      18.838  67.668  23.044  0.00  0.00    +0.019 A 
ATOM     38  C   UNL     1      19.505  68.456  22.019  0.00  0.00    +0.120 A 
ATOM     39  N   UNL     1      20.590  69.260  22.358  0.00  0.00    -0.263 NA
ATOM     40  C   UNL     1      21.082  69.348  23.669  0.00  0.00    +0.111 A 
ENDBRANCH   4   3
ENDBRANCH  10   9
BRANCH  12  13
ATOM     13  N   UNL     1      14.758  60.555  19.144  0.00  0.00    -0.281 N 
ATOM     14  C   UNL     1      13.720  59.807  19.677  0.00  0.00    +0.248 C 
ATOM     30  O   UNL     1      12.719  60.283  20.192  0.00  0.00    -0.270 OA
ATOM     31  H   UNL     1      15.613  60.043  18.926  0.00  0.00    +0.155 HD
BRANCH  14  15
ATOM     15  C   UNL     1      13.815  58.316  19.647  0.00  0.00    +0.037 A 
ATOM     16  C   UNL     1      14.763  57.633  18.764  0.00  0.00    +0.013 A 
ATOM     17  C   UNL     1      14.822  56.193  18.742  0.00  0.00    +0.005 A 
ATOM     18  C   UNL     1      13.930  55.426  19.608  0.00  0.00    -0.033 A 
ATOM     28  C   UNL     1      13.003  56.130  20.479  0.00  0.00    +0.005 A 
ATOM     29  C   UNL     1      12.942  57.541  20.502  0.00  0.00    +0.013 A 
BRANCH  18  19
ATOM     19  C   UNL     1      13.910  53.886  19.635  0.00  0.00    +0.119 C 
BRANCH  19  20
ATOM     20  N   UNL     1      12.705  53.228  20.222  0.00  0.00    -0.302 NA
ATOM     21  C   UNL     1      13.014  52.553  21.561  0.00  0.00    +0.066 C 
ATOM     22  C   UNL     1      11.736  51.889  22.171  0.00  0.00    -0.064 C 
ATOM     23  N   UNL     1      11.164  50.880  21.175  0.00  0.00    +0.379 N 
ATOM     24  C   UNL     1       9.996  50.212  21.769  0.00  0.00    -0.096 C 
ATOM     25  H   UNL     1      11.943  50.103  20.995  0.00  0.00    -0.082 HD
ATOM     26  C   UNL     1      10.856  51.543  19.840  0.00  0.00    -0.064 C 
ATOM     27  C   UNL     1      12.125  52.224  19.256  0.00  0.00    +0.066 C 
ENDBRANCH  19  20
ENDBRANCH  18  19
ENDBRANCH  14  15
ENDBRANCH  12  13
TORSDOF 6
ENDMDL
