MODEL 1
REMARK VINA RESULT:      -9.2      0.000      0.000
REMARK  Name = C:\Users\Docking\Desktop\test protocol\1iep_ligandH.pdb
REMARK  8 active torsions:
REMARK  status: ('A' for Active; 'I' for Inactive)
REMARK    1  A    between atoms: _5  and  _11
REMARK    2  A    between atoms: _19  and  _21
REMARK    3  A    between atoms: _22  and  _66
REMARK    4  A    between atoms: _27  and  _30
REMARK    5  A    between atoms: _32  and  _33
REMARK    6  A    between atoms: _38  and  _43
REMARK    7  A    between atoms: _43  and  _46
REMARK    8  A    between atoms: _53  and  _55
REMARK                            x       y       z     vdW  Elec       q    Type
REMARK                         _______ _______ _______ _____ _____    ______ ____
ROOT
ATOM     10  C   UNL     1      32.205  10.611  27.891  0.00  0.00    +0.038 A 
ATOM     11  C   UNL     1      31.531  10.801  26.658  0.00  0.00    +0.047 A 
ATOM     12  C   UNL     1      30.597   9.809  26.150  0.00  0.00    +0.035 A 
ATOM     32  C   UNL     1      30.371   8.635  26.926  0.00  0.00    +0.024 A 
ATOM     33  C   UNL     1      31.048   8.424  28.181  0.00  0.00    +0.007 A 
ATOM     34  C   UNL     1      31.973   9.399  28.686  0.00  0.00    -0.029 A 
ATOM     35  C   UNL     1      32.676   9.118  30.035  0.00  0.00    +0.045 C 
ENDROOT
BRANCH  10   9
ATOM      4  C   UNL     1      36.629  12.402  28.403  0.00  0.00    +0.077 A 
ATOM      5  C   UNL     1      37.227  11.266  27.764  0.00  0.00    +0.048 A 
ATOM      6  C   UNL     1      36.362  10.239  27.324  0.00  0.00    +0.116 A 
ATOM      7  N   UNL     1      35.001  10.351  27.514  0.00  0.00    -0.223 NA
ATOM      8  C   UNL     1      34.457  11.459  28.136  0.00  0.00    +0.220 A 
ATOM      9  N   UNL     1      33.092  11.596  28.331  0.00  0.00    -0.283 N 
ATOM     36  H   UNL     1      32.730  12.426  28.801  0.00  0.00    +0.155 HD
ATOM     37  N   UNL     1      35.262  12.453  28.567  0.00  0.00    -0.214 NA
BRANCH   4   3
ATOM      1  C   UNL     1      37.684  16.024  29.439  0.00  0.00    +0.020 A 
ATOM      2  C   UNL     1      36.888  14.931  28.928  0.00  0.00    +0.013 A 
ATOM      3  C   UNL     1      37.410  13.570  28.919  0.00  0.00    +0.019 A 
ATOM     38  C   UNL     1      38.751  13.347  29.439  0.00  0.00    +0.120 A 
ATOM     39  N   UNL     1      39.494  14.419  29.923  0.00  0.00    -0.263 NA
ATOM     40  C   UNL     1      39.003  15.733  29.935  0.00  0.00    +0.111 A 
ENDBRANCH   4   3
ENDBRANCH  10   9
BRANCH  12  13
ATOM     13  N   UNL     1      29.889   9.944  24.901  0.00  0.00    -0.281 N 
ATOM     14  C   UNL     1      28.841  10.799  24.604  0.00  0.00    +0.248 C 
ATOM     30  O   UNL     1      28.208  11.431  25.437  0.00  0.00    -0.270 OA
ATOM     31  H   UNL     1      30.199   9.335  24.144  0.00  0.00    +0.155 HD
BRANCH  14  15
ATOM     15  C   UNL     1      28.426  10.965  23.178  0.00  0.00    +0.037 A 
ATOM     16  C   UNL     1      27.494  10.029  22.544  0.00  0.00    +0.013 A 
ATOM     17  C   UNL     1      27.123  10.202  21.162  0.00  0.00    +0.005 A 
ATOM     18  C   UNL     1      27.684  11.318  20.404  0.00  0.00    -0.033 A 
ATOM     28  C   UNL     1      28.603  12.235  21.060  0.00  0.00    +0.005 A 
ATOM     29  C   UNL     1      28.969  12.068  22.414  0.00  0.00    +0.013 A 
BRANCH  18  19
ATOM     19  C   UNL     1      27.361  11.568  18.919  0.00  0.00    +0.119 C 
BRANCH  19  20
ATOM     20  N   UNL     1      28.213  12.554  18.191  0.00  0.00    -0.302 NA
ATOM     21  C   UNL     1      27.504  13.898  18.003  0.00  0.00    +0.066 C 
ATOM     22  C   UNL     1      28.417  14.925  17.259  0.00  0.00    -0.064 C 
ATOM     23  N   UNL     1      28.840  14.343  15.909  0.00  0.00    +0.379 N 
ATOM     24  C   UNL     1      29.652  15.330  15.182  0.00  0.00    -0.096 C 
ATOM     25  H   UNL     1      27.915  14.162  15.314  0.00  0.00    -0.082 HD
ATOM     26  C   UNL     1      29.544  13.005  16.086  0.00  0.00    -0.064 C 
ATOM     27  C   UNL     1      28.639  12.001  16.853  0.00  0.00    +0.066 C 
ENDBRANCH  19  20
ENDBRANCH  18  19
ENDBRANCH  14  15
ENDBRANCH  12  13
TORSDOF 6
ENDMDL
MODEL 2
REMARK VINA RESULT:      -8.9      4.690      7.866
REMARK  Name = C:\Users\Docking\Desktop\test protocol\1iep_ligandH.pdb
REMARK  8 active torsions:
REMARK  status: ('A' for Active; 'I' for Inactive)
REMARK    1  A    between atoms: _5  and  _11
REMARK    2  A    between atoms: _19  and  _21
REMARK    3  A    between atoms: _22  and  _66
REMARK    4  A    between atoms: _27  and  _30
REMARK    5  A    between atoms: _32  and  _33
REMARK    6  A    between atoms: _38  and  _43
REMARK    7  A    between atoms: _43  and  _46
REMARK    8  A    between atoms: _53  and  _55
REMARK                            x       y       z     vdW  Elec       q    Type
REMARK                         _______ _______ _______ _____ _____    ______ ____
ROOT
ATOM     10  C   UNL     1      37.121  14.278  31.268  0.00  0.00    +0.038 A 
ATOM     11  C   UNL     1      36.038  13.663  30.589  0.00  0.00    +0.047 A 
ATOM     12  C   UNL     1      35.721  14.008  29.211  0.00  0.00    +0.035 A 
ATOM     32  C   UNL     1      36.530  14.981  28.555  0.00  0.00    +0.024 A 
ATOM     33  C   UNL     1      37.634  15.616  29.232  0.00  0.00    +0.007 A 
ATOM     34  C   UNL     1      37.950  15.282  30.591  0.00  0.00    -0.029 A 
ATOM     35  C   UNL     1      39.141  15.999  31.268  0.00  0.00    +0.045 C 
ENDROOT
BRANCH  10   9
ATOM      4  C   UNL     1      36.863  15.032  36.001  0.00  0.00    +0.077 A 
ATOM      5  C   UNL     1      36.178  16.280  35.825  0.00  0.00    +0.048 A 
ATOM      6  C   UNL     1      35.917  16.696  34.500  0.00  0.00    +0.116 A 
ATOM      7  N   UNL     1      36.316  15.913  33.438  0.00  0.00    -0.223 NA
ATOM      8  C   UNL     1      36.977  14.716  33.643  0.00  0.00    +0.220 A 
ATOM      9  N   UNL     1      37.380  13.909  32.590  0.00  0.00    -0.283 N 
ATOM     36  H   UNL     1      37.871  13.036  32.783  0.00  0.00    +0.155 HD
ATOM     37  N   UNL     1      37.239  14.298  34.899  0.00  0.00    -0.214 NA
BRANCH   4   3
ATOM      1  C   UNL     1      38.362  12.770  38.819  0.00  0.00    +0.020 A 
ATOM      2  C   UNL     1      38.059  13.286  37.504  0.00  0.00    +0.013 A 
ATOM      3  C   UNL     1      37.208  14.457  37.340  0.00  0.00    +0.019 A 
ATOM     38  C   UNL     1      36.676  15.090  38.537  0.00  0.00    +0.120 A 
ATOM     39  N   UNL     1      36.983  14.571  39.791  0.00  0.00    -0.263 NA
ATOM     40  C   UNL     1      37.799  13.443  39.961  0.00  0.00    +0.111 A 
ENDBRANCH   4   3
ENDBRANCH  10   9
BRANCH  12  13
ATOM     13  N   UNL     1      34.630  13.423  28.473  0.00  0.00    -0.281 N 
ATOM     14  C   UNL     1      34.614  12.221  27.786  0.00  0.00    +0.248 C 
ATOM     30  O   UNL     1      35.609  11.562  27.523  0.00  0.00    -0.270 OA
ATOM     31  H   UNL     1      33.763  13.962  28.454  0.00  0.00    +0.155 HD
BRANCH  14  15
ATOM     15  C   UNL     1      33.305  11.678  27.310  0.00  0.00    +0.037 A 
ATOM     16  C   UNL     1      32.323  11.130  28.249  0.00  0.00    +0.013 A 
ATOM     17  C   UNL     1      31.075  10.598  27.762  0.00  0.00    +0.005 A 
ATOM     18  C   UNL     1      30.802  10.613  26.327  0.00  0.00    -0.033 A 
ATOM     28  C   UNL     1      31.791  11.167  25.418  0.00  0.00    +0.005 A 
ATOM     29  C   UNL     1      33.016  11.689  25.892  0.00  0.00    +0.013 A 
BRANCH  18  19
ATOM     19  C   UNL     1      29.506  10.047  25.716  0.00  0.00    +0.119 C 
BRANCH  19  20
ATOM     20  N   UNL     1      29.227  10.369  24.285  0.00  0.00    -0.302 NA
ATOM     21  C   UNL     1      28.443  11.675  24.132  0.00  0.00    +0.066 C 
ATOM     22  C   UNL     1      28.179  12.008  22.627  0.00  0.00    -0.064 C 
ATOM     23  N   UNL     1      27.428  10.847  21.975  0.00  0.00    +0.379 N 
ATOM     24  C   UNL     1      27.128  11.181  20.575  0.00  0.00    -0.096 C 
ATOM     25  H   UNL     1      26.458  10.728  22.510  0.00  0.00    -0.082 HD
ATOM     26  C   UNL     1      28.200   9.543  22.124  0.00  0.00    -0.064 C 
ATOM     27  C   UNL     1      28.482   9.236  23.622  0.00  0.00    +0.066 C 
ENDBRANCH  19  20
ENDBRANCH  18  19
ENDBRANCH  14  15
ENDBRANCH  12  13
TORSDOF 6
ENDMDL
MODEL 3
REMARK VINA RESULT:      -8.9      2.260     12.490
REMARK  Name = C:\Users\Docking\Desktop\test protocol\1iep_ligandH.pdb
REMARK  8 active torsions:
REMARK  status: ('A' for Active; 'I' for Inactive)
REMARK    1  A    between atoms: _5  and  _11
REMARK    2  A    between atoms: _19  and  _21
REMARK    3  A    between atoms: _22  and  _66
REMARK    4  A    between atoms: _27  and  _30
REMARK    5  A    between atoms: _32  and  _33
REMARK    6  A    between atoms: _38  and  _43
REMARK    7  A    between atoms: _43  and  _46
REMARK    8  A    between atoms: _53  and  _55
REMARK                            x       y       z     vdW  Elec       q    Type
REMARK                         _______ _______ _______ _____ _____    ______ ____
ROOT
ATOM     10  C   UNL     1      30.010  10.609  26.645  0.00  0.00    +0.038 A 
ATOM     11  C   UNL     1      31.281  11.165  26.938  0.00  0.00    +0.047 A 
ATOM     12  C   UNL     1      31.994  10.814  28.157  0.00  0.00    +0.035 A 
ATOM     32  C   UNL     1      31.383   9.889  29.054  0.00  0.00    +0.024 A 
ATOM     33  C   UNL     1      30.091   9.315  28.772  0.00  0.00    +0.007 A 
ATOM     34  C   UNL     1      29.382   9.660  27.573  0.00  0.00    -0.029 A 
ATOM     35  C   UNL     1      27.997   9.019  27.326  0.00  0.00    +0.045 C 
ENDROOT
BRANCH  10   9
ATOM      4  C   UNL     1      28.852   9.870  22.046  0.00  0.00    +0.077 A 
ATOM      5  C   UNL     1      29.607   8.651  21.991  0.00  0.00    +0.048 A 
ATOM      6  C   UNL     1      30.285   8.254  23.165  0.00  0.00    +0.116 A 
ATOM      7  N   UNL     1      30.206   9.025  24.304  0.00  0.00    -0.223 NA
ATOM      8  C   UNL     1      29.470  10.195  24.324  0.00  0.00    +0.220 A 
ATOM      9  N   UNL     1      29.370  10.982  25.461  0.00  0.00    -0.283 N 
ATOM     36  H   UNL     1      28.824  11.842  25.433  0.00  0.00    +0.155 HD
ATOM     37  N   UNL     1      28.815  10.597  23.215  0.00  0.00    -0.214 NA
BRANCH   4   3
ATOM      1  C   UNL     1      26.156  10.368  19.256  0.00  0.00    +0.020 A 
ATOM      2  C   UNL     1      26.866   9.796  20.377  0.00  0.00    +0.013 A 
ATOM      3  C   UNL     1      28.079  10.421  20.889  0.00  0.00    +0.019 A 
ATOM     38  C   UNL     1      28.551  11.634  20.239  0.00  0.00    +0.120 A 
ATOM     39  N   UNL     1      27.848  12.162  19.161  0.00  0.00    -0.263 NA
ATOM     40  C   UNL     1      26.680  11.568  18.659  0.00  0.00    +0.111 A 
ENDBRANCH   4   3
ENDBRANCH  10   9
BRANCH  12  13
ATOM     13  N   UNL     1      33.284  11.352  28.511  0.00  0.00    -0.281 N 
ATOM     14  C   UNL     1      34.432  11.392  27.738  0.00  0.00    +0.248 C 
ATOM     30  O   UNL     1      34.584  10.774  26.694  0.00  0.00    -0.270 OA
ATOM     31  H   UNL     1      33.359  11.753  29.446  0.00  0.00    +0.155 HD
BRANCH  14  15
ATOM     15  C   UNL     1      35.583  12.227  28.196  0.00  0.00    +0.037 A 
ATOM     16  C   UNL     1      36.941  11.681  28.260  0.00  0.00    +0.013 A 
ATOM     17  C   UNL     1      38.031  12.503  28.722  0.00  0.00    +0.005 A 
ATOM     18  C   UNL     1      37.767  13.883  29.124  0.00  0.00    -0.033 A 
ATOM     28  C   UNL     1      36.411  14.401  29.046  0.00  0.00    +0.005 A 
ATOM     29  C   UNL     1      35.340  13.598  28.594  0.00  0.00    +0.013 A 
BRANCH  18  19
ATOM     19  C   UNL     1      38.865  14.826  29.650  0.00  0.00    +0.119 C 
BRANCH  19  20
ATOM     20  N   UNL     1      39.832  14.264  30.640  0.00  0.00    -0.302 NA
ATOM     21  C   UNL     1      39.349  14.446  32.081  0.00  0.00    +0.066 C 
ATOM     22  C   UNL     1      40.361  13.833  33.103  0.00  0.00    -0.064 C 
ATOM     23  N   UNL     1      41.734  14.479  32.906  0.00  0.00    +0.379 N 
ATOM     24  C   UNL     1      42.674  13.947  33.904  0.00  0.00    -0.096 C 
ATOM     25  H   UNL     1      41.623  15.572  33.095  0.00  0.00    -0.082 HD
ATOM     26  C   UNL     1      42.221  14.305  31.475  0.00  0.00    -0.064 C 
ATOM     27  C   UNL     1      41.193  14.891  30.466  0.00  0.00    +0.066 C 
ENDBRANCH  19  20
ENDBRANCH  18  19
ENDBRANCH  14  15
ENDBRANCH  12  13
TORSDOF 6
ENDMDL
MODEL 4
REMARK VINA RESULT:      -8.8      2.511     12.677
REMARK  Name = C:\Users\Docking\Desktop\test protocol\1iep_ligandH.pdb
REMARK  8 active torsions:
REMARK  status: ('A' for Active; 'I' for Inactive)
REMARK    1  A    between atoms: _5  and  _11
REMARK    2  A    between atoms: _19  and  _21
REMARK    3  A    between atoms: _22  and  _66
REMARK    4  A    between atoms: _27  and  _30
REMARK    5  A    between atoms: _32  and  _33
REMARK    6  A    between atoms: _38  and  _43
REMARK    7  A    between atoms: _43  and  _46
REMARK    8  A    between atoms: _53  and  _55
REMARK                            x       y       z     vdW  Elec       q    Type
REMARK                         _______ _______ _______ _____ _____    ______ ____
ROOT
ATOM     10  C   UNL     1      30.881   9.638  26.307  0.00  0.00    +0.038 A 
ATOM     11  C   UNL     1      32.126  10.306  26.430  0.00  0.00    +0.047 A 
ATOM     12  C   UNL     1      32.715  10.565  27.735  0.00  0.00    +0.035 A 
ATOM     32  C   UNL     1      32.009  10.128  28.894  0.00  0.00    +0.024 A 
ATOM     33  C   UNL     1      30.742   9.448  28.787  0.00  0.00    +0.007 A 
ATOM     34  C   UNL     1      30.155   9.191  27.503  0.00  0.00    -0.029 A 
ATOM     35  C   UNL     1      28.792   8.464  27.448  0.00  0.00    +0.045 C 
ENDROOT
BRANCH  10   9
ATOM      4  C   UNL     1      28.407  11.038  22.440  0.00  0.00    +0.077 A 
ATOM      5  C   UNL     1      28.100  12.312  23.024  0.00  0.00    +0.048 A 
ATOM      6  C   UNL     1      28.592  12.564  24.325  0.00  0.00    +0.116 A 
ATOM      7  N   UNL     1      29.334  11.607  24.982  0.00  0.00    -0.223 NA
ATOM      8  C   UNL     1      29.610  10.389  24.390  0.00  0.00    +0.220 A 
ATOM      9  N   UNL     1      30.362   9.415  25.030  0.00  0.00    -0.283 N 
ATOM     36  H   UNL     1      30.537   8.526  24.562  0.00  0.00    +0.155 HD
ATOM     37  N   UNL     1      29.151  10.123  23.150  0.00  0.00    -0.214 NA
BRANCH   4   3
ATOM      1  C   UNL     1      26.612  10.951  18.965  0.00  0.00    +0.020 A 
ATOM      2  C   UNL     1      27.009  11.395  20.282  0.00  0.00    +0.013 A 
ATOM      3  C   UNL     1      27.961  10.624  21.072  0.00  0.00    +0.019 A 
ATOM     38  C   UNL     1      28.498   9.400  20.496  0.00  0.00    +0.120 A 
ATOM     39  N   UNL     1      28.096   8.997  19.226  0.00  0.00    -0.263 NA
ATOM     40  C   UNL     1      27.179   9.729  18.458  0.00  0.00    +0.111 A 
ENDBRANCH   4   3
ENDBRANCH  10   9
BRANCH  12  13
ATOM     13  N   UNL     1      33.971  11.247  27.922  0.00  0.00    -0.281 N 
ATOM     14  C   UNL     1      34.229  12.604  27.816  0.00  0.00    +0.248 C 
ATOM     30  O   UNL     1      33.456  13.418  27.332  0.00  0.00    -0.270 OA
ATOM     31  H   UNL     1      34.768  10.657  28.162  0.00  0.00    +0.155 HD
BRANCH  14  15
ATOM     15  C   UNL     1      35.539  13.131  28.306  0.00  0.00    +0.037 A 
ATOM     16  C   UNL     1      36.712  12.261  28.424  0.00  0.00    +0.013 A 
ATOM     17  C   UNL     1      37.959  12.791  28.916  0.00  0.00    +0.005 A 
ATOM     18  C   UNL     1      38.040  14.200  29.291  0.00  0.00    -0.033 A 
ATOM     28  C   UNL     1      36.862  15.042  29.159  0.00  0.00    +0.005 A 
ATOM     29  C   UNL     1      35.638  14.526  28.679  0.00  0.00    +0.013 A 
BRANCH  18  19
ATOM     19  C   UNL     1      39.324  14.846  29.845  0.00  0.00    +0.119 C 
BRANCH  19  20
ATOM     20  N   UNL     1      39.984  14.172  31.002  0.00  0.00    -0.302 NA
ATOM     21  C   UNL     1      39.299  14.508  32.330  0.00  0.00    +0.066 C 
ATOM     22  C   UNL     1      39.989  13.776  33.527  0.00  0.00    -0.064 C 
ATOM     23  N   UNL     1      41.470  14.158  33.570  0.00  0.00    +0.379 N 
ATOM     24  C   UNL     1      42.108  13.517  34.729  0.00  0.00    -0.096 C 
ATOM     25  H   UNL     1      41.530  15.261  33.717  0.00  0.00    -0.082 HD
ATOM     26  C   UNL     1      42.158  13.829  32.252  0.00  0.00    -0.064 C 
ATOM     27  C   UNL     1      41.446  14.538  31.065  0.00  0.00    +0.066 C 
ENDBRANCH  19  20
ENDBRANCH  18  19
ENDBRANCH  14  15
ENDBRANCH  12  13
TORSDOF 6
ENDMDL
MODEL 5
REMARK VINA RESULT:      -8.8      5.335      9.086
REMARK  Name = C:\Users\Docking\Desktop\test protocol\1iep_ligandH.pdb
REMARK  8 active torsions:
REMARK  status: ('A' for Active; 'I' for Inactive)
REMARK    1  A    between atoms: _5  and  _11
REMARK    2  A    between atoms: _19  and  _21
REMARK    3  A    between atoms: _22  and  _66
REMARK    4  A    between atoms: _27  and  _30
REMARK    5  A    between atoms: _32  and  _33
REMARK    6  A    between atoms: _38  and  _43
REMARK    7  A    between atoms: _43  and  _46
REMARK    8  A    between atoms: _53  and  _55
REMARK                            x       y       z     vdW  Elec       q    Type
REMARK                         _______ _______ _______ _____ _____    ______ ____
ROOT
ATOM     10  C   UNL     1      37.084  14.270  31.312  0.00  0.00    +0.038 A 
ATOM     11  C   UNL     1      36.020  13.643  30.614  0.00  0.00    +0.047 A 
ATOM     12  C   UNL     1      35.730  13.975  29.228  0.00  0.00    +0.035 A 
ATOM     32  C   UNL     1      36.546  14.949  28.582  0.00  0.00    +0.024 A 
ATOM     33  C   UNL     1      37.631  15.597  29.276  0.00  0.00    +0.007 A 
ATOM     34  C   UNL     1      37.920  15.275  30.644  0.00  0.00    -0.029 A 
ATOM     35  C   UNL     1      39.092  16.006  31.340  0.00  0.00    +0.045 C 
ENDROOT
BRANCH  10   9
ATOM      4  C   UNL     1      36.782  15.093  36.031  0.00  0.00    +0.077 A 
ATOM      5  C   UNL     1      36.126  16.352  35.829  0.00  0.00    +0.048 A 
ATOM      6  C   UNL     1      35.891  16.756  34.496  0.00  0.00    +0.116 A 
ATOM      7  N   UNL     1      36.287  15.951  33.449  0.00  0.00    -0.223 NA
ATOM      8  C   UNL     1      36.919  14.742  33.679  0.00  0.00    +0.220 A 
ATOM      9  N   UNL     1      37.318  13.913  32.642  0.00  0.00    -0.283 N 
ATOM     36  H   UNL     1      37.788  13.033  32.852  0.00  0.00    +0.155 HD
ATOM     37  N   UNL     1      37.156  14.335  34.943  0.00  0.00    -0.214 NA
BRANCH   4   3
ATOM      1  C   UNL     1      38.241  12.870  38.900  0.00  0.00    +0.020 A 
ATOM      2  C   UNL     1      37.968  13.376  37.575  0.00  0.00    +0.013 A 
ATOM      3  C   UNL     1      37.097  14.528  37.381  0.00  0.00    +0.019 A 
ATOM     38  C   UNL     1      36.513  15.151  38.559  0.00  0.00    +0.120 A 
ATOM     39  N   UNL     1      36.792  14.641  39.824  0.00  0.00    -0.263 NA
ATOM     40  C   UNL     1      37.627  13.531  40.022  0.00  0.00    +0.111 A 
ENDBRANCH   4   3
ENDBRANCH  10   9
BRANCH  12  13
ATOM     13  N   UNL     1      34.658  13.377  28.472  0.00  0.00    -0.281 N 
ATOM     14  C   UNL     1      34.673  12.183  27.770  0.00  0.00    +0.248 C 
ATOM     30  O   UNL     1      35.685  11.548  27.509  0.00  0.00    -0.270 OA
ATOM     31  H   UNL     1      33.781  13.898  28.451  0.00  0.00    +0.155 HD
BRANCH  14  15
ATOM     15  C   UNL     1      33.381  11.620  27.274  0.00  0.00    +0.037 A 
ATOM     16  C   UNL     1      33.063  11.591  25.845  0.00  0.00    +0.013 A 
ATOM     17  C   UNL     1      31.801  11.058  25.395  0.00  0.00    +0.005 A 
ATOM     18  C   UNL     1      30.849  10.547  26.377  0.00  0.00    -0.033 A 
ATOM     28  C   UNL     1      31.192  10.583  27.789  0.00  0.00    +0.005 A 
ATOM     29  C   UNL     1      32.427  11.106  28.234  0.00  0.00    +0.013 A 
BRANCH  18  19
ATOM     19  C   UNL     1      29.470   9.979  25.989  0.00  0.00    +0.119 C 
BRANCH  19  20
ATOM     20  N   UNL     1      28.411   9.978  27.041  0.00  0.00    -0.302 NA
ATOM     21  C   UNL     1      28.138   8.570  27.580  0.00  0.00    +0.066 C 
ATOM     22  C   UNL     1      27.043   8.590  28.696  0.00  0.00    -0.064 C 
ATOM     23  N   UNL     1      25.763   9.214  28.138  0.00  0.00    +0.379 N 
ATOM     24  C   UNL     1      24.713   9.181  29.167  0.00  0.00    -0.096 C 
ATOM     25  H   UNL     1      25.421   8.581  27.286  0.00  0.00    -0.082 HD
ATOM     26  C   UNL     1      26.025  10.613  27.598  0.00  0.00    -0.064 C 
ATOM     27  C   UNL     1      27.136  10.586  26.511  0.00  0.00    +0.066 C 
ENDBRANCH  19  20
ENDBRANCH  18  19
ENDBRANCH  14  15
ENDBRANCH  12  13
TORSDOF 6
ENDMDL
