MODEL 1
REMARK VINA RESULT:      -7.8      0.000      0.000
REMARK  Name = C:\Users\Docking\Desktop\test protocol\1iep_ligandH.pdb
REMARK  8 active torsions:
REMARK  status: ('A' for Active; 'I' for Inactive)
REMARK    1  A    between atoms: _5  and  _11
REMARK    2  A    between atoms: _19  and  _21
REMARK    3  A    between atoms: _22  and  _66
REMARK    4  A    between atoms: _27  and  _30
REMARK    5  A    between atoms: _32  and  _33
REMARK    6  A    between atoms: _38  and  _43
REMARK    7  A    between atoms: _43  and  _46
REMARK    8  A    between atoms: _53  and  _55
REMARK                            x       y       z     vdW  Elec       q    Type
REMARK                         _______ _______ _______ _____ _____    ______ ____
ROOT
ATOM     10  C   UNL     1       3.750  -5.050  15.268  0.00  0.00    +0.038 A 
ATOM     11  C   UNL     1       3.083  -5.499  16.436  0.00  0.00    +0.047 A 
ATOM     12  C   UNL     1       3.293  -6.842  16.954  0.00  0.00    +0.035 A 
ATOM     32  C   UNL     1       4.192  -7.701  16.258  0.00  0.00    +0.024 A 
ATOM     33  C   UNL     1       4.877  -7.262  15.068  0.00  0.00    +0.007 A 
ATOM     34  C   UNL     1       4.672  -5.939  14.551  0.00  0.00    -0.029 A 
ATOM     35  C   UNL     1       5.429  -5.524  13.268  0.00  0.00    +0.045 C 
ENDROOT
BRANCH  10   9
ATOM      4  C   UNL     1       1.345  -1.876  12.588  0.00  0.00    +0.077 A 
ATOM      5  C   UNL     1       0.512  -2.897  12.022  0.00  0.00    +0.048 A 
ATOM      6  C   UNL     1       0.739  -4.227  12.441  0.00  0.00    +0.116 A 
ATOM      7  N   UNL     1       1.728  -4.504  13.360  0.00  0.00    -0.223 NA
ATOM      8  C   UNL     1       2.516  -3.496  13.885  0.00  0.00    +0.220 A 
ATOM      9  N   UNL     1       3.512  -3.751  14.815  0.00  0.00    -0.283 N 
ATOM     36  H   UNL     1       4.076  -2.981  15.173  0.00  0.00    +0.155 HD
ATOM     37  N   UNL     1       2.320  -2.218  13.499  0.00  0.00    -0.214 NA
BRANCH   4   3
ATOM      1  C   UNL     1      -0.117   1.648  11.726  0.00  0.00    +0.020 A 
ATOM      2  C   UNL     1      -0.057   0.242  12.053  0.00  0.00    +0.013 A 
ATOM      3  C   UNL     1       1.226  -0.423  12.247  0.00  0.00    +0.019 A 
ATOM     38  C   UNL     1       2.438   0.369  12.102  0.00  0.00    +0.120 A 
ATOM     39  N   UNL     1       2.348   1.721  11.785  0.00  0.00    -0.263 NA
ATOM     40  C   UNL     1       1.120   2.371  11.594  0.00  0.00    +0.111 A 
ENDBRANCH   4   3
ENDBRANCH  10   9
BRANCH  12  13
ATOM     13  N   UNL     1       2.637  -7.355  18.131  0.00  0.00    -0.281 N 
ATOM     14  C   UNL     1       3.050  -7.252  19.449  0.00  0.00    +0.248 C 
ATOM     30  O   UNL     1       4.162  -6.885  19.798  0.00  0.00    -0.270 OA
ATOM     31  H   UNL     1       1.762  -7.856  17.973  0.00  0.00    +0.155 HD
BRANCH  14  15
ATOM     15  C   UNL     1       2.095  -7.625  20.537  0.00  0.00    +0.037 A 
ATOM     16  C   UNL     1       1.834  -6.722  21.661  0.00  0.00    +0.013 A 
ATOM     17  C   UNL     1       0.920  -7.113  22.705  0.00  0.00    +0.005 A 
ATOM     18  C   UNL     1       0.259  -8.414  22.629  0.00  0.00    -0.033 A 
ATOM     28  C   UNL     1       0.533  -9.287  21.499  0.00  0.00    +0.005 A 
ATOM     29  C   UNL     1       1.428  -8.908  20.475  0.00  0.00    +0.013 A 
BRANCH  18  19
ATOM     19  C   UNL     1      -0.714  -8.922  23.709  0.00  0.00    +0.119 C 
BRANCH  19  20
ATOM     20  N   UNL     1      -2.134  -9.140  23.301  0.00  0.00    -0.302 NA
ATOM     21  C   UNL     1      -3.031  -7.963  23.692  0.00  0.00    +0.066 C 
ATOM     22  C   UNL     1      -4.509  -8.198  23.238  0.00  0.00    -0.064 C 
ATOM     23  N   UNL     1      -5.027  -9.500  23.851  0.00  0.00    +0.379 N 
ATOM     24  C   UNL     1      -6.434  -9.694  23.473  0.00  0.00    -0.096 C 
ATOM     25  H   UNL     1      -4.986  -9.391  24.960  0.00  0.00    -0.082 HD
ATOM     26  C   UNL     1      -4.139 -10.676  23.470  0.00  0.00    -0.064 C 
ATOM     27  C   UNL     1      -2.667 -10.419  23.899  0.00  0.00    +0.066 C 
ENDBRANCH  19  20
ENDBRANCH  18  19
ENDBRANCH  14  15
ENDBRANCH  12  13
TORSDOF 6
ENDMDL
MODEL 2
REMARK VINA RESULT:      -7.8      8.602     16.579
REMARK  Name = C:\Users\Docking\Desktop\test protocol\1iep_ligandH.pdb
REMARK  8 active torsions:
REMARK  status: ('A' for Active; 'I' for Inactive)
REMARK    1  A    between atoms: _5  and  _11
REMARK    2  A    between atoms: _19  and  _21
REMARK    3  A    between atoms: _22  and  _66
REMARK    4  A    between atoms: _27  and  _30
REMARK    5  A    between atoms: _32  and  _33
REMARK    6  A    between atoms: _38  and  _43
REMARK    7  A    between atoms: _43  and  _46
REMARK    8  A    between atoms: _53  and  _55
REMARK                            x       y       z     vdW  Elec       q    Type
REMARK                         _______ _______ _______ _____ _____    ______ ____
ROOT
ATOM     10  C   UNL     1       1.304  -0.100  11.038  0.00  0.00    +0.038 A 
ATOM     11  C   UNL     1       1.126   0.613   9.825  0.00  0.00    +0.047 A 
ATOM     12  C   UNL     1       0.272   1.789   9.761  0.00  0.00    +0.035 A 
ATOM     32  C   UNL     1      -0.384   2.212  10.953  0.00  0.00    +0.024 A 
ATOM     33  C   UNL     1      -0.216   1.499  12.195  0.00  0.00    +0.007 A 
ATOM     34  C   UNL     1       0.624   0.337  12.263  0.00  0.00    -0.029 A 
ATOM     35  C   UNL     1       0.763  -0.393  13.619  0.00  0.00    +0.045 C 
ENDROOT
BRANCH  10   9
ATOM      4  C   UNL     1       2.009  -4.847  10.982  0.00  0.00    +0.077 A 
ATOM      5  C   UNL     1       0.600  -5.116  10.972  0.00  0.00    +0.048 A 
ATOM      6  C   UNL     1      -0.273  -4.004  10.989  0.00  0.00    +0.116 A 
ATOM      7  N   UNL     1       0.237  -2.724  11.013  0.00  0.00    -0.223 NA
ATOM      8  C   UNL     1       1.602  -2.500  11.025  0.00  0.00    +0.220 A 
ATOM      9  N   UNL     1       2.136  -1.221  11.041  0.00  0.00    -0.283 N 
ATOM     36  H   UNL     1       3.149  -1.098  11.057  0.00  0.00    +0.155 HD
ATOM     37  N   UNL     1       2.456  -3.545  11.011  0.00  0.00    -0.214 NA
BRANCH   4   3
ATOM      1  C   UNL     1       4.930  -7.229  12.027  0.00  0.00    +0.020 A 
ATOM      2  C   UNL     1       3.934  -6.185  12.097  0.00  0.00    +0.013 A 
ATOM      3  C   UNL     1       3.057  -5.916  10.964  0.00  0.00    +0.019 A 
ATOM     38  C   UNL     1       3.215  -6.728   9.767  0.00  0.00    +0.120 A 
ATOM     39  N   UNL     1       4.184  -7.725   9.728  0.00  0.00    -0.263 NA
ATOM     40  C   UNL     1       5.035  -7.993  10.812  0.00  0.00    +0.111 A 
ENDBRANCH   4   3
ENDBRANCH  10   9
BRANCH  12  13
ATOM     13  N   UNL     1       0.047   2.548   8.556  0.00  0.00    -0.281 N 
ATOM     14  C   UNL     1       0.947   3.351   7.875  0.00  0.00    +0.248 C 
ATOM     30  O   UNL     1       2.028   3.709   8.319  0.00  0.00    -0.270 OA
ATOM     31  H   UNL     1      -0.890   2.487   8.157  0.00  0.00    +0.155 HD
BRANCH  14  15
ATOM     15  C   UNL     1       0.589   3.838   6.508  0.00  0.00    +0.037 A 
ATOM     16  C   UNL     1      -0.503   4.794   6.304  0.00  0.00    +0.013 A 
ATOM     17  C   UNL     1      -0.839   5.234   4.973  0.00  0.00    +0.005 A 
ATOM     18  C   UNL     1      -0.080   4.720   3.835  0.00  0.00    -0.033 A 
ATOM     28  C   UNL     1       1.002   3.778   4.067  0.00  0.00    +0.005 A 
ATOM     29  C   UNL     1       1.333   3.343   5.370  0.00  0.00    +0.013 A 
BRANCH  18  19
ATOM     19  C   UNL     1      -0.382   5.120   2.379  0.00  0.00    +0.119 C 
BRANCH  19  20
ATOM     20  N   UNL     1      -1.399   4.308   1.645  0.00  0.00    -0.302 NA
ATOM     21  C   UNL     1      -0.834   3.712   0.353  0.00  0.00    +0.066 C 
ATOM     22  C   UNL     1      -1.904   2.848  -0.391  0.00  0.00    -0.064 C 
ATOM     23  N   UNL     1      -3.135   3.707  -0.684  0.00  0.00    +0.379 N 
ATOM     24  C   UNL     1      -4.119   2.914  -1.435  0.00  0.00    -0.096 C 
ATOM     25  H   UNL     1      -2.810   4.550  -1.338  0.00  0.00    -0.082 HD
ATOM     26  C   UNL     1      -3.701   4.307   0.595  0.00  0.00    -0.064 C 
ATOM     27  C   UNL     1      -2.622   5.139   1.341  0.00  0.00    +0.066 C 
ENDBRANCH  19  20
ENDBRANCH  18  19
ENDBRANCH  14  15
ENDBRANCH  12  13
TORSDOF 6
ENDMDL
MODEL 3
REMARK VINA RESULT:      -7.7      7.862     12.373
REMARK  Name = C:\Users\Docking\Desktop\test protocol\1iep_ligandH.pdb
REMARK  8 active torsions:
REMARK  status: ('A' for Active; 'I' for Inactive)
REMARK    1  A    between atoms: _5  and  _11
REMARK    2  A    between atoms: _19  and  _21
REMARK    3  A    between atoms: _22  and  _66
REMARK    4  A    between atoms: _27  and  _30
REMARK    5  A    between atoms: _32  and  _33
REMARK    6  A    between atoms: _38  and  _43
REMARK    7  A    between atoms: _43  and  _46
REMARK    8  A    between atoms: _53  and  _55
REMARK                            x       y       z     vdW  Elec       q    Type
REMARK                         _______ _______ _______ _____ _____    ______ ____
ROOT
ATOM     10  C   UNL     1       5.560  -0.679  22.218  0.00  0.00    +0.038 A 
ATOM     11  C   UNL     1       5.178  -0.748  20.854  0.00  0.00    +0.047 A 
ATOM     12  C   UNL     1       5.791  -1.708  19.949  0.00  0.00    +0.035 A 
ATOM     32  C   UNL     1       6.788  -2.584  20.468  0.00  0.00    +0.024 A 
ATOM     33  C   UNL     1       7.190  -2.527  21.851  0.00  0.00    +0.007 A 
ATOM     34  C   UNL     1       6.591  -1.580  22.748  0.00  0.00    -0.029 A 
ATOM     35  C   UNL     1       7.064  -1.558  24.220  0.00  0.00    +0.045 C 
ENDROOT
BRANCH  10   9
ATOM      4  C   UNL     1       5.435   3.573  24.442  0.00  0.00    +0.077 A 
ATOM      5  C   UNL     1       6.728   3.940  23.941  0.00  0.00    +0.048 A 
ATOM      6  C   UNL     1       7.395   3.003  23.120  0.00  0.00    +0.116 A 
ATOM      7  N   UNL     1       6.804   1.793  22.828  0.00  0.00    -0.223 NA
ATOM      8  C   UNL     1       5.556   1.470  23.329  0.00  0.00    +0.220 A 
ATOM      9  N   UNL     1       4.939   0.262  23.042  0.00  0.00    -0.283 N 
ATOM     36  H   UNL     1       4.022   0.058  23.438  0.00  0.00    +0.155 HD
ATOM     37  N   UNL     1       4.899   2.347  24.117  0.00  0.00    -0.214 NA
BRANCH   4   3
ATOM      1  C   UNL     1       4.311   6.047  27.255  0.00  0.00    +0.020 A 
ATOM      2  C   UNL     1       5.157   5.208  26.439  0.00  0.00    +0.013 A 
ATOM      3  C   UNL     1       4.603   4.457  25.319  0.00  0.00    +0.019 A 
ATOM     38  C   UNL     1       3.179   4.579  25.049  0.00  0.00    +0.120 A 
ATOM     39  N   UNL     1       2.388   5.394  25.853  0.00  0.00    -0.263 NA
ATOM     40  C   UNL     1       2.909   6.120  26.935  0.00  0.00    +0.111 A 
ENDBRANCH   4   3
ENDBRANCH  10   9
BRANCH  12  13
ATOM     13  N   UNL     1       5.449  -1.819  18.552  0.00  0.00    -0.281 N 
ATOM     14  C   UNL     1       5.098  -2.961  17.850  0.00  0.00    +0.248 C 
ATOM     30  O   UNL     1       5.233  -4.100  18.271  0.00  0.00    -0.270 OA
ATOM     31  H   UNL     1       5.468  -0.952  18.017  0.00  0.00    +0.155 HD
BRANCH  14  15
ATOM     15  C   UNL     1       4.529  -2.816  16.476  0.00  0.00    +0.037 A 
ATOM     16  C   UNL     1       3.661  -3.847  15.900  0.00  0.00    +0.013 A 
ATOM     17  C   UNL     1       3.139  -3.691  14.566  0.00  0.00    +0.005 A 
ATOM     18  C   UNL     1       3.482  -2.496  13.798  0.00  0.00    -0.033 A 
ATOM     28  C   UNL     1       4.341  -1.487  14.395  0.00  0.00    +0.005 A 
ATOM     29  C   UNL     1       4.856  -1.637  15.702  0.00  0.00    +0.013 A 
BRANCH  18  19
ATOM     19  C   UNL     1       2.987  -2.256  12.359  0.00  0.00    +0.119 C 
BRANCH  19  20
ATOM     20  N   UNL     1       2.300  -0.961  12.080  0.00  0.00    -0.302 NA
ATOM     21  C   UNL     1       0.972  -0.841  12.834  0.00  0.00    +0.066 C 
ATOM     22  C   UNL     1       0.277   0.530  12.548  0.00  0.00    -0.064 C 
ATOM     23  N   UNL     1       0.060   0.685  11.042  0.00  0.00    +0.379 N 
ATOM     24  C   UNL     1      -0.645   1.946  10.774  0.00  0.00    -0.096 C 
ATOM     25  H   UNL     1      -0.600  -0.150  10.708  0.00  0.00    -0.082 HD
ATOM     26  C   UNL     1       1.375   0.564  10.284  0.00  0.00    -0.064 C 
ATOM     27  C   UNL     1       2.072  -0.789  10.598  0.00  0.00    +0.066 C 
ENDBRANCH  19  20
ENDBRANCH  18  19
ENDBRANCH  14  15
ENDBRANCH  12  13
TORSDOF 6
ENDMDL
MODEL 4
REMARK VINA RESULT:      -7.6      1.465      1.723
REMARK  Name = C:\Users\Docking\Desktop\test protocol\1iep_ligandH.pdb
REMARK  8 active torsions:
REMARK  status: ('A' for Active; 'I' for Inactive)
REMARK    1  A    between atoms: _5  and  _11
REMARK    2  A    between atoms: _19  and  _21
REMARK    3  A    between atoms: _22  and  _66
REMARK    4  A    between atoms: _27  and  _30
REMARK    5  A    between atoms: _32  and  _33
REMARK    6  A    between atoms: _38  and  _43
REMARK    7  A    between atoms: _43  and  _46
REMARK    8  A    between atoms: _53  and  _55
REMARK                            x       y       z     vdW  Elec       q    Type
REMARK                         _______ _______ _______ _____ _____    ______ ____
ROOT
ATOM     10  C   UNL     1       4.286  -3.532  16.613  0.00  0.00    +0.038 A 
ATOM     11  C   UNL     1       3.478  -4.359  17.434  0.00  0.00    +0.047 A 
ATOM     12  C   UNL     1       4.025  -5.542  18.082  0.00  0.00    +0.035 A 
ATOM     32  C   UNL     1       5.400  -5.850  17.874  0.00  0.00    +0.024 A 
ATOM     33  C   UNL     1       6.237  -5.021  17.042  0.00  0.00    +0.007 A 
ATOM     34  C   UNL     1       5.702  -3.855  16.398  0.00  0.00    -0.029 A 
ATOM     35  C   UNL     1       6.643  -3.006  15.512  0.00  0.00    +0.045 C 
ENDROOT
BRANCH  10   9
ATOM      4  C   UNL     1       2.118  -1.337  12.936  0.00  0.00    +0.077 A 
ATOM      5  C   UNL     1       2.163  -2.521  12.127  0.00  0.00    +0.048 A 
ATOM      6  C   UNL     1       2.758  -3.671  12.691  0.00  0.00    +0.116 A 
ATOM      7  N   UNL     1       3.268  -3.630  13.971  0.00  0.00    -0.223 NA
ATOM      8  C   UNL     1       3.210  -2.471  14.724  0.00  0.00    +0.220 A 
ATOM      9  N   UNL     1       3.709  -2.409  16.016  0.00  0.00    -0.283 N 
ATOM     36  H   UNL     1       3.654  -1.534  16.536  0.00  0.00    +0.155 HD
ATOM     37  N   UNL     1       2.648  -1.359  14.207  0.00  0.00    -0.214 NA
BRANCH   4   3
ATOM      1  C   UNL     1      -0.444   1.485  12.058  0.00  0.00    +0.020 A 
ATOM      2  C   UNL     1       0.085   0.218  12.508  0.00  0.00    +0.013 A 
ATOM      3  C   UNL     1       1.518  -0.043  12.482  0.00  0.00    +0.019 A 
ATOM     38  C   UNL     1       2.397   1.007  11.991  0.00  0.00    +0.120 A 
ATOM     39  N   UNL     1       1.860   2.217  11.563  0.00  0.00    -0.263 NA
ATOM     40  C   UNL     1       0.482   2.479  11.582  0.00  0.00    +0.111 A 
ENDBRANCH   4   3
ENDBRANCH  10   9
BRANCH  12  13
ATOM     13  N   UNL     1       3.250  -6.423  18.919  0.00  0.00    -0.281 N 
ATOM     14  C   UNL     1       3.283  -6.533  20.300  0.00  0.00    +0.248 C 
ATOM     30  O   UNL     1       4.143  -6.037  21.012  0.00  0.00    -0.270 OA
ATOM     31  H   UNL     1       2.598  -7.041  18.436  0.00  0.00    +0.155 HD
BRANCH  14  15
ATOM     15  C   UNL     1       2.215  -7.321  20.987  0.00  0.00    +0.037 A 
ATOM     16  C   UNL     1       1.759  -8.608  20.456  0.00  0.00    +0.013 A 
ATOM     17  C   UNL     1       0.715  -9.339  21.130  0.00  0.00    +0.005 A 
ATOM     18  C   UNL     1       0.120  -8.784  22.343  0.00  0.00    -0.033 A 
ATOM     28  C   UNL     1       0.595  -7.508  22.851  0.00  0.00    +0.005 A 
ATOM     29  C   UNL     1       1.618  -6.788  22.193  0.00  0.00    +0.013 A 
BRANCH  18  19
ATOM     19  C   UNL     1      -1.013  -9.485  23.115  0.00  0.00    +0.119 C 
BRANCH  19  20
ATOM     20  N   UNL     1      -2.415  -9.163  22.714  0.00  0.00    -0.302 NA
ATOM     21  C   UNL     1      -3.080  -8.184  23.685  0.00  0.00    +0.066 C 
ATOM     22  C   UNL     1      -4.538  -7.840  23.238  0.00  0.00    -0.064 C 
ATOM     23  N   UNL     1      -5.352  -9.130  23.127  0.00  0.00    +0.379 N 
ATOM     24  C   UNL     1      -6.739  -8.805  22.762  0.00  0.00    -0.096 C 
ATOM     25  H   UNL     1      -5.370  -9.606  24.134  0.00  0.00    -0.082 HD
ATOM     26  C   UNL     1      -4.697 -10.110  22.164  0.00  0.00    -0.064 C 
ATOM     27  C   UNL     1      -3.238 -10.422  22.602  0.00  0.00    +0.066 C 
ENDBRANCH  19  20
ENDBRANCH  18  19
ENDBRANCH  14  15
ENDBRANCH  12  13
TORSDOF 6
ENDMDL
MODEL 5
REMARK VINA RESULT:      -7.4      8.408     12.666
REMARK  Name = C:\Users\Docking\Desktop\test protocol\1iep_ligandH.pdb
REMARK  8 active torsions:
REMARK  status: ('A' for Active; 'I' for Inactive)
REMARK    1  A    between atoms: _5  and  _11
REMARK    2  A    between atoms: _19  and  _21
REMARK    3  A    between atoms: _22  and  _66
REMARK    4  A    between atoms: _27  and  _30
REMARK    5  A    between atoms: _32  and  _33
REMARK    6  A    between atoms: _38  and  _43
REMARK    7  A    between atoms: _43  and  _46
REMARK    8  A    between atoms: _53  and  _55
REMARK                            x       y       z     vdW  Elec       q    Type
REMARK                         _______ _______ _______ _____ _____    ______ ____
ROOT
ATOM     10  C   UNL     1       5.734  -0.263  22.411  0.00  0.00    +0.038 A 
ATOM     11  C   UNL     1       5.430  -0.221  21.027  0.00  0.00    +0.047 A 
ATOM     12  C   UNL     1       6.081  -1.117  20.085  0.00  0.00    +0.035 A 
ATOM     32  C   UNL     1       7.037  -2.048  20.588  0.00  0.00    +0.024 A 
ATOM     33  C   UNL     1       7.359  -2.104  21.992  0.00  0.00    +0.007 A 
ATOM     34  C   UNL     1       6.721  -1.220  22.926  0.00  0.00    -0.029 A 
ATOM     35  C   UNL     1       7.111  -1.321  24.419  0.00  0.00    +0.045 C 
ENDROOT
BRANCH  10   9
ATOM      4  C   UNL     1       5.427   3.910  24.761  0.00  0.00    +0.077 A 
ATOM      5  C   UNL     1       6.693   4.356  24.255  0.00  0.00    +0.048 A 
ATOM      6  C   UNL     1       7.395   3.479  23.399  0.00  0.00    +0.116 A 
ATOM      7  N   UNL     1       6.861   2.249  23.079  0.00  0.00    -0.223 NA
ATOM      8  C   UNL     1       5.638   1.849  23.586  0.00  0.00    +0.220 A 
ATOM      9  N   UNL     1       5.078   0.621  23.271  0.00  0.00    -0.283 N 
ATOM     36  H   UNL     1       4.178   0.360  23.671  0.00  0.00    +0.155 HD
ATOM     37  N   UNL     1       4.949   2.669  24.407  0.00  0.00    -0.214 NA
BRANCH   4   3
ATOM      1  C   UNL     1       4.213   6.203  27.689  0.00  0.00    +0.020 A 
ATOM      2  C   UNL     1       5.088   5.429  26.839  0.00  0.00    +0.013 A 
ATOM      3  C   UNL     1       4.565   4.725  25.675  0.00  0.00    +0.019 A 
ATOM     38  C   UNL     1       3.141   4.827  25.395  0.00  0.00    +0.120 A 
ATOM     39  N   UNL     1       2.322   5.579  26.232  0.00  0.00    -0.263 NA
ATOM     40  C   UNL     1       2.814   6.259  27.357  0.00  0.00    +0.111 A 
ENDBRANCH   4   3
ENDBRANCH  10   9
BRANCH  12  13
ATOM     13  N   UNL     1       5.819  -1.114  18.667  0.00  0.00    -0.281 N 
ATOM     14  C   UNL     1       6.515  -0.446  17.673  0.00  0.00    +0.248 C 
ATOM     30  O   UNL     1       7.345   0.427  17.879  0.00  0.00    -0.270 OA
ATOM     31  H   UNL     1       5.023  -1.673  18.359  0.00  0.00    +0.155 HD
BRANCH  14  15
ATOM     15  C   UNL     1       6.238  -0.786  16.244  0.00  0.00    +0.037 A 
ATOM     16  C   UNL     1       6.695  -2.050  15.662  0.00  0.00    +0.013 A 
ATOM     17  C   UNL     1       6.430  -2.346  14.276  0.00  0.00    +0.005 A 
ATOM     18  C   UNL     1       5.702  -1.375  13.464  0.00  0.00    -0.033 A 
ATOM     28  C   UNL     1       5.256  -0.130  14.068  0.00  0.00    +0.005 A 
ATOM     29  C   UNL     1       5.515   0.163  15.426  0.00  0.00    +0.013 A 
BRANCH  18  19
ATOM     19  C   UNL     1       5.393  -1.597  11.971  0.00  0.00    +0.119 C 
BRANCH  19  20
ATOM     20  N   UNL     1       4.058  -2.171  11.627  0.00  0.00    -0.302 NA
ATOM     21  C   UNL     1       2.991  -1.085  11.464  0.00  0.00    +0.066 C 
ATOM     22  C   UNL     1       1.605  -1.701  11.083  0.00  0.00    -0.064 C 
ATOM     23  N   UNL     1       1.189  -2.713  12.151  0.00  0.00    +0.379 N 
ATOM     24  C   UNL     1      -0.140  -3.251  11.826  0.00  0.00    -0.096 C 
ATOM     25  H   UNL     1       1.105  -2.167  13.119  0.00  0.00    -0.082 HD
ATOM     26  C   UNL     1       2.245  -3.795  12.322  0.00  0.00    -0.064 C 
ATOM     27  C   UNL     1       3.625  -3.170  12.672  0.00  0.00    +0.066 C 
ENDBRANCH  19  20
ENDBRANCH  18  19
ENDBRANCH  14  15
ENDBRANCH  12  13
TORSDOF 6
ENDMDL
