MODEL 1
REMARK VINA RESULT:      -8.6      0.000      0.000
REMARK  Name = C:\Users\Docking\Desktop\test protocol\1iep_ligandH.pdb
REMARK  8 active torsions:
REMARK  status: ('A' for Active; 'I' for Inactive)
REMARK    1  A    between atoms: _5  and  _11
REMARK    2  A    between atoms: _19  and  _21
REMARK    3  A    between atoms: _22  and  _66
REMARK    4  A    between atoms: _27  and  _30
REMARK    5  A    between atoms: _32  and  _33
REMARK    6  A    between atoms: _38  and  _43
REMARK    7  A    between atoms: _43  and  _46
REMARK    8  A    between atoms: _53  and  _55
REMARK                            x       y       z     vdW  Elec       q    Type
REMARK                         _______ _______ _______ _____ _____    ______ ____
ROOT
ATOM     10  C   UNL     1       3.160  36.744  22.541  0.00  0.00    +0.038 A 
ATOM     11  C   UNL     1       3.048  35.375  22.894  0.00  0.00    +0.047 A 
ATOM     12  C   UNL     1       2.920  34.964  24.283  0.00  0.00    +0.035 A 
ATOM     32  C   UNL     1       2.907  35.975  25.288  0.00  0.00    +0.024 A 
ATOM     33  C   UNL     1       3.020  37.371  24.947  0.00  0.00    +0.007 A 
ATOM     34  C   UNL     1       3.150  37.782  23.578  0.00  0.00    -0.029 A 
ATOM     35  C   UNL     1       3.275  39.293  23.272  0.00  0.00    +0.045 C 
ENDROOT
BRANCH  10   9
ATOM      4  C   UNL     1       5.445  36.577  18.323  0.00  0.00    +0.077 A 
ATOM      5  C   UNL     1       6.502  35.770  18.861  0.00  0.00    +0.048 A 
ATOM      6  C   UNL     1       6.424  35.426  20.229  0.00  0.00    +0.116 A 
ATOM      7  N   UNL     1       5.363  35.861  20.993  0.00  0.00    -0.223 NA
ATOM      8  C   UNL     1       4.361  36.640  20.443  0.00  0.00    +0.220 A 
ATOM      9  N   UNL     1       3.280  37.082  21.191  0.00  0.00    -0.283 N 
ATOM     36  H   UNL     1       2.565  37.660  20.750  0.00  0.00    +0.155 HD
ATOM     37  N   UNL     1       4.413  36.983  19.140  0.00  0.00    -0.214 NA
BRANCH   4   3
ATOM      1  C   UNL     1       5.726  36.651  14.422  0.00  0.00    +0.020 A 
ATOM      2  C   UNL     1       5.806  36.175  15.784  0.00  0.00    +0.013 A 
ATOM      3  C   UNL     1       5.384  37.020  16.894  0.00  0.00    +0.019 A 
ATOM     38  C   UNL     1       4.882  38.351  16.590  0.00  0.00    +0.120 A 
ATOM     39  N   UNL     1       4.818  38.783  15.269  0.00  0.00    -0.263 NA
ATOM     40  C   UNL     1       5.223  37.980  14.193  0.00  0.00    +0.111 A 
ENDBRANCH   4   3
ENDBRANCH  10   9
BRANCH  12  13
ATOM     13  N   UNL     1       2.811  33.589  24.702  0.00  0.00    -0.281 N 
ATOM     14  C   UNL     1       3.721  32.848  25.438  0.00  0.00    +0.248 C 
ATOM     30  O   UNL     1       4.871  33.195  25.666  0.00  0.00    -0.270 OA
ATOM     31  H   UNL     1       1.959  33.102  24.423  0.00  0.00    +0.155 HD
BRANCH  14  15
ATOM     15  C   UNL     1       3.299  31.524  25.987  0.00  0.00    +0.037 A 
ATOM     16  C   UNL     1       4.061  30.863  27.050  0.00  0.00    +0.013 A 
ATOM     17  C   UNL     1       3.641  29.578  27.550  0.00  0.00    +0.005 A 
ATOM     18  C   UNL     1       2.450  28.946  26.988  0.00  0.00    -0.033 A 
ATOM     28  C   UNL     1       1.709  29.625  25.939  0.00  0.00    +0.005 A 
ATOM     29  C   UNL     1       2.119  30.884  25.445  0.00  0.00    +0.013 A 
BRANCH  18  19
ATOM     19  C   UNL     1       1.941  27.566  27.447  0.00  0.00    +0.119 C 
BRANCH  19  20
ATOM     20  N   UNL     1       2.225  26.402  26.556  0.00  0.00    -0.302 NA
ATOM     21  C   UNL     1       1.269  25.234  26.814  0.00  0.00    +0.066 C 
ATOM     22  C   UNL     1       1.566  24.033  25.858  0.00  0.00    -0.064 C 
ATOM     23  N   UNL     1       3.020  23.592  26.034  0.00  0.00    +0.379 N 
ATOM     24  C   UNL     1       3.286  22.426  25.179  0.00  0.00    -0.096 C 
ATOM     25  H   UNL     1       3.150  23.271  27.094  0.00  0.00    -0.082 HD
ATOM     26  C   UNL     1       3.978  24.748  25.782  0.00  0.00    -0.064 C 
ATOM     27  C   UNL     1       3.655  25.947  26.716  0.00  0.00    +0.066 C 
ENDBRANCH  19  20
ENDBRANCH  18  19
ENDBRANCH  14  15
ENDBRANCH  12  13
TORSDOF 6
ENDMDL
MODEL 2
REMARK VINA RESULT:      -8.4     12.192     15.336
REMARK  Name = C:\Users\Docking\Desktop\test protocol\1iep_ligandH.pdb
REMARK  8 active torsions:
REMARK  status: ('A' for Active; 'I' for Inactive)
REMARK    1  A    between atoms: _5  and  _11
REMARK    2  A    between atoms: _19  and  _21
REMARK    3  A    between atoms: _22  and  _66
REMARK    4  A    between atoms: _27  and  _30
REMARK    5  A    between atoms: _32  and  _33
REMARK    6  A    between atoms: _38  and  _43
REMARK    7  A    between atoms: _43  and  _46
REMARK    8  A    between atoms: _53  and  _55
REMARK                            x       y       z     vdW  Elec       q    Type
REMARK                         _______ _______ _______ _____ _____    ______ ____
ROOT
ATOM     10  C   UNL     1       9.358  25.539  19.434  0.00  0.00    +0.038 A 
ATOM     11  C   UNL     1      10.634  25.250  18.886  0.00  0.00    +0.047 A 
ATOM     12  C   UNL     1      11.206  23.915  18.974  0.00  0.00    +0.035 A 
ATOM     32  C   UNL     1      10.450  22.897  19.625  0.00  0.00    +0.024 A 
ATOM     33  C   UNL     1       9.152  23.174  20.189  0.00  0.00    +0.007 A 
ATOM     34  C   UNL     1       8.584  24.489  20.107  0.00  0.00    -0.029 A 
ATOM     35  C   UNL     1       7.191  24.730  20.735  0.00  0.00    +0.045 C 
ENDROOT
BRANCH  10   9
ATOM      4  C   UNL     1       8.315  29.848  21.273  0.00  0.00    +0.077 A 
ATOM      5  C   UNL     1       8.784  29.471  22.576  0.00  0.00    +0.048 A 
ATOM      6  C   UNL     1       9.279  28.156  22.732  0.00  0.00    +0.116 A 
ATOM      7  N   UNL     1       9.299  27.292  21.659  0.00  0.00    -0.223 NA
ATOM      8  C   UNL     1       8.839  27.687  20.417  0.00  0.00    +0.220 A 
ATOM      9  N   UNL     1       8.857  26.837  19.322  0.00  0.00    -0.283 N 
ATOM     36  H   UNL     1       8.501  27.164  18.424  0.00  0.00    +0.155 HD
ATOM     37  N   UNL     1       8.360  28.936  20.242  0.00  0.00    -0.214 NA
BRANCH   4   3
ATOM      1  C   UNL     1       6.262  33.174  21.410  0.00  0.00    +0.020 A 
ATOM      2  C   UNL     1       6.759  31.865  21.767  0.00  0.00    +0.013 A 
ATOM      3  C   UNL     1       7.766  31.202  20.949  0.00  0.00    +0.019 A 
ATOM     38  C   UNL     1       8.255  31.896  19.767  0.00  0.00    +0.120 A 
ATOM     39  N   UNL     1       7.757  33.156  19.447  0.00  0.00    -0.263 NA
ATOM     40  C   UNL     1       6.786  33.803  20.226  0.00  0.00    +0.111 A 
ENDBRANCH   4   3
ENDBRANCH  10   9
BRANCH  12  13
ATOM     13  N   UNL     1      12.500  23.565  18.443  0.00  0.00    -0.281 N 
ATOM     14  C   UNL     1      12.784  22.763  17.350  0.00  0.00    +0.248 C 
ATOM     30  O   UNL     1      11.968  22.049  16.786  0.00  0.00    -0.270 OA
ATOM     31  H   UNL     1      13.305  23.955  18.934  0.00  0.00    +0.155 HD
BRANCH  14  15
ATOM     15  C   UNL     1      14.178  22.741  16.813  0.00  0.00    +0.037 A 
ATOM     16  C   UNL     1      15.321  23.115  17.650  0.00  0.00    +0.013 A 
ATOM     17  C   UNL     1      16.654  23.102  17.102  0.00  0.00    +0.005 A 
ATOM     18  C   UNL     1      16.852  22.710  15.708  0.00  0.00    -0.033 A 
ATOM     28  C   UNL     1      15.701  22.338  14.902  0.00  0.00    +0.005 A 
ATOM     29  C   UNL     1      14.393  22.352  15.435  0.00  0.00    +0.013 A 
BRANCH  18  19
ATOM     19  C   UNL     1      18.236  22.687  15.034  0.00  0.00    +0.119 C 
BRANCH  19  20
ATOM     20  N   UNL     1      19.037  23.947  15.073  0.00  0.00    -0.302 NA
ATOM     21  C   UNL     1      18.229  25.156  14.593  0.00  0.00    +0.066 C 
ATOM     22  C   UNL     1      19.075  26.469  14.661  0.00  0.00    -0.064 C 
ATOM     23  N   UNL     1      20.345  26.299  13.826  0.00  0.00    +0.379 N 
ATOM     24  C   UNL     1      21.114  27.552  13.841  0.00  0.00    -0.096 C 
ATOM     25  H   UNL     1      20.033  26.107  12.773  0.00  0.00    -0.082 HD
ATOM     26  C   UNL     1      21.153  25.098  14.295  0.00  0.00    -0.064 C 
ATOM     27  C   UNL     1      20.294  23.803  14.251  0.00  0.00    +0.066 C 
ENDBRANCH  19  20
ENDBRANCH  18  19
ENDBRANCH  14  15
ENDBRANCH  12  13
TORSDOF 6
ENDMDL
MODEL 3
REMARK VINA RESULT:      -8.2      7.239     13.235
REMARK  Name = C:\Users\Docking\Desktop\test protocol\1iep_ligandH.pdb
REMARK  8 active torsions:
REMARK  status: ('A' for Active; 'I' for Inactive)
REMARK    1  A    between atoms: _5  and  _11
REMARK    2  A    between atoms: _19  and  _21
REMARK    3  A    between atoms: _22  and  _66
REMARK    4  A    between atoms: _27  and  _30
REMARK    5  A    between atoms: _32  and  _33
REMARK    6  A    between atoms: _38  and  _43
REMARK    7  A    between atoms: _43  and  _46
REMARK    8  A    between atoms: _53  and  _55
REMARK                            x       y       z     vdW  Elec       q    Type
REMARK                         _______ _______ _______ _____ _____    ______ ____
ROOT
ATOM     10  C   UNL     1       7.277  33.815  21.241  0.00  0.00    +0.038 A 
ATOM     11  C   UNL     1       8.506  34.474  21.502  0.00  0.00    +0.047 A 
ATOM     12  C   UNL     1       9.478  34.701  20.444  0.00  0.00    +0.035 A 
ATOM     32  C   UNL     1       9.165  34.246  19.130  0.00  0.00    +0.024 A 
ATOM     33  C   UNL     1       7.922  33.573  18.847  0.00  0.00    +0.007 A 
ATOM     34  C   UNL     1       6.960  33.344  19.887  0.00  0.00    -0.029 A 
ATOM     35  C   UNL     1       5.646  32.612  19.527  0.00  0.00    +0.045 C 
ENDROOT
BRANCH  10   9
ATOM      4  C   UNL     1       3.363  35.027  23.740  0.00  0.00    +0.077 A 
ATOM      5  C   UNL     1       3.097  36.152  22.891  0.00  0.00    +0.048 A 
ATOM      6  C   UNL     1       3.996  36.389  21.826  0.00  0.00    +0.116 A 
ATOM      7  N   UNL     1       5.076  35.555  21.635  0.00  0.00    -0.223 NA
ATOM      8  C   UNL     1       5.305  34.479  22.473  0.00  0.00    +0.220 A 
ATOM      9  N   UNL     1       6.380  33.624  22.294  0.00  0.00    -0.283 N 
ATOM     36  H   UNL     1       6.518  32.846  22.939  0.00  0.00    +0.155 HD
ATOM     37  N   UNL     1       4.462  34.233  23.497  0.00  0.00    -0.214 NA
BRANCH   4   3
ATOM      1  C   UNL     1       0.854  33.127  26.063  0.00  0.00    +0.020 A 
ATOM      2  C   UNL     1       1.665  33.451  24.912  0.00  0.00    +0.013 A 
ATOM      3  C   UNL     1       2.503  34.644  24.904  0.00  0.00    +0.019 A 
ATOM     38  C   UNL     1       2.496  35.494  26.085  0.00  0.00    +0.120 A 
ATOM     39  N   UNL     1       1.703  35.158  27.177  0.00  0.00    -0.263 NA
ATOM     40  C   UNL     1       0.892  34.013  27.196  0.00  0.00    +0.111 A 
ENDBRANCH   4   3
ENDBRANCH  10   9
BRANCH  12  13
ATOM     13  N   UNL     1      10.745  35.357  20.652  0.00  0.00    -0.281 N 
ATOM     14  C   UNL     1      11.459  35.476  21.833  0.00  0.00    +0.248 C 
ATOM     30  O   UNL     1      11.011  35.219  22.940  0.00  0.00    -0.270 OA
ATOM     31  H   UNL     1      11.167  35.785  19.828  0.00  0.00    +0.155 HD
BRANCH  14  15
ATOM     15  C   UNL     1      12.871  35.965  21.777  0.00  0.00    +0.037 A 
ATOM     16  C   UNL     1      13.409  36.596  20.570  0.00  0.00    +0.013 A 
ATOM     17  C   UNL     1      14.779  37.043  20.537  0.00  0.00    +0.005 A 
ATOM     18  C   UNL     1      15.620  36.861  21.717  0.00  0.00    -0.033 A 
ATOM     28  C   UNL     1      15.059  36.236  22.904  0.00  0.00    +0.005 A 
ATOM     29  C   UNL     1      13.717  35.796  22.939  0.00  0.00    +0.013 A 
BRANCH  18  19
ATOM     19  C   UNL     1      17.099  37.289  21.765  0.00  0.00    +0.119 C 
BRANCH  19  20
ATOM     20  N   UNL     1      17.488  38.293  22.799  0.00  0.00    -0.302 NA
ATOM     21  C   UNL     1      16.445  39.404  22.942  0.00  0.00    +0.066 C 
ATOM     22  C   UNL     1      16.857  40.433  24.045  0.00  0.00    -0.064 C 
ATOM     23  N   UNL     1      18.229  41.019  23.705  0.00  0.00    +0.379 N 
ATOM     24  C   UNL     1      18.593  42.029  24.709  0.00  0.00    -0.096 C 
ATOM     25  H   UNL     1      18.141  41.535  22.721  0.00  0.00    -0.082 HD
ATOM     26  C   UNL     1      19.272  39.920  23.558  0.00  0.00    -0.064 C 
ATOM     27  C   UNL     1      18.838  38.887  22.481  0.00  0.00    +0.066 C 
ENDBRANCH  19  20
ENDBRANCH  18  19
ENDBRANCH  14  15
ENDBRANCH  12  13
TORSDOF 6
ENDMDL
MODEL 4
REMARK VINA RESULT:      -8.2      5.416      8.247
REMARK  Name = C:\Users\Docking\Desktop\test protocol\1iep_ligandH.pdb
REMARK  8 active torsions:
REMARK  status: ('A' for Active; 'I' for Inactive)
REMARK    1  A    between atoms: _5  and  _11
REMARK    2  A    between atoms: _19  and  _21
REMARK    3  A    between atoms: _22  and  _66
REMARK    4  A    between atoms: _27  and  _30
REMARK    5  A    between atoms: _32  and  _33
REMARK    6  A    between atoms: _38  and  _43
REMARK    7  A    between atoms: _43  and  _46
REMARK    8  A    between atoms: _53  and  _55
REMARK                            x       y       z     vdW  Elec       q    Type
REMARK                         _______ _______ _______ _____ _____    ______ ____
ROOT
ATOM     10  C   UNL     1       5.541  38.996  19.769  0.00  0.00    +0.038 A 
ATOM     11  C   UNL     1       5.911  37.676  20.133  0.00  0.00    +0.047 A 
ATOM     12  C   UNL     1       5.639  36.548  19.256  0.00  0.00    +0.035 A 
ATOM     32  C   UNL     1       4.989  36.801  18.013  0.00  0.00    +0.024 A 
ATOM     33  C   UNL     1       4.604  38.136  17.627  0.00  0.00    +0.007 A 
ATOM     34  C   UNL     1       4.868  39.252  18.489  0.00  0.00    -0.029 A 
ATOM     35  C   UNL     1       4.428  40.660  18.027  0.00  0.00    +0.045 C 
ENDROOT
BRANCH  10   9
ATOM      4  C   UNL     1       4.662  41.546  23.739  0.00  0.00    +0.077 A 
ATOM      5  C   UNL     1       3.521  40.744  24.073  0.00  0.00    +0.048 A 
ATOM      6  C   UNL     1       3.189  39.689  23.193  0.00  0.00    +0.116 A 
ATOM      7  N   UNL     1       3.949  39.462  22.066  0.00  0.00    -0.223 NA
ATOM      8  C   UNL     1       5.043  40.256  21.773  0.00  0.00    +0.220 A 
ATOM      9  N   UNL     1       5.827  40.041  20.649  0.00  0.00    -0.283 N 
ATOM     36  H   UNL     1       6.621  40.653  20.464  0.00  0.00    +0.155 HD
ATOM     37  N   UNL     1       5.380  41.270  22.596  0.00  0.00    -0.214 NA
BRANCH   4   3
ATOM      1  C   UNL     1       6.066  45.026  24.843  0.00  0.00    +0.020 A 
ATOM      2  C   UNL     1       5.614  43.947  23.995  0.00  0.00    +0.013 A 
ATOM      3  C   UNL     1       5.141  42.695  24.571  0.00  0.00    +0.019 A 
ATOM     38  C   UNL     1       5.137  42.565  26.020  0.00  0.00    +0.120 A 
ATOM     39  N   UNL     1       5.579  43.621  26.812  0.00  0.00    -0.263 NA
ATOM     40  C   UNL     1       6.038  44.830  26.269  0.00  0.00    +0.111 A 
ENDBRANCH   4   3
ENDBRANCH  10   9
BRANCH  12  13
ATOM     13  N   UNL     1       5.985  35.186  19.576  0.00  0.00    -0.281 N 
ATOM     14  C   UNL     1       7.141  34.499  19.242  0.00  0.00    +0.248 C 
ATOM     30  O   UNL     1       7.966  34.890  18.430  0.00  0.00    -0.270 OA
ATOM     31  H   UNL     1       5.293  34.663  20.114  0.00  0.00    +0.155 HD
BRANCH  14  15
ATOM     15  C   UNL     1       7.413  33.183  19.895  0.00  0.00    +0.037 A 
ATOM     16  C   UNL     1       6.731  32.792  21.131  0.00  0.00    +0.013 A 
ATOM     17  C   UNL     1       7.024  31.523  21.749  0.00  0.00    +0.005 A 
ATOM     18  C   UNL     1       8.005  30.635  21.130  0.00  0.00    -0.033 A 
ATOM     28  C   UNL     1       8.663  31.045  19.900  0.00  0.00    +0.005 A 
ATOM     29  C   UNL     1       8.378  32.288  19.292  0.00  0.00    +0.013 A 
BRANCH  18  19
ATOM     19  C   UNL     1       8.395  29.271  21.731  0.00  0.00    +0.119 C 
BRANCH  19  20
ATOM     20  N   UNL     1       8.615  28.142  20.779  0.00  0.00    -0.302 NA
ATOM     21  C   UNL     1       7.853  26.881  21.198  0.00  0.00    +0.066 C 
ATOM     22  C   UNL     1       8.075  25.717  20.179  0.00  0.00    -0.064 C 
ATOM     23  N   UNL     1       9.573  25.429  20.057  0.00  0.00    +0.379 N 
ATOM     24  C   UNL     1       9.782  24.296  19.144  0.00  0.00    -0.096 C 
ATOM     25  H   UNL     1       9.941  25.124  21.064  0.00  0.00    -0.082 HD
ATOM     26  C   UNL     1      10.338  26.678  19.644  0.00  0.00    -0.064 C 
ATOM     27  C   UNL     1      10.087  27.838  20.647  0.00  0.00    +0.066 C 
ENDBRANCH  19  20
ENDBRANCH  18  19
ENDBRANCH  14  15
ENDBRANCH  12  13
TORSDOF 6
ENDMDL
MODEL 5
REMARK VINA RESULT:      -8.2      5.854     13.419
REMARK  Name = C:\Users\Docking\Desktop\test protocol\1iep_ligandH.pdb
REMARK  8 active torsions:
REMARK  status: ('A' for Active; 'I' for Inactive)
REMARK    1  A    between atoms: _5  and  _11
REMARK    2  A    between atoms: _19  and  _21
REMARK    3  A    between atoms: _22  and  _66
REMARK    4  A    between atoms: _27  and  _30
REMARK    5  A    between atoms: _32  and  _33
REMARK    6  A    between atoms: _38  and  _43
REMARK    7  A    between atoms: _43  and  _46
REMARK    8  A    between atoms: _53  and  _55
REMARK                            x       y       z     vdW  Elec       q    Type
REMARK                         _______ _______ _______ _____ _____    ______ ____
ROOT
ATOM     10  C   UNL     1       9.170  25.476  20.017  0.00  0.00    +0.038 A 
ATOM     11  C   UNL     1       8.485  26.705  19.833  0.00  0.00    +0.047 A 
ATOM     12  C   UNL     1       9.060  27.962  20.286  0.00  0.00    +0.035 A 
ATOM     32  C   UNL     1      10.336  27.931  20.921  0.00  0.00    +0.024 A 
ATOM     33  C   UNL     1      11.045  26.691  21.117  0.00  0.00    +0.007 A 
ATOM     34  C   UNL     1      10.482  25.448  20.675  0.00  0.00    -0.029 A 
ATOM     35  C   UNL     1      11.284  24.148  20.917  0.00  0.00    +0.045 C 
ENDROOT
BRANCH  10   9
ATOM      4  C   UNL     1       5.842  22.030  20.319  0.00  0.00    +0.077 A 
ATOM      5  C   UNL     1       5.264  22.610  21.497  0.00  0.00    +0.048 A 
ATOM      6  C   UNL     1       5.857  23.790  21.998  0.00  0.00    +0.116 A 
ATOM      7  N   UNL     1       6.947  24.342  21.359  0.00  0.00    -0.223 NA
ATOM      8  C   UNL     1       7.481  23.757  20.226  0.00  0.00    +0.220 A 
ATOM      9  N   UNL     1       8.571  24.299  19.563  0.00  0.00    -0.283 N 
ATOM     36  H   UNL     1       8.940  23.833  18.734  0.00  0.00    +0.155 HD
ATOM     37  N   UNL     1       6.933  22.628  19.729  0.00  0.00    -0.214 NA
BRANCH   4   3
ATOM      1  C   UNL     1       3.535  19.456  18.489  0.00  0.00    +0.020 A 
ATOM      2  C   UNL     1       3.984  20.682  19.107  0.00  0.00    +0.013 A 
ATOM      3  C   UNL     1       5.326  20.785  19.668  0.00  0.00    +0.019 A 
ATOM     38  C   UNL     1       6.195  19.621  19.585  0.00  0.00    +0.120 A 
ATOM     39  N   UNL     1       5.734  18.453  18.985  0.00  0.00    -0.263 NA
ATOM     40  C   UNL     1       4.445  18.341  18.443  0.00  0.00    +0.111 A 
ENDBRANCH   4   3
ENDBRANCH  10   9
BRANCH  12  13
ATOM     13  N   UNL     1       8.408  29.239  20.134  0.00  0.00    -0.281 N 
ATOM     14  C   UNL     1       8.081  30.151  21.124  0.00  0.00    +0.248 C 
ATOM     30  O   UNL     1       8.109  29.911  22.322  0.00  0.00    -0.270 OA
ATOM     31  H   UNL     1       8.157  29.502  19.181  0.00  0.00    +0.155 HD
BRANCH  14  15
ATOM     15  C   UNL     1       7.648  31.525  20.724  0.00  0.00    +0.037 A 
ATOM     16  C   UNL     1       8.146  32.712  21.424  0.00  0.00    +0.013 A 
ATOM     17  C   UNL     1       7.698  34.025  21.030  0.00  0.00    +0.005 A 
ATOM     18  C   UNL     1       6.747  34.156  19.928  0.00  0.00    -0.033 A 
ATOM     28  C   UNL     1       6.274  32.962  19.248  0.00  0.00    +0.005 A 
ATOM     29  C   UNL     1       6.709  31.674  19.633  0.00  0.00    +0.013 A 
BRANCH  18  19
ATOM     19  C   UNL     1       6.200  35.515  19.454  0.00  0.00    +0.119 C 
BRANCH  19  20
ATOM     20  N   UNL     1       5.664  36.439  20.498  0.00  0.00    -0.302 NA
ATOM     21  C   UNL     1       4.270  36.022  20.973  0.00  0.00    +0.066 C 
ATOM     22  C   UNL     1       3.735  36.986  22.082  0.00  0.00    -0.064 C 
ATOM     23  N   UNL     1       3.718  38.418  21.544  0.00  0.00    +0.379 N 
ATOM     24  C   UNL     1       3.161  39.319  22.564  0.00  0.00    -0.096 C 
ATOM     25  H   UNL     1       3.036  38.441  20.664  0.00  0.00    -0.082 HD
ATOM     26  C   UNL     1       5.101  38.840  21.067  0.00  0.00    -0.064 C 
ATOM     27  C   UNL     1       5.636  37.858  19.987  0.00  0.00    +0.066 C 
ENDBRANCH  19  20
ENDBRANCH  18  19
ENDBRANCH  14  15
ENDBRANCH  12  13
TORSDOF 6
ENDMDL
