MODEL 1
REMARK VINA RESULT:      -8.6      0.000      0.000
REMARK  Name = C:\Users\Docking\Desktop\test protocol\1iep_ligandH.pdb
REMARK  8 active torsions:
REMARK  status: ('A' for Active; 'I' for Inactive)
REMARK    1  A    between atoms: _5  and  _11
REMARK    2  A    between atoms: _19  and  _21
REMARK    3  A    between atoms: _22  and  _66
REMARK    4  A    between atoms: _27  and  _30
REMARK    5  A    between atoms: _32  and  _33
REMARK    6  A    between atoms: _38  and  _43
REMARK    7  A    between atoms: _43  and  _46
REMARK    8  A    between atoms: _53  and  _55
REMARK                            x       y       z     vdW  Elec       q    Type
REMARK                         _______ _______ _______ _____ _____    ______ ____
ROOT
ATOM     10  C   UNL     1      14.314  22.222  16.174  0.00  0.00    +0.038 A 
ATOM     11  C   UNL     1      13.318  22.226  15.165  0.00  0.00    +0.047 A 
ATOM     12  C   UNL     1      12.341  21.153  15.067  0.00  0.00    +0.035 A 
ATOM     32  C   UNL     1      12.406  20.092  16.017  0.00  0.00    +0.024 A 
ATOM     33  C   UNL     1      13.413  20.072  17.049  0.00  0.00    +0.007 A 
ATOM     34  C   UNL     1      14.381  21.126  17.148  0.00  0.00    -0.029 A 
ATOM     35  C   UNL     1      15.441  21.049  18.271  0.00  0.00    +0.045 C 
ENDROOT
BRANCH  10   9
ATOM      4  C   UNL     1      18.448  24.303  14.902  0.00  0.00    +0.077 A 
ATOM      5  C   UNL     1      18.834  23.180  14.096  0.00  0.00    +0.048 A 
ATOM      6  C   UNL     1      17.944  22.084  14.042  0.00  0.00    +0.116 A 
ATOM      7  N   UNL     1      16.759  22.120  14.744  0.00  0.00    -0.223 NA
ATOM      8  C   UNL     1      16.418  23.218  15.513  0.00  0.00    +0.220 A 
ATOM      9  N   UNL     1      15.228  23.278  16.221  0.00  0.00    -0.283 N 
ATOM     36  H   UNL     1      15.016  24.103  16.782  0.00  0.00    +0.155 HD
ATOM     37  N   UNL     1      17.252  24.276  15.583  0.00  0.00    -0.214 NA
BRANCH   4   3
ATOM      1  C   UNL     1      20.416  27.598  14.147  0.00  0.00    +0.020 A 
ATOM      2  C   UNL     1      19.609  26.418  13.943  0.00  0.00    +0.013 A 
ATOM      3  C   UNL     1      19.281  25.537  15.057  0.00  0.00    +0.019 A 
ATOM     38  C   UNL     1      19.789  25.884  16.376  0.00  0.00    +0.120 A 
ATOM     39  N   UNL     1      20.566  27.026  16.542  0.00  0.00    -0.263 NA
ATOM     40  C   UNL     1      20.889  27.879  15.477  0.00  0.00    +0.111 A 
ENDBRANCH   4   3
ENDBRANCH  10   9
BRANCH  12  13
ATOM     13  N   UNL     1      11.312  21.099  14.059  0.00  0.00    -0.281 N 
ATOM     14  C   UNL     1       9.952  21.307  14.218  0.00  0.00    +0.248 C 
ATOM     30  O   UNL     1       9.383  21.360  15.299  0.00  0.00    -0.270 OA
ATOM     31  H   UNL     1      11.624  20.882  13.112  0.00  0.00    +0.155 HD
BRANCH  14  15
ATOM     15  C   UNL     1       9.097  21.463  13.002  0.00  0.00    +0.037 A 
ATOM     16  C   UNL     1       9.088  20.449  11.945  0.00  0.00    +0.013 A 
ATOM     17  C   UNL     1       8.267  20.632  10.774  0.00  0.00    +0.005 A 
ATOM     18  C   UNL     1       7.448  21.836  10.655  0.00  0.00    -0.033 A 
ATOM     28  C   UNL     1       7.473  22.824  11.721  0.00  0.00    +0.005 A 
ATOM     29  C   UNL     1       8.276  22.648  12.870  0.00  0.00    +0.013 A 
BRANCH  18  19
ATOM     19  C   UNL     1       6.559  22.125   9.431  0.00  0.00    +0.119 C 
BRANCH  19  20
ATOM     20  N   UNL     1       7.247  22.393   8.133  0.00  0.00    -0.302 NA
ATOM     21  C   UNL     1       7.639  23.866   7.985  0.00  0.00    +0.066 C 
ATOM     22  C   UNL     1       8.378  24.125   6.632  0.00  0.00    -0.064 C 
ATOM     23  N   UNL     1       7.484  23.683   5.473  0.00  0.00    +0.379 N 
ATOM     24  C   UNL     1       8.152  23.979   4.197  0.00  0.00    -0.096 C 
ATOM     25  H   UNL     1       6.551  24.292   5.515  0.00  0.00    -0.082 HD
ATOM     26  C   UNL     1       7.087  22.221   5.614  0.00  0.00    -0.064 C 
ATOM     27  C   UNL     1       6.380  21.968   6.974  0.00  0.00    +0.066 C 
ENDBRANCH  19  20
ENDBRANCH  18  19
ENDBRANCH  14  15
ENDBRANCH  12  13
TORSDOF 6
ENDMDL
MODEL 2
REMARK VINA RESULT:      -8.6      7.377     11.701
REMARK  Name = C:\Users\Docking\Desktop\test protocol\1iep_ligandH.pdb
REMARK  8 active torsions:
REMARK  status: ('A' for Active; 'I' for Inactive)
REMARK    1  A    between atoms: _5  and  _11
REMARK    2  A    between atoms: _19  and  _21
REMARK    3  A    between atoms: _22  and  _66
REMARK    4  A    between atoms: _27  and  _30
REMARK    5  A    between atoms: _32  and  _33
REMARK    6  A    between atoms: _38  and  _43
REMARK    7  A    between atoms: _43  and  _46
REMARK    8  A    between atoms: _53  and  _55
REMARK                            x       y       z     vdW  Elec       q    Type
REMARK                         _______ _______ _______ _____ _____    ______ ____
ROOT
ATOM     10  C   UNL     1       9.282  25.585  19.295  0.00  0.00    +0.038 A 
ATOM     11  C   UNL     1      10.605  25.369  18.830  0.00  0.00    +0.047 A 
ATOM     12  C   UNL     1      11.212  24.047  18.875  0.00  0.00    +0.035 A 
ATOM     32  C   UNL     1      10.442  22.968  19.397  0.00  0.00    +0.024 A 
ATOM     33  C   UNL     1       9.096  23.169  19.875  0.00  0.00    +0.007 A 
ATOM     34  C   UNL     1       8.493  24.471  19.835  0.00  0.00    -0.029 A 
ATOM     35  C   UNL     1       7.050  24.630  20.367  0.00  0.00    +0.045 C 
ENDROOT
BRANCH  10   9
ATOM      4  C   UNL     1       8.219  29.832  21.261  0.00  0.00    +0.077 A 
ATOM      5  C   UNL     1       8.746  29.440  22.536  0.00  0.00    +0.048 A 
ATOM      6  C   UNL     1       9.275  28.135  22.646  0.00  0.00    +0.116 A 
ATOM      7  N   UNL     1       9.272  27.292  21.556  0.00  0.00    -0.223 NA
ATOM      8  C   UNL     1       8.755  27.701  20.340  0.00  0.00    +0.220 A 
ATOM      9  N   UNL     1       8.749  26.874  19.228  0.00  0.00    -0.283 N 
ATOM     36  H   UNL     1       8.351  27.210  18.351  0.00  0.00    +0.155 HD
ATOM     37  N   UNL     1       8.242  28.943  20.210  0.00  0.00    -0.214 NA
BRANCH   4   3
ATOM      1  C   UNL     1       6.014  33.056  21.474  0.00  0.00    +0.020 A 
ATOM      2  C   UNL     1       6.548  31.749  21.782  0.00  0.00    +0.013 A 
ATOM      3  C   UNL     1       7.628  31.180  20.986  0.00  0.00    +0.019 A 
ATOM     38  C   UNL     1       8.150  31.965  19.877  0.00  0.00    +0.120 A 
ATOM     39  N   UNL     1       7.615  33.220  19.604  0.00  0.00    -0.263 NA
ATOM     40  C   UNL     1       6.574  33.777  20.362  0.00  0.00    +0.111 A 
ENDBRANCH   4   3
ENDBRANCH  10   9
BRANCH  12  13
ATOM     13  N   UNL     1      12.553  23.769  18.425  0.00  0.00    -0.281 N 
ATOM     14  C   UNL     1      12.945  23.059  17.302  0.00  0.00    +0.248 C 
ATOM     30  O   UNL     1      12.197  22.369  16.625  0.00  0.00    -0.270 OA
ATOM     31  H   UNL     1      13.306  24.141  19.005  0.00  0.00    +0.155 HD
BRANCH  14  15
ATOM     15  C   UNL     1      14.377  23.111  16.878  0.00  0.00    +0.037 A 
ATOM     16  C   UNL     1      14.767  22.860  15.488  0.00  0.00    +0.013 A 
ATOM     17  C   UNL     1      16.158  22.900  15.109  0.00  0.00    +0.005 A 
ATOM     18  C   UNL     1      17.168  23.193  16.122  0.00  0.00    -0.033 A 
ATOM     28  C   UNL     1      16.752  23.444  17.492  0.00  0.00    +0.005 A 
ATOM     29  C   UNL     1      15.391  23.405  17.868  0.00  0.00    +0.013 A 
BRANCH  18  19
ATOM     19  C   UNL     1      18.676  23.235  15.812  0.00  0.00    +0.119 C 
BRANCH  19  20
ATOM     20  N   UNL     1      19.164  22.397  14.677  0.00  0.00    -0.302 NA
ATOM     21  C   UNL     1      19.369  20.936  15.088  0.00  0.00    +0.066 C 
ATOM     22  C   UNL     1      19.858  20.069  13.883  0.00  0.00    -0.064 C 
ATOM     23  N   UNL     1      21.153  20.661  13.324  0.00  0.00    +0.379 N 
ATOM     24  C   UNL     1      21.647  19.815  12.228  0.00  0.00    -0.096 C 
ATOM     25  H   UNL     1      21.914  20.638  14.139  0.00  0.00    -0.082 HD
ATOM     26  C   UNL     1      20.959  22.114  12.915  0.00  0.00    -0.064 C 
ATOM     27  C   UNL     1      20.445  22.961  14.113  0.00  0.00    +0.066 C 
ENDBRANCH  19  20
ENDBRANCH  18  19
ENDBRANCH  14  15
ENDBRANCH  12  13
TORSDOF 6
ENDMDL
MODEL 3
REMARK VINA RESULT:      -8.5      1.318      1.767
REMARK  Name = C:\Users\Docking\Desktop\test protocol\1iep_ligandH.pdb
REMARK  8 active torsions:
REMARK  status: ('A' for Active; 'I' for Inactive)
REMARK    1  A    between atoms: _5  and  _11
REMARK    2  A    between atoms: _19  and  _21
REMARK    3  A    between atoms: _22  and  _66
REMARK    4  A    between atoms: _27  and  _30
REMARK    5  A    between atoms: _32  and  _33
REMARK    6  A    between atoms: _38  and  _43
REMARK    7  A    between atoms: _43  and  _46
REMARK    8  A    between atoms: _53  and  _55
REMARK                            x       y       z     vdW  Elec       q    Type
REMARK                         _______ _______ _______ _____ _____    ______ ____
ROOT
ATOM     10  C   UNL     1      15.217  21.043  15.132  0.00  0.00    +0.038 A 
ATOM     11  C   UNL     1      14.000  21.309  14.454  0.00  0.00    +0.047 A 
ATOM     12  C   UNL     1      13.103  20.231  14.068  0.00  0.00    +0.035 A 
ATOM     32  C   UNL     1      13.475  18.894  14.391  0.00  0.00    +0.024 A 
ATOM     33  C   UNL     1      14.709  18.605  15.079  0.00  0.00    +0.007 A 
ATOM     34  C   UNL     1      15.600  19.664  15.460  0.00  0.00    -0.029 A 
ATOM     35  C   UNL     1      16.912  19.296  16.190  0.00  0.00    +0.045 C 
ENDROOT
BRANCH  10   9
ATOM      4  C   UNL     1      18.582  24.304  14.093  0.00  0.00    +0.077 A 
ATOM      5  C   UNL     1      18.730  23.811  12.754  0.00  0.00    +0.048 A 
ATOM      6  C   UNL     1      17.927  22.713  12.374  0.00  0.00    +0.116 A 
ATOM      7  N   UNL     1      17.045  22.156  13.275  0.00  0.00    -0.223 NA
ATOM      8  C   UNL     1      16.928  22.655  14.559  0.00  0.00    +0.220 A 
ATOM      9  N   UNL     1      16.041  22.116  15.479  0.00  0.00    -0.283 N 
ATOM     36  H   UNL     1      15.990  22.507  16.419  0.00  0.00    +0.155 HD
ATOM     37  N   UNL     1      17.685  23.702  14.947  0.00  0.00    -0.214 NA
BRANCH   4   3
ATOM      1  C   UNL     1      20.600  27.642  14.389  0.00  0.00    +0.020 A 
ATOM      2  C   UNL     1      19.856  26.548  13.809  0.00  0.00    +0.013 A 
ATOM      3  C   UNL     1      19.358  25.461  14.642  0.00  0.00    +0.019 A 
ATOM     38  C   UNL     1      19.632  25.512  16.070  0.00  0.00    +0.120 A 
ATOM     39  N   UNL     1      20.352  26.577  16.601  0.00  0.00    -0.263 NA
ATOM     40  C   UNL     1      20.838  27.628  15.808  0.00  0.00    +0.111 A 
ENDBRANCH   4   3
ENDBRANCH  10   9
BRANCH  12  13
ATOM     13  N   UNL     1      11.858  20.440  13.371  0.00  0.00    -0.281 N 
ATOM     14  C   UNL     1      10.624  20.763  13.911  0.00  0.00    +0.248 C 
ATOM     30  O   UNL     1      10.355  20.712  15.102  0.00  0.00    -0.270 OA
ATOM     31  H   UNL     1      11.891  20.336  12.357  0.00  0.00    +0.155 HD
BRANCH  14  15
ATOM     15  C   UNL     1       9.524  21.191  12.993  0.00  0.00    +0.037 A 
ATOM     16  C   UNL     1       8.740  22.400  13.258  0.00  0.00    +0.013 A 
ATOM     17  C   UNL     1       7.674  22.781  12.366  0.00  0.00    +0.005 A 
ATOM     18  C   UNL     1       7.387  21.951  11.199  0.00  0.00    -0.033 A 
ATOM     28  C   UNL     1       8.183  20.760  10.957  0.00  0.00    +0.005 A 
ATOM     29  C   UNL     1       9.228  20.383  11.830  0.00  0.00    +0.013 A 
BRANCH  18  19
ATOM     19  C   UNL     1       6.254  22.269  10.205  0.00  0.00    +0.119 C 
BRANCH  19  20
ATOM     20  N   UNL     1       6.650  22.767   8.853  0.00  0.00    -0.302 NA
ATOM     21  C   UNL     1       6.870  21.621   7.862  0.00  0.00    +0.066 C 
ATOM     22  C   UNL     1       7.262  22.160   6.447  0.00  0.00    -0.064 C 
ATOM     23  N   UNL     1       8.518  23.025   6.564  0.00  0.00    +0.379 N 
ATOM     24  C   UNL     1       8.922  23.485   5.227  0.00  0.00    -0.096 C 
ATOM     25  H   UNL     1       9.336  22.380   6.961  0.00  0.00    -0.082 HD
ATOM     26  C   UNL     1       8.308  24.165   7.550  0.00  0.00    -0.064 C 
ATOM     27  C   UNL     1       7.891  23.620   8.944  0.00  0.00    +0.066 C 
ENDBRANCH  19  20
ENDBRANCH  18  19
ENDBRANCH  14  15
ENDBRANCH  12  13
TORSDOF 6
ENDMDL
MODEL 4
REMARK VINA RESULT:      -8.4      7.342     11.874
REMARK  Name = C:\Users\Docking\Desktop\test protocol\1iep_ligandH.pdb
REMARK  8 active torsions:
REMARK  status: ('A' for Active; 'I' for Inactive)
REMARK    1  A    between atoms: _5  and  _11
REMARK    2  A    between atoms: _19  and  _21
REMARK    3  A    between atoms: _22  and  _66
REMARK    4  A    between atoms: _27  and  _30
REMARK    5  A    between atoms: _32  and  _33
REMARK    6  A    between atoms: _38  and  _43
REMARK    7  A    between atoms: _43  and  _46
REMARK    8  A    between atoms: _53  and  _55
REMARK                            x       y       z     vdW  Elec       q    Type
REMARK                         _______ _______ _______ _____ _____    ______ ____
ROOT
ATOM     10  C   UNL     1       9.108  25.548  19.377  0.00  0.00    +0.038 A 
ATOM     11  C   UNL     1      10.405  25.244  18.890  0.00  0.00    +0.047 A 
ATOM     12  C   UNL     1      10.941  23.894  18.970  0.00  0.00    +0.035 A 
ATOM     32  C   UNL     1      10.128  22.878  19.551  0.00  0.00    +0.024 A 
ATOM     33  C   UNL     1       8.808  23.169  20.052  0.00  0.00    +0.007 A 
ATOM     34  C   UNL     1       8.274  24.499  19.977  0.00  0.00    -0.029 A 
ATOM     35  C   UNL     1       6.855  24.756  20.536  0.00  0.00    +0.045 C 
ENDROOT
BRANCH  10   9
ATOM      4  C   UNL     1       8.265  29.897  21.225  0.00  0.00    +0.077 A 
ATOM      5  C   UNL     1       8.770  29.513  22.512  0.00  0.00    +0.048 A 
ATOM      6  C   UNL     1       9.230  28.185  22.658  0.00  0.00    +0.116 A 
ATOM      7  N   UNL     1       9.185  27.315  21.591  0.00  0.00    -0.223 NA
ATOM      8  C   UNL     1       8.690  27.717  20.364  0.00  0.00    +0.220 A 
ATOM      9  N   UNL     1       8.642  26.861  19.274  0.00  0.00    -0.283 N 
ATOM     36  H   UNL     1       8.264  27.194  18.388  0.00  0.00    +0.155 HD
ATOM     37  N   UNL     1       8.243  28.979  20.198  0.00  0.00    -0.214 NA
BRANCH   4   3
ATOM      1  C   UNL     1       7.750  33.408  19.580  0.00  0.00    +0.020 A 
ATOM      2  C   UNL     1       8.287  32.093  19.841  0.00  0.00    +0.013 A 
ATOM      3  C   UNL     1       7.746  31.266  20.912  0.00  0.00    +0.019 A 
ATOM     38  C   UNL     1       6.651  31.803  21.707  0.00  0.00    +0.120 A 
ATOM     39  N   UNL     1       6.155  33.074  21.433  0.00  0.00    -0.263 NA
ATOM     40  C   UNL     1       6.669  33.880  20.406  0.00  0.00    +0.111 A 
ENDBRANCH   4   3
ENDBRANCH  10   9
BRANCH  12  13
ATOM     13  N   UNL     1      12.254  23.528  18.500  0.00  0.00    -0.281 N 
ATOM     14  C   UNL     1      12.588  22.895  17.314  0.00  0.00    +0.248 C 
ATOM     30  O   UNL     1      11.784  22.353  16.570  0.00  0.00    -0.270 OA
ATOM     31  H   UNL     1      13.032  23.763  19.117  0.00  0.00    +0.155 HD
BRANCH  14  15
ATOM     15  C   UNL     1      14.023  22.843  16.902  0.00  0.00    +0.037 A 
ATOM     16  C   UNL     1      14.406  22.579  15.513  0.00  0.00    +0.013 A 
ATOM     17  C   UNL     1      15.799  22.517  15.146  0.00  0.00    +0.005 A 
ATOM     18  C   UNL     1      16.820  22.723  16.171  0.00  0.00    -0.033 A 
ATOM     28  C   UNL     1      16.412  22.989  17.540  0.00  0.00    +0.005 A 
ATOM     29  C   UNL     1      15.048  23.049  17.904  0.00  0.00    +0.013 A 
BRANCH  18  19
ATOM     19  C   UNL     1      18.329  22.655  15.873  0.00  0.00    +0.119 C 
BRANCH  19  20
ATOM     20  N   UNL     1      19.019  23.937  15.541  0.00  0.00    -0.302 NA
ATOM     21  C   UNL     1      20.123  23.741  14.498  0.00  0.00    +0.066 C 
ATOM     22  C   UNL     1      20.820  25.096  14.145  0.00  0.00    -0.064 C 
ATOM     23  N   UNL     1      21.385  25.723  15.421  0.00  0.00    +0.379 N 
ATOM     24  C   UNL     1      22.091  26.968  15.084  0.00  0.00    -0.096 C 
ATOM     25  H   UNL     1      22.134  25.013  15.843  0.00  0.00    -0.082 HD
ATOM     26  C   UNL     1      20.294  25.918  16.464  0.00  0.00    -0.064 C 
ATOM     27  C   UNL     1      19.589  24.571  16.786  0.00  0.00    +0.066 C 
ENDBRANCH  19  20
ENDBRANCH  18  19
ENDBRANCH  14  15
ENDBRANCH  12  13
TORSDOF 6
ENDMDL
MODEL 5
REMARK VINA RESULT:      -8.2      8.309     15.913
REMARK  Name = C:\Users\Docking\Desktop\test protocol\1iep_ligandH.pdb
REMARK  8 active torsions:
REMARK  status: ('A' for Active; 'I' for Inactive)
REMARK    1  A    between atoms: _5  and  _11
REMARK    2  A    between atoms: _19  and  _21
REMARK    3  A    between atoms: _22  and  _66
REMARK    4  A    between atoms: _27  and  _30
REMARK    5  A    between atoms: _32  and  _33
REMARK    6  A    between atoms: _38  and  _43
REMARK    7  A    between atoms: _43  and  _46
REMARK    8  A    between atoms: _53  and  _55
REMARK                            x       y       z     vdW  Elec       q    Type
REMARK                         _______ _______ _______ _____ _____    ______ ____
ROOT
ATOM     10  C   UNL     1      20.286  24.911  14.978  0.00  0.00    +0.038 A 
ATOM     11  C   UNL     1      21.641  25.332  14.958  0.00  0.00    +0.047 A 
ATOM     12  C   UNL     1      21.994  26.738  15.080  0.00  0.00    +0.035 A 
ATOM     32  C   UNL     1      20.942  27.688  15.224  0.00  0.00    +0.024 A 
ATOM     33  C   UNL     1      19.560  27.279  15.246  0.00  0.00    +0.007 A 
ATOM     34  C   UNL     1      19.205  25.894  15.123  0.00  0.00    -0.029 A 
ATOM     35  C   UNL     1      17.707  25.512  15.146  0.00  0.00    +0.045 C 
ENDROOT
BRANCH  10   9
ATOM      4  C   UNL     1      18.980  21.071  12.412  0.00  0.00    +0.077 A 
ATOM      5  C   UNL     1      18.820  21.850  11.218  0.00  0.00    +0.048 A 
ATOM      6  C   UNL     1      19.077  23.237  11.308  0.00  0.00    +0.116 A 
ATOM      7  N   UNL     1      19.465  23.792  12.508  0.00  0.00    -0.223 NA
ATOM      8  C   UNL     1      19.608  23.013  13.641  0.00  0.00    +0.220 A 
ATOM      9  N   UNL     1      20.004  23.549  14.857  0.00  0.00    -0.283 N 
ATOM     36  H   UNL     1      20.091  22.941  15.671  0.00  0.00    +0.155 HD
ATOM     37  N   UNL     1      19.367  21.686  13.581  0.00  0.00    -0.214 NA
BRANCH   4   3
ATOM      1  C   UNL     1      19.188  17.227  11.720  0.00  0.00    +0.020 A 
ATOM      2  C   UNL     1      19.448  18.644  11.618  0.00  0.00    +0.013 A 
ATOM      3  C   UNL     1      18.749  19.593  12.475  0.00  0.00    +0.019 A 
ATOM     38  C   UNL     1      17.786  19.071  13.434  0.00  0.00    +0.120 A 
ATOM     39  N   UNL     1      17.556  17.701  13.509  0.00  0.00    -0.263 NA
ATOM     40  C   UNL     1      18.221  16.779  12.687  0.00  0.00    +0.111 A 
ENDBRANCH   4   3
ENDBRANCH  10   9
BRANCH  12  13
ATOM     13  N   UNL     1      23.351  27.225  15.058  0.00  0.00    -0.281 N 
ATOM     14  C   UNL     1      24.389  26.894  15.914  0.00  0.00    +0.248 C 
ATOM     30  O   UNL     1      24.250  26.287  16.966  0.00  0.00    -0.270 OA
ATOM     31  H   UNL     1      23.574  27.895  14.322  0.00  0.00    +0.155 HD
BRANCH  14  15
ATOM     15  C   UNL     1      25.779  27.310  15.558  0.00  0.00    +0.037 A 
ATOM     16  C   UNL     1      26.069  28.666  15.086  0.00  0.00    +0.013 A 
ATOM     17  C   UNL     1      27.417  29.036  14.733  0.00  0.00    +0.005 A 
ATOM     18  C   UNL     1      28.486  28.048  14.852  0.00  0.00    -0.033 A 
ATOM     28  C   UNL     1      28.171  26.711  15.328  0.00  0.00    +0.005 A 
ATOM     29  C   UNL     1      26.851  26.344  15.674  0.00  0.00    +0.013 A 
BRANCH  18  19
ATOM     19  C   UNL     1      29.949  28.349  14.477  0.00  0.00    +0.119 C 
BRANCH  19  20
ATOM     20  N   UNL     1      30.226  28.743  13.064  0.00  0.00    -0.302 NA
ATOM     21  C   UNL     1      31.129  27.732  12.351  0.00  0.00    +0.066 C 
ATOM     22  C   UNL     1      31.389  28.149  10.867  0.00  0.00    -0.064 C 
ATOM     23  N   UNL     1      32.010  29.547  10.834  0.00  0.00    +0.379 N 
ATOM     24  C   UNL     1      32.310  29.918   9.444  0.00  0.00    -0.096 C 
ATOM     25  H   UNL     1      32.976  29.501  11.388  0.00  0.00    -0.082 HD
ATOM     26  C   UNL     1      31.119  30.558  11.543  0.00  0.00    -0.064 C 
ATOM     27  C   UNL     1      30.843  30.119  13.008  0.00  0.00    +0.066 C 
ENDBRANCH  19  20
ENDBRANCH  18  19
ENDBRANCH  14  15
ENDBRANCH  12  13
TORSDOF 6
ENDMDL
