MODEL 1
REMARK VINA RESULT:      -8.8      0.000      0.000
REMARK  Name = C:\Users\Docking\Desktop\test protocol\1iep_ligandH.pdb
REMARK  8 active torsions:
REMARK  status: ('A' for Active; 'I' for Inactive)
REMARK    1  A    between atoms: _5  and  _11
REMARK    2  A    between atoms: _19  and  _21
REMARK    3  A    between atoms: _22  and  _66
REMARK    4  A    between atoms: _27  and  _30
REMARK    5  A    between atoms: _32  and  _33
REMARK    6  A    between atoms: _38  and  _43
REMARK    7  A    between atoms: _43  and  _46
REMARK    8  A    between atoms: _53  and  _55
REMARK                            x       y       z     vdW  Elec       q    Type
REMARK                         _______ _______ _______ _____ _____    ______ ____
ROOT
ATOM     10  C   UNL     1      15.164  21.334  15.232  0.00  0.00    +0.038 A 
ATOM     11  C   UNL     1      13.948  21.528  14.528  0.00  0.00    +0.047 A 
ATOM     12  C   UNL     1      13.011  20.434  14.329  0.00  0.00    +0.035 A 
ATOM     32  C   UNL     1      13.343  19.155  14.864  0.00  0.00    +0.024 A 
ATOM     33  C   UNL     1      14.575  18.940  15.581  0.00  0.00    +0.007 A 
ATOM     34  C   UNL     1      15.504  20.015  15.778  0.00  0.00    -0.029 A 
ATOM     35  C   UNL     1      16.813  19.725  16.549  0.00  0.00    +0.045 C 
ENDROOT
BRANCH  10   9
ATOM      4  C   UNL     1      18.803  24.102  13.769  0.00  0.00    +0.077 A 
ATOM      5  C   UNL     1      19.019  23.301  12.599  0.00  0.00    +0.048 A 
ATOM      6  C   UNL     1      18.177  22.182  12.414  0.00  0.00    +0.116 A 
ATOM      7  N   UNL     1      17.195  21.894  13.337  0.00  0.00    -0.223 NA
ATOM      8  C   UNL     1      17.014  22.686  14.456  0.00  0.00    +0.220 A 
ATOM      9  N   UNL     1      16.028  22.420  15.393  0.00  0.00    -0.283 N 
ATOM     36  H   UNL     1      15.931  23.024  16.209  0.00  0.00    +0.155 HD
ATOM     37  N   UNL     1      17.806  23.760  14.656  0.00  0.00    -0.214 NA
BRANCH   4   3
ATOM      1  C   UNL     1      19.858  27.800  14.483  0.00  0.00    +0.020 A 
ATOM      2  C   UNL     1      19.036  26.658  14.156  0.00  0.00    +0.013 A 
ATOM      3  C   UNL     1      19.609  25.319  14.103  0.00  0.00    +0.019 A 
ATOM     38  C   UNL     1      21.027  25.168  14.389  0.00  0.00    +0.120 A 
ATOM     39  N   UNL     1      21.794  26.287  14.700  0.00  0.00    -0.263 NA
ATOM     40  C   UNL     1      21.255  27.581  14.753  0.00  0.00    +0.111 A 
ENDBRANCH   4   3
ENDBRANCH  10   9
BRANCH  12  13
ATOM     13  N   UNL     1      11.765  20.569  13.616  0.00  0.00    -0.281 N 
ATOM     14  C   UNL     1      10.554  21.036  14.099  0.00  0.00    +0.248 C 
ATOM     30  O   UNL     1      10.302  21.209  15.282  0.00  0.00    -0.270 OA
ATOM     31  H   UNL     1      11.778  20.286  12.636  0.00  0.00    +0.155 HD
BRANCH  14  15
ATOM     15  C   UNL     1       9.459  21.341  13.129  0.00  0.00    +0.037 A 
ATOM     16  C   UNL     1       8.577  22.496  13.316  0.00  0.00    +0.013 A 
ATOM     17  C   UNL     1       7.518  22.758  12.374  0.00  0.00    +0.005 A 
ATOM     18  C   UNL     1       7.336  21.863  11.234  0.00  0.00    -0.033 A 
ATOM     28  C   UNL     1       8.228  20.728  11.069  0.00  0.00    +0.005 A 
ATOM     29  C   UNL     1       9.267  20.467  11.991  0.00  0.00    +0.013 A 
BRANCH  18  19
ATOM     19  C   UNL     1       6.219  22.054  10.191  0.00  0.00    +0.119 C 
BRANCH  19  20
ATOM     20  N   UNL     1       6.632  22.441   8.809  0.00  0.00    -0.302 NA
ATOM     21  C   UNL     1       6.819  23.954   8.668  0.00  0.00    +0.066 C 
ATOM     22  C   UNL     1       7.274  24.339   7.223  0.00  0.00    -0.064 C 
ATOM     23  N   UNL     1       6.246  23.824   6.214  0.00  0.00    +0.379 N 
ATOM     24  C   UNL     1       6.641  24.234   4.858  0.00  0.00    -0.096 C 
ATOM     25  H   UNL     1       5.271  24.312   6.445  0.00  0.00    -0.082 HD
ATOM     26  C   UNL     1       6.052  22.320   6.349  0.00  0.00    -0.064 C 
ATOM     27  C   UNL     1       5.629  21.945   7.797  0.00  0.00    +0.066 C 
ENDBRANCH  19  20
ENDBRANCH  18  19
ENDBRANCH  14  15
ENDBRANCH  12  13
TORSDOF 6
ENDMDL
MODEL 2
REMARK VINA RESULT:      -8.7      7.993     16.063
REMARK  Name = C:\Users\Docking\Desktop\test protocol\1iep_ligandH.pdb
REMARK  8 active torsions:
REMARK  status: ('A' for Active; 'I' for Inactive)
REMARK    1  A    between atoms: _5  and  _11
REMARK    2  A    between atoms: _19  and  _21
REMARK    3  A    between atoms: _22  and  _66
REMARK    4  A    between atoms: _27  and  _30
REMARK    5  A    between atoms: _32  and  _33
REMARK    6  A    between atoms: _38  and  _43
REMARK    7  A    between atoms: _43  and  _46
REMARK    8  A    between atoms: _53  and  _55
REMARK                            x       y       z     vdW  Elec       q    Type
REMARK                         _______ _______ _______ _____ _____    ______ ____
ROOT
ATOM     10  C   UNL     1      20.219  25.226  14.807  0.00  0.00    +0.038 A 
ATOM     11  C   UNL     1      21.568  25.662  14.834  0.00  0.00    +0.047 A 
ATOM     12  C   UNL     1      21.900  27.072  14.970  0.00  0.00    +0.035 A 
ATOM     32  C   UNL     1      20.832  28.010  15.078  0.00  0.00    +0.024 A 
ATOM     33  C   UNL     1      19.455  27.584  15.052  0.00  0.00    +0.007 A 
ATOM     34  C   UNL     1      19.122  26.195  14.916  0.00  0.00    -0.029 A 
ATOM     35  C   UNL     1      17.628  25.795  14.887  0.00  0.00    +0.045 C 
ENDROOT
BRANCH  10   9
ATOM      4  C   UNL     1      18.828  21.411  12.248  0.00  0.00    +0.077 A 
ATOM      5  C   UNL     1      18.574  22.210  11.084  0.00  0.00    +0.048 A 
ATOM      6  C   UNL     1      18.808  23.599  11.188  0.00  0.00    +0.116 A 
ATOM      7  N   UNL     1      19.261  24.139  12.372  0.00  0.00    -0.223 NA
ATOM      8  C   UNL     1      19.494  23.340  13.476  0.00  0.00    +0.220 A 
ATOM      9  N   UNL     1      19.958  23.860  14.675  0.00  0.00    -0.283 N 
ATOM     36  H   UNL     1      20.110  23.238  15.469  0.00  0.00    +0.155 HD
ATOM     37  N   UNL     1      19.277  22.010  13.404  0.00  0.00    -0.214 NA
BRANCH   4   3
ATOM      1  C   UNL     1      19.244  17.569  11.640  0.00  0.00    +0.020 A 
ATOM      2  C   UNL     1      19.475  18.993  11.561  0.00  0.00    +0.013 A 
ATOM      3  C   UNL     1      18.631  19.927  12.295  0.00  0.00    +0.019 A 
ATOM     38  C   UNL     1      17.554  19.384  13.108  0.00  0.00    +0.120 A 
ATOM     39  N   UNL     1      17.354  18.008  13.165  0.00  0.00    -0.263 NA
ATOM     40  C   UNL     1      18.159  17.099  12.461  0.00  0.00    +0.111 A 
ENDBRANCH   4   3
ENDBRANCH  10   9
BRANCH  12  13
ATOM     13  N   UNL     1      23.251  27.576  14.995  0.00  0.00    -0.281 N 
ATOM     14  C   UNL     1      24.103  27.674  16.083  0.00  0.00    +0.248 C 
ATOM     30  O   UNL     1      23.756  27.540  17.247  0.00  0.00    -0.270 OA
ATOM     31  H   UNL     1      23.625  27.899  14.102  0.00  0.00    +0.155 HD
BRANCH  14  15
ATOM     15  C   UNL     1      25.547  27.978  15.844  0.00  0.00    +0.037 A 
ATOM     16  C   UNL     1      26.091  29.318  16.081  0.00  0.00    +0.013 A 
ATOM     17  C   UNL     1      27.483  29.589  15.826  0.00  0.00    +0.005 A 
ATOM     18  C   UNL     1      28.343  28.516  15.332  0.00  0.00    -0.033 A 
ATOM     28  C   UNL     1      27.779  27.195  15.111  0.00  0.00    +0.005 A 
ATOM     29  C   UNL     1      26.414  26.926  15.358  0.00  0.00    +0.013 A 
BRANCH  18  19
ATOM     19  C   UNL     1      29.836  28.720  15.013  0.00  0.00    +0.119 C 
BRANCH  19  20
ATOM     20  N   UNL     1      30.218  28.834  13.574  0.00  0.00    -0.302 NA
ATOM     21  C   UNL     1      30.812  27.531  13.033  0.00  0.00    +0.066 C 
ATOM     22  C   UNL     1      31.186  27.660  11.520  0.00  0.00    -0.064 C 
ATOM     23  N   UNL     1      32.167  28.820  11.337  0.00  0.00    +0.379 N 
ATOM     24  C   UNL     1      32.565  28.908   9.925  0.00  0.00    -0.096 C 
ATOM     25  H   UNL     1      33.080  28.586  11.933  0.00  0.00    -0.082 HD
ATOM     26  C   UNL     1      31.585  30.119  11.876  0.00  0.00    -0.064 C 
ATOM     27  C   UNL     1      31.190  29.970  13.372  0.00  0.00    +0.066 C 
ENDBRANCH  19  20
ENDBRANCH  18  19
ENDBRANCH  14  15
ENDBRANCH  12  13
TORSDOF 6
ENDMDL
MODEL 3
REMARK VINA RESULT:      -8.6      7.727     16.003
REMARK  Name = C:\Users\Docking\Desktop\test protocol\1iep_ligandH.pdb
REMARK  8 active torsions:
REMARK  status: ('A' for Active; 'I' for Inactive)
REMARK    1  A    between atoms: _5  and  _11
REMARK    2  A    between atoms: _19  and  _21
REMARK    3  A    between atoms: _22  and  _66
REMARK    4  A    between atoms: _27  and  _30
REMARK    5  A    between atoms: _32  and  _33
REMARK    6  A    between atoms: _38  and  _43
REMARK    7  A    between atoms: _43  and  _46
REMARK    8  A    between atoms: _53  and  _55
REMARK                            x       y       z     vdW  Elec       q    Type
REMARK                         _______ _______ _______ _____ _____    ______ ____
ROOT
ATOM     10  C   UNL     1      20.331  25.286  14.830  0.00  0.00    +0.038 A 
ATOM     11  C   UNL     1      21.712  25.562  14.996  0.00  0.00    +0.047 A 
ATOM     12  C   UNL     1      22.204  26.929  15.062  0.00  0.00    +0.035 A 
ATOM     32  C   UNL     1      21.261  27.992  14.958  0.00  0.00    +0.024 A 
ATOM     33  C   UNL     1      19.853  27.730  14.788  0.00  0.00    +0.007 A 
ATOM     34  C   UNL     1      19.362  26.383  14.720  0.00  0.00    -0.029 A 
ATOM     35  C   UNL     1      17.844  26.161  14.530  0.00  0.00    +0.045 C 
ENDROOT
BRANCH  10   9
ATOM      4  C   UNL     1      18.629  21.481  12.451  0.00  0.00    +0.077 A 
ATOM      5  C   UNL     1      18.538  22.216  11.222  0.00  0.00    +0.048 A 
ATOM      6  C   UNL     1      18.932  23.572  11.247  0.00  0.00    +0.116 A 
ATOM      7  N   UNL     1      19.383  24.141  12.418  0.00  0.00    -0.223 NA
ATOM      8  C   UNL     1      19.457  23.405  13.586  0.00  0.00    +0.220 A 
ATOM      9  N   UNL     1      19.914  23.954  14.774  0.00  0.00    -0.283 N 
ATOM     36  H   UNL     1      19.947  23.380  15.616  0.00  0.00    +0.155 HD
ATOM     37  N   UNL     1      19.085  22.108  13.589  0.00  0.00    -0.214 NA
BRANCH   4   3
ATOM      1  C   UNL     1      18.603  17.583  12.118  0.00  0.00    +0.020 A 
ATOM      2  C   UNL     1      19.009  18.961  11.958  0.00  0.00    +0.013 A 
ATOM      3  C   UNL     1      18.253  20.038  12.584  0.00  0.00    +0.019 A 
ATOM     38  C   UNL     1      17.083  19.685  13.374  0.00  0.00    +0.120 A 
ATOM     39  N   UNL     1      16.715  18.350  13.510  0.00  0.00    -0.263 NA
ATOM     40  C   UNL     1      17.434  17.305  12.910  0.00  0.00    +0.111 A 
ENDBRANCH   4   3
ENDBRANCH  10   9
BRANCH  12  13
ATOM     13  N   UNL     1      23.596  27.270  15.221  0.00  0.00    -0.281 N 
ATOM     14  C   UNL     1      24.514  26.717  16.099  0.00  0.00    +0.248 C 
ATOM     30  O   UNL     1      24.221  25.987  17.034  0.00  0.00    -0.270 OA
ATOM     31  H   UNL     1      23.948  28.010  14.612  0.00  0.00    +0.155 HD
BRANCH  14  15
ATOM     15  C   UNL     1      25.964  27.031  15.921  0.00  0.00    +0.037 A 
ATOM     16  C   UNL     1      26.974  25.970  15.900  0.00  0.00    +0.013 A 
ATOM     17  C   UNL     1      28.368  26.302  15.743  0.00  0.00    +0.005 A 
ATOM     18  C   UNL     1      28.760  27.703  15.605  0.00  0.00    -0.033 A 
ATOM     28  C   UNL     1      27.736  28.735  15.624  0.00  0.00    +0.005 A 
ATOM     29  C   UNL     1      26.369  28.413  15.778  0.00  0.00    +0.013 A 
BRANCH  18  19
ATOM     19  C   UNL     1      30.226  28.151  15.455  0.00  0.00    +0.119 C 
BRANCH  19  20
ATOM     20  N   UNL     1      30.924  27.793  14.185  0.00  0.00    -0.302 NA
ATOM     21  C   UNL     1      30.044  28.041  12.956  0.00  0.00    +0.066 C 
ATOM     22  C   UNL     1      30.797  27.682  11.634  0.00  0.00    -0.064 C 
ATOM     23  N   UNL     1      31.251  26.222  11.689  0.00  0.00    +0.379 N 
ATOM     24  C   UNL     1      31.909  25.865  10.424  0.00  0.00    -0.096 C 
ATOM     25  H   UNL     1      30.339  25.588  11.788  0.00  0.00    -0.082 HD
ATOM     26  C   UNL     1      32.125  25.966  12.909  0.00  0.00    -0.064 C 
ATOM     27  C   UNL     1      31.377  26.354  14.216  0.00  0.00    +0.066 C 
ENDBRANCH  19  20
ENDBRANCH  18  19
ENDBRANCH  14  15
ENDBRANCH  12  13
TORSDOF 6
ENDMDL
MODEL 4
REMARK VINA RESULT:      -8.5     11.032     12.855
REMARK  Name = C:\Users\Docking\Desktop\test protocol\1iep_ligandH.pdb
REMARK  8 active torsions:
REMARK  status: ('A' for Active; 'I' for Inactive)
REMARK    1  A    between atoms: _5  and  _11
REMARK    2  A    between atoms: _19  and  _21
REMARK    3  A    between atoms: _22  and  _66
REMARK    4  A    between atoms: _27  and  _30
REMARK    5  A    between atoms: _32  and  _33
REMARK    6  A    between atoms: _38  and  _43
REMARK    7  A    between atoms: _43  and  _46
REMARK    8  A    between atoms: _53  and  _55
REMARK                            x       y       z     vdW  Elec       q    Type
REMARK                         _______ _______ _______ _____ _____    ______ ____
ROOT
ATOM     10  C   UNL     1      10.703  25.678  20.731  0.00  0.00    +0.038 A 
ATOM     11  C   UNL     1       9.970  26.854  20.425  0.00  0.00    +0.047 A 
ATOM     12  C   UNL     1       8.974  27.380  21.345  0.00  0.00    +0.035 A 
ATOM     32  C   UNL     1       8.751  26.685  22.569  0.00  0.00    +0.024 A 
ATOM     33  C   UNL     1       9.486  25.488  22.895  0.00  0.00    +0.007 A 
ATOM     34  C   UNL     1      10.468  24.963  21.991  0.00  0.00    -0.029 A 
ATOM     35  C   UNL     1      11.221  23.673  22.389  0.00  0.00    +0.045 C 
ENDROOT
BRANCH  10   9
ATOM      4  C   UNL     1      12.041  22.836  17.102  0.00  0.00    +0.077 A 
ATOM      5  C   UNL     1      10.758  22.196  17.052  0.00  0.00    +0.048 A 
ATOM      6  C   UNL     1       9.784  22.623  17.982  0.00  0.00    +0.116 A 
ATOM      7  N   UNL     1      10.081  23.616  18.890  0.00  0.00    -0.223 NA
ATOM      8  C   UNL     1      11.329  24.211  18.912  0.00  0.00    +0.220 A 
ATOM      9  N   UNL     1      11.648  25.218  19.811  0.00  0.00    -0.283 N 
ATOM     36  H   UNL     1      12.582  25.626  19.800  0.00  0.00    +0.155 HD
ATOM     37  N   UNL     1      12.278  23.820  18.035  0.00  0.00    -0.214 NA
BRANCH   4   3
ATOM      1  C   UNL     1      14.102  21.749  13.960  0.00  0.00    +0.020 A 
ATOM      2  C   UNL     1      12.974  22.063  14.806  0.00  0.00    +0.013 A 
ATOM      3  C   UNL     1      13.174  22.497  16.183  0.00  0.00    +0.019 A 
ATOM     38  C   UNL     1      14.539  22.604  16.677  0.00  0.00    +0.120 A 
ATOM     39  N   UNL     1      15.605  22.293  15.839  0.00  0.00    -0.263 NA
ATOM     40  C   UNL     1      15.425  21.873  14.513  0.00  0.00    +0.111 A 
ENDBRANCH   4   3
ENDBRANCH  10   9
BRANCH  12  13
ATOM     13  N   UNL     1       8.194  28.565  21.085  0.00  0.00    -0.281 N 
ATOM     14  C   UNL     1       8.275  29.794  21.719  0.00  0.00    +0.248 C 
ATOM     30  O   UNL     1       8.888  29.997  22.756  0.00  0.00    -0.270 OA
ATOM     31  H   UNL     1       7.498  28.488  20.344  0.00  0.00    +0.155 HD
BRANCH  14  15
ATOM     15  C   UNL     1       7.559  30.962  21.122  0.00  0.00    +0.037 A 
ATOM     16  C   UNL     1       7.754  31.337  19.719  0.00  0.00    +0.013 A 
ATOM     17  C   UNL     1       7.064  32.479  19.173  0.00  0.00    +0.005 A 
ATOM     18  C   UNL     1       6.172  33.255  20.031  0.00  0.00    -0.033 A 
ATOM     28  C   UNL     1       5.994  32.858  21.418  0.00  0.00    +0.005 A 
ATOM     29  C   UNL     1       6.669  31.740  21.957  0.00  0.00    +0.013 A 
BRANCH  18  19
ATOM     19  C   UNL     1       5.413  34.501  19.539  0.00  0.00    +0.119 C 
BRANCH  19  20
ATOM     20  N   UNL     1       5.304  35.653  20.483  0.00  0.00    -0.302 NA
ATOM     21  C   UNL     1       3.886  35.806  21.041  0.00  0.00    +0.066 C 
ATOM     22  C   UNL     1       3.796  37.002  22.044  0.00  0.00    -0.064 C 
ATOM     23  N   UNL     1       4.245  38.286  21.344  0.00  0.00    +0.379 N 
ATOM     24  C   UNL     1       4.106  39.422  22.267  0.00  0.00    -0.096 C 
ATOM     25  H   UNL     1       3.556  38.462  20.486  0.00  0.00    -0.082 HD
ATOM     26  C   UNL     1       5.653  38.141  20.784  0.00  0.00    -0.064 C 
ATOM     27  C   UNL     1       5.738  36.932  19.811  0.00  0.00    +0.066 C 
ENDBRANCH  19  20
ENDBRANCH  18  19
ENDBRANCH  14  15
ENDBRANCH  12  13
TORSDOF 6
ENDMDL
MODEL 5
REMARK VINA RESULT:      -8.3     12.354     14.741
REMARK  Name = C:\Users\Docking\Desktop\test protocol\1iep_ligandH.pdb
REMARK  8 active torsions:
REMARK  status: ('A' for Active; 'I' for Inactive)
REMARK    1  A    between atoms: _5  and  _11
REMARK    2  A    between atoms: _19  and  _21
REMARK    3  A    between atoms: _22  and  _66
REMARK    4  A    between atoms: _27  and  _30
REMARK    5  A    between atoms: _32  and  _33
REMARK    6  A    between atoms: _38  and  _43
REMARK    7  A    between atoms: _43  and  _46
REMARK    8  A    between atoms: _53  and  _55
REMARK                            x       y       z     vdW  Elec       q    Type
REMARK                         _______ _______ _______ _____ _____    ______ ____
ROOT
ATOM     10  C   UNL     1       9.697  27.112  21.697  0.00  0.00    +0.038 A 
ATOM     11  C   UNL     1       9.335  28.389  21.196  0.00  0.00    +0.047 A 
ATOM     12  C   UNL     1       8.848  29.435  22.083  0.00  0.00    +0.035 A 
ATOM     32  C   UNL     1       8.745  29.147  23.475  0.00  0.00    +0.024 A 
ATOM     33  C   UNL     1       9.108  27.854  24.001  0.00  0.00    +0.007 A 
ATOM     34  C   UNL     1       9.586  26.818  23.131  0.00  0.00    -0.029 A 
ATOM     35  C   UNL     1       9.955  25.449  23.750  0.00  0.00    +0.045 C 
ENDROOT
BRANCH  10   9
ATOM      4  C   UNL     1       8.969  23.488  18.636  0.00  0.00    +0.077 A 
ATOM      5  C   UNL     1       7.552  23.505  18.861  0.00  0.00    +0.048 A 
ATOM      6  C   UNL     1       7.052  24.456  19.778  0.00  0.00    +0.116 A 
ATOM      7  N   UNL     1       7.913  25.323  20.416  0.00  0.00    -0.223 NA
ATOM      8  C   UNL     1       9.275  25.279  20.177  0.00  0.00    +0.220 A 
ATOM      9  N   UNL     1      10.159  26.145  20.802  0.00  0.00    -0.283 N 
ATOM     36  H   UNL     1      11.157  26.076  20.604  0.00  0.00    +0.155 HD
ATOM     37  N   UNL     1       9.778  24.378  19.308  0.00  0.00    -0.214 NA
BRANCH   4   3
ATOM      1  C   UNL     1       9.680  21.046  15.665  0.00  0.00    +0.020 A 
ATOM      2  C   UNL     1       8.978  21.953  16.543  0.00  0.00    +0.013 A 
ATOM      3  C   UNL     1       9.649  22.543  17.695  0.00  0.00    +0.019 A 
ATOM     38  C   UNL     1      11.041  22.192  17.931  0.00  0.00    +0.120 A 
ATOM     39  N   UNL     1      11.691  21.315  17.069  0.00  0.00    -0.263 NA
ATOM     40  C   UNL     1      11.056  20.740  15.958  0.00  0.00    +0.111 A 
ENDBRANCH   4   3
ENDBRANCH  10   9
BRANCH  12  13
ATOM     13  N   UNL     1       8.458  30.747  21.630  0.00  0.00    -0.281 N 
ATOM     14  C   UNL     1       7.615  31.070  20.579  0.00  0.00    +0.248 C 
ATOM     30  O   UNL     1       7.235  30.278  19.730  0.00  0.00    -0.270 OA
ATOM     31  H   UNL     1       8.851  31.534  22.148  0.00  0.00    +0.155 HD
BRANCH  14  15
ATOM     15  C   UNL     1       7.137  32.479  20.444  0.00  0.00    +0.037 A 
ATOM     16  C   UNL     1       6.067  32.832  19.507  0.00  0.00    +0.013 A 
ATOM     17  C   UNL     1       5.636  34.202  19.384  0.00  0.00    +0.005 A 
ATOM     18  C   UNL     1       6.275  35.230  20.203  0.00  0.00    -0.033 A 
ATOM     28  C   UNL     1       7.330  34.852  21.128  0.00  0.00    +0.005 A 
ATOM     29  C   UNL     1       7.756  33.510  21.250  0.00  0.00    +0.013 A 
BRANCH  18  19
ATOM     19  C   UNL     1       5.893  36.720  20.122  0.00  0.00    +0.119 C 
BRANCH  19  20
ATOM     20  N   UNL     1       5.135  37.295  21.273  0.00  0.00    -0.302 NA
ATOM     21  C   UNL     1       3.812  36.564  21.512  0.00  0.00    +0.066 C 
ATOM     22  C   UNL     1       3.042  37.164  22.734  0.00  0.00    -0.064 C 
ATOM     23  N   UNL     1       2.801  38.656  22.498  0.00  0.00    +0.379 N 
ATOM     24  C   UNL     1       2.027  39.211  23.619  0.00  0.00    -0.096 C 
ATOM     25  H   UNL     1       2.183  38.757  21.577  0.00  0.00    -0.082 HD
ATOM     26  C   UNL     1       4.112  39.391  22.257  0.00  0.00    -0.064 C 
ATOM     27  C   UNL     1       4.883  38.768  21.060  0.00  0.00    +0.066 C 
ENDBRANCH  19  20
ENDBRANCH  18  19
ENDBRANCH  14  15
ENDBRANCH  12  13
TORSDOF 6
ENDMDL
