MODEL 1
REMARK VINA RESULT:      -8.8      0.000      0.000
REMARK  Name = C:\Users\Docking\Desktop\test protocol\1iep_ligandH.pdb
REMARK  8 active torsions:
REMARK  status: ('A' for Active; 'I' for Inactive)
REMARK    1  A    between atoms: _5  and  _11
REMARK    2  A    between atoms: _19  and  _21
REMARK    3  A    between atoms: _22  and  _66
REMARK    4  A    between atoms: _27  and  _30
REMARK    5  A    between atoms: _32  and  _33
REMARK    6  A    between atoms: _38  and  _43
REMARK    7  A    between atoms: _43  and  _46
REMARK    8  A    between atoms: _53  and  _55
REMARK                            x       y       z     vdW  Elec       q    Type
REMARK                         _______ _______ _______ _____ _____    ______ ____
ROOT
ATOM     10  C   UNL     1      14.587  22.601  16.437  0.00  0.00    +0.038 A 
ATOM     11  C   UNL     1      13.620  22.481  15.407  0.00  0.00    +0.047 A 
ATOM     12  C   UNL     1      12.657  21.391  15.403  0.00  0.00    +0.035 A 
ATOM     32  C   UNL     1      12.706  20.442  16.465  0.00  0.00    +0.024 A 
ATOM     33  C   UNL     1      13.684  20.548  17.520  0.00  0.00    +0.007 A 
ATOM     34  C   UNL     1      14.638  21.620  17.528  0.00  0.00    -0.029 A 
ATOM     35  C   UNL     1      15.667  21.681  18.680  0.00  0.00    +0.045 C 
ENDROOT
BRANCH  10   9
ATOM      4  C   UNL     1      18.718  24.596  15.023  0.00  0.00    +0.077 A 
ATOM      5  C   UNL     1      19.128  23.404  14.340  0.00  0.00    +0.048 A 
ATOM      6  C   UNL     1      18.251  22.297  14.382  0.00  0.00    +0.116 A 
ATOM      7  N   UNL     1      17.055  22.387  15.060  0.00  0.00    -0.223 NA
ATOM      8  C   UNL     1      16.690  23.552  15.711  0.00  0.00    +0.220 A 
ATOM      9  N   UNL     1      15.488  23.668  16.392  0.00  0.00    -0.283 N 
ATOM     36  H   UNL     1      15.259  24.542  16.865  0.00  0.00    +0.155 HD
ATOM     37  N   UNL     1      17.511  24.623  15.686  0.00  0.00    -0.214 NA
BRANCH   4   3
ATOM      1  C   UNL     1      20.712  27.791  13.966  0.00  0.00    +0.020 A 
ATOM      2  C   UNL     1      19.923  26.584  13.869  0.00  0.00    +0.013 A 
ATOM      3  C   UNL     1      19.534  25.851  15.067  0.00  0.00    +0.019 A 
ATOM     38  C   UNL     1      19.961  26.369  16.358  0.00  0.00    +0.120 A 
ATOM     39  N   UNL     1      20.722  27.533  16.420  0.00  0.00    -0.263 NA
ATOM     40  C   UNL     1      21.104  28.246  15.274  0.00  0.00    +0.111 A 
ENDBRANCH   4   3
ENDBRANCH  10   9
BRANCH  12  13
ATOM     13  N   UNL     1      11.657  21.213  14.380  0.00  0.00    -0.281 N 
ATOM     14  C   UNL     1      10.280  21.288  14.512  0.00  0.00    +0.248 C 
ATOM     30  O   UNL     1       9.689  21.308  15.582  0.00  0.00    -0.270 OA
ATOM     31  H   UNL     1      12.006  21.007  13.444  0.00  0.00    +0.155 HD
BRANCH  14  15
ATOM     15  C   UNL     1       9.437  21.331  13.279  0.00  0.00    +0.037 A 
ATOM     16  C   UNL     1       8.473  22.411  13.055  0.00  0.00    +0.013 A 
ATOM     17  C   UNL     1       7.660  22.420  11.865  0.00  0.00    +0.005 A 
ATOM     18  C   UNL     1       7.809  21.345  10.888  0.00  0.00    -0.033 A 
ATOM     28  C   UNL     1       8.777  20.288  11.132  0.00  0.00    +0.005 A 
ATOM     29  C   UNL     1       9.575  20.276  12.298  0.00  0.00    +0.013 A 
BRANCH  18  19
ATOM     19  C   UNL     1       6.969  21.262   9.599  0.00  0.00    +0.119 C 
BRANCH  19  20
ATOM     20  N   UNL     1       7.485  21.985   8.399  0.00  0.00    -0.302 NA
ATOM     21  C   UNL     1       7.429  23.505   8.575  0.00  0.00    +0.066 C 
ATOM     22  C   UNL     1       7.994  24.245   7.319  0.00  0.00    -0.064 C 
ATOM     23  N   UNL     1       7.207  23.814   6.080  0.00  0.00    +0.379 N 
ATOM     24  C   UNL     1       7.697  24.552   4.907  0.00  0.00    -0.096 C 
ATOM     25  H   UNL     1       6.141  24.101   6.240  0.00  0.00    -0.082 HD
ATOM     26  C   UNL     1       7.255  22.304   5.899  0.00  0.00    -0.064 C 
ATOM     27  C   UNL     1       6.719  21.578   7.164  0.00  0.00    +0.066 C 
ENDBRANCH  19  20
ENDBRANCH  18  19
ENDBRANCH  14  15
ENDBRANCH  12  13
TORSDOF 6
ENDMDL
MODEL 2
REMARK VINA RESULT:      -8.7      7.084     11.433
REMARK  Name = C:\Users\Docking\Desktop\test protocol\1iep_ligandH.pdb
REMARK  8 active torsions:
REMARK  status: ('A' for Active; 'I' for Inactive)
REMARK    1  A    between atoms: _5  and  _11
REMARK    2  A    between atoms: _19  and  _21
REMARK    3  A    between atoms: _22  and  _66
REMARK    4  A    between atoms: _27  and  _30
REMARK    5  A    between atoms: _32  and  _33
REMARK    6  A    between atoms: _38  and  _43
REMARK    7  A    between atoms: _43  and  _46
REMARK    8  A    between atoms: _53  and  _55
REMARK                            x       y       z     vdW  Elec       q    Type
REMARK                         _______ _______ _______ _____ _____    ______ ____
ROOT
ATOM     10  C   UNL     1       9.519  25.585  19.072  0.00  0.00    +0.038 A 
ATOM     11  C   UNL     1      10.822  25.347  18.566  0.00  0.00    +0.047 A 
ATOM     12  C   UNL     1      11.415  24.019  18.609  0.00  0.00    +0.035 A 
ATOM     32  C   UNL     1      10.651  22.956  19.173  0.00  0.00    +0.024 A 
ATOM     33  C   UNL     1       9.326  23.181  19.694  0.00  0.00    +0.007 A 
ATOM     34  C   UNL     1       8.736  24.489  19.656  0.00  0.00    -0.029 A 
ATOM     35  C   UNL     1       7.314  24.673  20.234  0.00  0.00    +0.045 C 
ENDROOT
BRANCH  10   9
ATOM      4  C   UNL     1       8.401  29.806  21.065  0.00  0.00    +0.077 A 
ATOM      5  C   UNL     1       8.868  29.388  22.355  0.00  0.00    +0.048 A 
ATOM      6  C   UNL     1       9.382  28.077  22.465  0.00  0.00    +0.116 A 
ATOM      7  N   UNL     1       9.422  27.254  21.361  0.00  0.00    -0.223 NA
ATOM      8  C   UNL     1       8.961  27.688  20.131  0.00  0.00    +0.220 A 
ATOM      9  N   UNL     1       8.999  26.880  19.005  0.00  0.00    -0.283 N 
ATOM     36  H   UNL     1       8.643  27.235  18.118  0.00  0.00    +0.155 HD
ATOM     37  N   UNL     1       8.464  28.935  20.000  0.00  0.00    -0.214 NA
BRANCH   4   3
ATOM      1  C   UNL     1       7.625  33.260  19.401  0.00  0.00    +0.020 A 
ATOM      2  C   UNL     1       8.203  31.955  19.622  0.00  0.00    +0.013 A 
ATOM      3  C   UNL     1       7.833  31.164  20.788  0.00  0.00    +0.019 A 
ATOM     38  C   UNL     1       6.866  31.727  21.719  0.00  0.00    +0.120 A 
ATOM     39  N   UNL     1       6.327  32.987  21.481  0.00  0.00    -0.263 NA
ATOM     40  C   UNL     1       6.677  33.758  20.362  0.00  0.00    +0.111 A 
ENDBRANCH   4   3
ENDBRANCH  10   9
BRANCH  12  13
ATOM     13  N   UNL     1      12.737  23.719  18.118  0.00  0.00    -0.281 N 
ATOM     14  C   UNL     1      13.085  22.902  17.055  0.00  0.00    +0.248 C 
ATOM     30  O   UNL     1      12.319  22.132  16.495  0.00  0.00    -0.270 OA
ATOM     31  H   UNL     1      13.510  24.163  18.614  0.00  0.00    +0.155 HD
BRANCH  14  15
ATOM     15  C   UNL     1      14.491  22.934  16.550  0.00  0.00    +0.037 A 
ATOM     16  C   UNL     1      14.802  23.397  15.195  0.00  0.00    +0.013 A 
ATOM     17  C   UNL     1      16.165  23.402  14.726  0.00  0.00    +0.005 A 
ATOM     18  C   UNL     1      17.229  22.942  15.616  0.00  0.00    -0.033 A 
ATOM     28  C   UNL     1      16.894  22.493  16.957  0.00  0.00    +0.005 A 
ATOM     29  C   UNL     1      15.559  22.486  17.419  0.00  0.00    +0.013 A 
BRANCH  18  19
ATOM     19  C   UNL     1      18.709  22.893  15.193  0.00  0.00    +0.119 C 
BRANCH  19  20
ATOM     20  N   UNL     1      19.448  24.189  15.138  0.00  0.00    -0.302 NA
ATOM     21  C   UNL     1      18.914  25.199  16.158  0.00  0.00    +0.066 C 
ATOM     22  C   UNL     1      19.714  26.541  16.103  0.00  0.00    -0.064 C 
ATOM     23  N   UNL     1      19.644  27.115  14.686  0.00  0.00    +0.379 N 
ATOM     24  C   UNL     1      20.345  28.406  14.645  0.00  0.00    -0.096 C 
ATOM     25  H   UNL     1      18.571  27.305  14.451  0.00  0.00    -0.082 HD
ATOM     26  C   UNL     1      20.170  26.117  13.665  0.00  0.00    -0.064 C 
ATOM     27  C   UNL     1      19.389  24.776  13.749  0.00  0.00    +0.066 C 
ENDBRANCH  19  20
ENDBRANCH  18  19
ENDBRANCH  14  15
ENDBRANCH  12  13
TORSDOF 6
ENDMDL
MODEL 3
REMARK VINA RESULT:      -8.3      7.249     11.275
REMARK  Name = C:\Users\Docking\Desktop\test protocol\1iep_ligandH.pdb
REMARK  8 active torsions:
REMARK  status: ('A' for Active; 'I' for Inactive)
REMARK    1  A    between atoms: _5  and  _11
REMARK    2  A    between atoms: _19  and  _21
REMARK    3  A    between atoms: _22  and  _66
REMARK    4  A    between atoms: _27  and  _30
REMARK    5  A    between atoms: _32  and  _33
REMARK    6  A    between atoms: _38  and  _43
REMARK    7  A    between atoms: _43  and  _46
REMARK    8  A    between atoms: _53  and  _55
REMARK                            x       y       z     vdW  Elec       q    Type
REMARK                         _______ _______ _______ _____ _____    ______ ____
ROOT
ATOM     10  C   UNL     1       9.501  25.663  19.088  0.00  0.00    +0.038 A 
ATOM     11  C   UNL     1      10.768  25.454  18.484  0.00  0.00    +0.047 A 
ATOM     12  C   UNL     1      11.407  24.147  18.509  0.00  0.00    +0.035 A 
ATOM     32  C   UNL     1      10.726  23.074  19.155  0.00  0.00    +0.024 A 
ATOM     33  C   UNL     1       9.439  23.269  19.774  0.00  0.00    +0.007 A 
ATOM     34  C   UNL     1       8.805  24.557  19.756  0.00  0.00    -0.029 A 
ATOM     35  C   UNL     1       7.427  24.709  20.442  0.00  0.00    +0.045 C 
ENDROOT
BRANCH  10   9
ATOM      4  C   UNL     1       8.362  29.875  21.087  0.00  0.00    +0.077 A 
ATOM      5  C   UNL     1       8.920  29.493  22.352  0.00  0.00    +0.048 A 
ATOM      6  C   UNL     1       9.484  28.201  22.449  0.00  0.00    +0.116 A 
ATOM      7  N   UNL     1       9.485  27.363  21.355  0.00  0.00    -0.223 NA
ATOM      8  C   UNL     1       8.937  27.762  20.150  0.00  0.00    +0.220 A 
ATOM      9  N   UNL     1       8.934  26.938  19.035  0.00  0.00    -0.283 N 
ATOM     36  H   UNL     1       8.514  27.267  18.166  0.00  0.00    +0.155 HD
ATOM     37  N   UNL     1       8.391  28.990  20.033  0.00  0.00    -0.214 NA
BRANCH   4   3
ATOM      1  C   UNL     1       7.403  33.294  19.447  0.00  0.00    +0.020 A 
ATOM      2  C   UNL     1       8.039  32.013  19.651  0.00  0.00    +0.013 A 
ATOM      3  C   UNL     1       7.733  31.208  20.827  0.00  0.00    +0.019 A 
ATOM     38  C   UNL     1       6.770  31.732  21.784  0.00  0.00    +0.120 A 
ATOM     39  N   UNL     1       6.174  32.970  21.562  0.00  0.00    -0.263 NA
ATOM     40  C   UNL     1       6.463  33.754  20.434  0.00  0.00    +0.111 A 
ENDBRANCH   4   3
ENDBRANCH  10   9
BRANCH  12  13
ATOM     13  N   UNL     1      12.695  23.877  17.920  0.00  0.00    -0.281 N 
ATOM     14  C   UNL     1      12.986  23.036  16.858  0.00  0.00    +0.248 C 
ATOM     30  O   UNL     1      12.207  22.220  16.389  0.00  0.00    -0.270 OA
ATOM     31  H   UNL     1      13.488  24.365  18.336  0.00  0.00    +0.155 HD
BRANCH  14  15
ATOM     15  C   UNL     1      14.345  23.101  16.238  0.00  0.00    +0.037 A 
ATOM     16  C   UNL     1      15.557  22.955  17.047  0.00  0.00    +0.013 A 
ATOM     17  C   UNL     1      16.855  23.039  16.426  0.00  0.00    +0.005 A 
ATOM     18  C   UNL     1      16.947  23.267  14.986  0.00  0.00    -0.033 A 
ATOM     28  C   UNL     1      15.728  23.403  14.207  0.00  0.00    +0.005 A 
ATOM     29  C   UNL     1      14.454  23.323  14.812  0.00  0.00    +0.013 A 
BRANCH  18  19
ATOM     19  C   UNL     1      18.290  23.391  14.243  0.00  0.00    +0.119 C 
BRANCH  19  20
ATOM     20  N   UNL     1      19.104  22.148  14.089  0.00  0.00    -0.302 NA
ATOM     21  C   UNL     1      20.387  22.397  13.291  0.00  0.00    +0.066 C 
ATOM     22  C   UNL     1      21.236  21.091  13.158  0.00  0.00    -0.064 C 
ATOM     23  N   UNL     1      20.391  20.000  12.499  0.00  0.00    +0.379 N 
ATOM     24  C   UNL     1      21.205  18.789  12.320  0.00  0.00    -0.096 C 
ATOM     25  H   UNL     1      20.099  20.365  11.486  0.00  0.00    -0.082 HD
ATOM     26  C   UNL     1      19.112  19.749  13.284  0.00  0.00    -0.064 C 
ATOM     27  C   UNL     1      18.289  21.059  13.435  0.00  0.00    +0.066 C 
ENDBRANCH  19  20
ENDBRANCH  18  19
ENDBRANCH  14  15
ENDBRANCH  12  13
TORSDOF 6
ENDMDL
MODEL 4
REMARK VINA RESULT:      -8.3     17.082     19.010
REMARK  Name = C:\Users\Docking\Desktop\test protocol\1iep_ligandH.pdb
REMARK  8 active torsions:
REMARK  status: ('A' for Active; 'I' for Inactive)
REMARK    1  A    between atoms: _5  and  _11
REMARK    2  A    between atoms: _19  and  _21
REMARK    3  A    between atoms: _22  and  _66
REMARK    4  A    between atoms: _27  and  _30
REMARK    5  A    between atoms: _32  and  _33
REMARK    6  A    between atoms: _38  and  _43
REMARK    7  A    between atoms: _43  and  _46
REMARK    8  A    between atoms: _53  and  _55
REMARK                            x       y       z     vdW  Elec       q    Type
REMARK                         _______ _______ _______ _____ _____    ______ ____
ROOT
ATOM     10  C   UNL     1       5.295  39.029  19.676  0.00  0.00    +0.038 A 
ATOM     11  C   UNL     1       5.698  37.719  20.041  0.00  0.00    +0.047 A 
ATOM     12  C   UNL     1       5.431  36.581  19.175  0.00  0.00    +0.035 A 
ATOM     32  C   UNL     1       4.754  36.814  17.943  0.00  0.00    +0.024 A 
ATOM     33  C   UNL     1       4.336  38.139  17.557  0.00  0.00    +0.007 A 
ATOM     34  C   UNL     1       4.594  39.265  18.408  0.00  0.00    -0.029 A 
ATOM     35  C   UNL     1       4.118  40.662  17.947  0.00  0.00    +0.045 C 
ENDROOT
BRANCH  10   9
ATOM      4  C   UNL     1       4.377  41.648  23.592  0.00  0.00    +0.077 A 
ATOM      5  C   UNL     1       3.223  40.863  23.920  0.00  0.00    +0.048 A 
ATOM      6  C   UNL     1       2.895  39.798  23.050  0.00  0.00    +0.116 A 
ATOM      7  N   UNL     1       3.671  39.547  21.940  0.00  0.00    -0.223 NA
ATOM      8  C   UNL     1       4.777  40.325  21.653  0.00  0.00    +0.220 A 
ATOM      9  N   UNL     1       5.577  40.086  20.546  0.00  0.00    -0.283 N 
ATOM     36  H   UNL     1       6.380  40.687  20.364  0.00  0.00    +0.155 HD
ATOM     37  N   UNL     1       5.111  41.349  22.466  0.00  0.00    -0.214 NA
BRANCH   4   3
ATOM      1  C   UNL     1       6.064  43.792  26.397  0.00  0.00    +0.020 A 
ATOM      2  C   UNL     1       5.628  42.641  25.639  0.00  0.00    +0.013 A 
ATOM      3  C   UNL     1       4.854  42.805  24.415  0.00  0.00    +0.019 A 
ATOM     38  C   UNL     1       4.538  44.157  23.980  0.00  0.00    +0.120 A 
ATOM     39  N   UNL     1       4.970  45.246  24.731  0.00  0.00    -0.263 NA
ATOM     40  C   UNL     1       5.713  45.100  25.912  0.00  0.00    +0.111 A 
ENDBRANCH   4   3
ENDBRANCH  10   9
BRANCH  12  13
ATOM     13  N   UNL     1       5.809  35.228  19.497  0.00  0.00    -0.281 N 
ATOM     14  C   UNL     1       6.965  34.557  19.131  0.00  0.00    +0.248 C 
ATOM     30  O   UNL     1       7.756  34.952  18.288  0.00  0.00    -0.270 OA
ATOM     31  H   UNL     1       5.144  34.700  20.062  0.00  0.00    +0.155 HD
BRANCH  14  15
ATOM     15  C   UNL     1       7.279  33.251  19.786  0.00  0.00    +0.037 A 
ATOM     16  C   UNL     1       6.671  32.877  21.066  0.00  0.00    +0.013 A 
ATOM     17  C   UNL     1       7.005  31.618  21.685  0.00  0.00    +0.005 A 
ATOM     18  C   UNL     1       7.952  30.724  21.023  0.00  0.00    -0.033 A 
ATOM     28  C   UNL     1       8.536  31.118  19.752  0.00  0.00    +0.005 A 
ATOM     29  C   UNL     1       8.212  32.351  19.143  0.00  0.00    +0.013 A 
BRANCH  18  19
ATOM     19  C   UNL     1       8.382  29.371  21.621  0.00  0.00    +0.119 C 
BRANCH  19  20
ATOM     20  N   UNL     1       8.670  28.261  20.664  0.00  0.00    -0.302 NA
ATOM     21  C   UNL     1       8.006  26.949  21.091  0.00  0.00    +0.066 C 
ATOM     22  C   UNL     1       8.298  25.804  20.067  0.00  0.00    -0.064 C 
ATOM     23  N   UNL     1       9.810  25.624  19.925  0.00  0.00    +0.379 N 
ATOM     24  C   UNL     1      10.088  24.510  19.007  0.00  0.00    -0.096 C 
ATOM     25  H   UNL     1      10.214  25.346  20.927  0.00  0.00    -0.082 HD
ATOM     26  C   UNL     1      10.479  26.925  19.503  0.00  0.00    -0.064 C 
ATOM     27  C   UNL     1      10.158  28.064  20.512  0.00  0.00    +0.066 C 
ENDBRANCH  19  20
ENDBRANCH  18  19
ENDBRANCH  14  15
ENDBRANCH  12  13
TORSDOF 6
ENDMDL
MODEL 5
REMARK VINA RESULT:      -8.3     16.313     18.477
REMARK  Name = C:\Users\Docking\Desktop\test protocol\1iep_ligandH.pdb
REMARK  8 active torsions:
REMARK  status: ('A' for Active; 'I' for Inactive)
REMARK    1  A    between atoms: _5  and  _11
REMARK    2  A    between atoms: _19  and  _21
REMARK    3  A    between atoms: _22  and  _66
REMARK    4  A    between atoms: _27  and  _30
REMARK    5  A    between atoms: _32  and  _33
REMARK    6  A    between atoms: _38  and  _43
REMARK    7  A    between atoms: _43  and  _46
REMARK    8  A    between atoms: _53  and  _55
REMARK                            x       y       z     vdW  Elec       q    Type
REMARK                         _______ _______ _______ _____ _____    ______ ____
ROOT
ATOM     10  C   UNL     1       5.331  38.076  19.781  0.00  0.00    +0.038 A 
ATOM     11  C   UNL     1       5.928  36.901  20.304  0.00  0.00    +0.047 A 
ATOM     12  C   UNL     1       6.270  35.782  19.440  0.00  0.00    +0.035 A 
ATOM     32  C   UNL     1       5.993  35.895  18.047  0.00  0.00    +0.024 A 
ATOM     33  C   UNL     1       5.385  37.082  17.498  0.00  0.00    +0.007 A 
ATOM     34  C   UNL     1       5.043  38.188  18.346  0.00  0.00    -0.029 A 
ATOM     35  C   UNL     1       4.388  39.433  17.704  0.00  0.00    +0.045 C 
ENDROOT
BRANCH  10   9
ATOM      4  C   UNL     1       3.184  39.816  23.706  0.00  0.00    +0.077 A 
ATOM      5  C   UNL     1       2.604  38.543  24.025  0.00  0.00    +0.048 A 
ATOM      6  C   UNL     1       2.877  37.468  23.149  0.00  0.00    +0.116 A 
ATOM      7  N   UNL     1       3.672  37.662  22.041  0.00  0.00    -0.223 NA
ATOM      8  C   UNL     1       4.214  38.903  21.761  0.00  0.00    +0.220 A 
ATOM      9  N   UNL     1       5.023  39.120  20.656  0.00  0.00    -0.283 N 
ATOM     36  H   UNL     1       5.397  40.052  20.481  0.00  0.00    +0.155 HD
ATOM     37  N   UNL     1       3.967  39.946  22.581  0.00  0.00    -0.214 NA
BRANCH   4   3
ATOM      1  C   UNL     1       1.615  42.995  25.358  0.00  0.00    +0.020 A 
ATOM      2  C   UNL     1       1.751  41.813  24.538  0.00  0.00    +0.013 A 
ATOM      3  C   UNL     1       2.990  41.047  24.535  0.00  0.00    +0.019 A 
ATOM     38  C   UNL     1       4.081  41.506  25.381  0.00  0.00    +0.120 A 
ATOM     39  N   UNL     1       3.922  42.648  26.159  0.00  0.00    -0.263 NA
ATOM     40  C   UNL     1       2.735  43.395  26.168  0.00  0.00    +0.111 A 
ENDBRANCH   4   3
ENDBRANCH  10   9
BRANCH  12  13
ATOM     13  N   UNL     1       6.871  34.561  19.916  0.00  0.00    -0.281 N 
ATOM     14  C   UNL     1       6.234  33.437  20.417  0.00  0.00    +0.248 C 
ATOM     30  O   UNL     1       5.054  33.395  20.733  0.00  0.00    -0.270 OA
ATOM     31  H   UNL     1       7.889  34.519  19.879  0.00  0.00    +0.155 HD
BRANCH  14  15
ATOM     15  C   UNL     1       7.024  32.184  20.609  0.00  0.00    +0.037 A 
ATOM     16  C   UNL     1       7.131  31.546  21.924  0.00  0.00    +0.013 A 
ATOM     17  C   UNL     1       7.914  30.346  22.085  0.00  0.00    +0.005 A 
ATOM     18  C   UNL     1       8.597  29.776  20.926  0.00  0.00    -0.033 A 
ATOM     28  C   UNL     1       8.470  30.427  19.632  0.00  0.00    +0.005 A 
ATOM     29  C   UNL     1       7.704  31.603  19.471  0.00  0.00    +0.013 A 
BRANCH  18  19
ATOM     19  C   UNL     1       9.471  28.511  21.009  0.00  0.00    +0.119 C 
BRANCH  19  20
ATOM     20  N   UNL     1       9.199  27.425  20.020  0.00  0.00    -0.302 NA
ATOM     21  C   UNL     1       8.470  26.238  20.657  0.00  0.00    +0.066 C 
ATOM     22  C   UNL     1       8.173  25.122  19.604  0.00  0.00    -0.064 C 
ATOM     23  N   UNL     1       9.485  24.670  18.960  0.00  0.00    +0.379 N 
ATOM     24  C   UNL     1       9.216  23.579  18.011  0.00  0.00    -0.096 C 
ATOM     25  H   UNL     1      10.135  24.262  19.769  0.00  0.00    -0.082 HD
ATOM     26  C   UNL     1      10.218  25.844  18.327  0.00  0.00    -0.064 C 
ATOM     27  C   UNL     1      10.481  26.961  19.376  0.00  0.00    +0.066 C 
ENDBRANCH  19  20
ENDBRANCH  18  19
ENDBRANCH  14  15
ENDBRANCH  12  13
TORSDOF 6
ENDMDL
