MODEL 1
REMARK VINA RESULT:      -9.6      0.000      0.000
REMARK  Name = C:\Users\Docking\Desktop\test protocol\1iep_ligandH.pdb
REMARK  8 active torsions:
REMARK  status: ('A' for Active; 'I' for Inactive)
REMARK    1  A    between atoms: _5  and  _11
REMARK    2  A    between atoms: _19  and  _21
REMARK    3  A    between atoms: _22  and  _66
REMARK    4  A    between atoms: _27  and  _30
REMARK    5  A    between atoms: _32  and  _33
REMARK    6  A    between atoms: _38  and  _43
REMARK    7  A    between atoms: _43  and  _46
REMARK    8  A    between atoms: _53  and  _55
REMARK                            x       y       z     vdW  Elec       q    Type
REMARK                         _______ _______ _______ _____ _____    ______ ____
ROOT
ATOM     10  C   UNL     1      -0.997 -28.522  13.161  0.00  0.00    +0.038 A 
ATOM     11  C   UNL     1       0.180 -29.299  13.306  0.00  0.00    +0.047 A 
ATOM     12  C   UNL     1       0.162 -30.566  14.020  0.00  0.00    +0.035 A 
ATOM     32  C   UNL     1      -1.073 -31.013  14.572  0.00  0.00    +0.024 A 
ATOM     33  C   UNL     1      -2.280 -30.236  14.435  0.00  0.00    +0.007 A 
ATOM     34  C   UNL     1      -2.268 -28.984  13.734  0.00  0.00    -0.029 A 
ATOM     35  C   UNL     1      -3.589 -28.189  13.623  0.00  0.00    +0.045 C 
ENDROOT
BRANCH  10   9
ATOM      4  C   UNL     1       0.024 -23.839  12.910  0.00  0.00    +0.077 A 
ATOM      5  C   UNL     1       0.417 -23.790  14.289  0.00  0.00    +0.048 A 
ATOM      6  C   UNL     1       0.334 -24.991  15.030  0.00  0.00    +0.116 A 
ATOM      7  N   UNL     1      -0.109 -26.148  14.426  0.00  0.00    -0.223 NA
ATOM      8  C   UNL     1      -0.482 -26.160  13.095  0.00  0.00    +0.220 A 
ATOM      9  N   UNL     1      -0.923 -27.313  12.465  0.00  0.00    -0.283 N 
ATOM     36  H   UNL     1      -1.196 -27.279  11.484  0.00  0.00    +0.155 HD
ATOM     37  N   UNL     1      -0.414 -25.026  12.366  0.00  0.00    -0.214 NA
BRANCH   4   3
ATOM      1  C   UNL     1       0.293 -20.183  11.545  0.00  0.00    +0.020 A 
ATOM      2  C   UNL     1       0.269 -21.292  12.471  0.00  0.00    +0.013 A 
ATOM      3  C   UNL     1       0.057 -22.654  11.996  0.00  0.00    +0.019 A 
ATOM     38  C   UNL     1      -0.126 -22.861  10.567  0.00  0.00    +0.120 A 
ATOM     39  N   UNL     1      -0.100 -21.773   9.700  0.00  0.00    -0.263 NA
ATOM     40  C   UNL     1       0.101 -20.458  10.146  0.00  0.00    +0.111 A 
ENDBRANCH   4   3
ENDBRANCH  10   9
BRANCH  12  13
ATOM     13  N   UNL     1       1.328 -31.395  14.206  0.00  0.00    -0.281 N 
ATOM     14  C   UNL     1       1.648 -32.574  13.553  0.00  0.00    +0.248 C 
ATOM     30  O   UNL     1       0.871 -33.211  12.857  0.00  0.00    -0.270 OA
ATOM     31  H   UNL     1       1.999 -31.073  14.904  0.00  0.00    +0.155 HD
BRANCH  14  15
ATOM     15  C   UNL     1       3.025 -33.133  13.707  0.00  0.00    +0.037 A 
ATOM     16  C   UNL     1       4.206 -32.373  13.288  0.00  0.00    +0.013 A 
ATOM     17  C   UNL     1       5.522 -32.944  13.432  0.00  0.00    +0.005 A 
ATOM     18  C   UNL     1       5.664 -34.282  13.999  0.00  0.00    -0.033 A 
ATOM     28  C   UNL     1       4.476 -35.012  14.411  0.00  0.00    +0.005 A 
ATOM     29  C   UNL     1       3.185 -34.457  14.271  0.00  0.00    +0.013 A 
BRANCH  18  19
ATOM     19  C   UNL     1       7.028 -34.978  14.170  0.00  0.00    +0.119 C 
BRANCH  19  20
ATOM     20  N   UNL     1       7.678 -35.518  12.939  0.00  0.00    -0.302 NA
ATOM     21  C   UNL     1       8.575 -34.480  12.260  0.00  0.00    +0.066 C 
ATOM     22  C   UNL     1       9.265 -35.069  10.987  0.00  0.00    -0.064 C 
ATOM     23  N   UNL     1       8.195 -35.577  10.019  0.00  0.00    +0.379 N 
ATOM     24  C   UNL     1       8.839 -36.079   8.796  0.00  0.00    -0.096 C 
ATOM     25  H   UNL     1       7.558 -34.708   9.733  0.00  0.00    -0.082 HD
ATOM     26  C   UNL     1       7.297 -36.609  10.687  0.00  0.00    -0.064 C 
ATOM     27  C   UNL     1       6.639 -36.022  11.967  0.00  0.00    +0.066 C 
ENDBRANCH  19  20
ENDBRANCH  18  19
ENDBRANCH  14  15
ENDBRANCH  12  13
TORSDOF 6
ENDMDL
MODEL 2
REMARK VINA RESULT:      -9.6      3.632      5.372
REMARK  Name = C:\Users\Docking\Desktop\test protocol\1iep_ligandH.pdb
REMARK  8 active torsions:
REMARK  status: ('A' for Active; 'I' for Inactive)
REMARK    1  A    between atoms: _5  and  _11
REMARK    2  A    between atoms: _19  and  _21
REMARK    3  A    between atoms: _22  and  _66
REMARK    4  A    between atoms: _27  and  _30
REMARK    5  A    between atoms: _32  and  _33
REMARK    6  A    between atoms: _38  and  _43
REMARK    7  A    between atoms: _43  and  _46
REMARK    8  A    between atoms: _53  and  _55
REMARK                            x       y       z     vdW  Elec       q    Type
REMARK                         _______ _______ _______ _____ _____    ______ ____
ROOT
ATOM     10  C   UNL     1       0.292 -28.494  10.878  0.00  0.00    +0.038 A 
ATOM     11  C   UNL     1       1.485 -29.258  10.810  0.00  0.00    +0.047 A 
ATOM     12  C   UNL     1       1.807 -30.047   9.632  0.00  0.00    +0.035 A 
ATOM     32  C   UNL     1       0.892 -30.034   8.539  0.00  0.00    +0.024 A 
ATOM     33  C   UNL     1      -0.326 -29.265   8.592  0.00  0.00    +0.007 A 
ATOM     34  C   UNL     1      -0.650 -28.486   9.753  0.00  0.00    -0.029 A 
ATOM     35  C   UNL     1      -1.973 -27.686   9.757  0.00  0.00    +0.045 C 
ENDROOT
BRANCH  10   9
ATOM      4  C   UNL     1      -0.628 -28.169  15.578  0.00  0.00    +0.077 A 
ATOM      5  C   UNL     1      -0.619 -29.595  15.739  0.00  0.00    +0.048 A 
ATOM      6  C   UNL     1      -0.381 -30.376  14.586  0.00  0.00    +0.116 A 
ATOM      7  N   UNL     1      -0.169 -29.766  13.368  0.00  0.00    -0.223 NA
ATOM      8  C   UNL     1      -0.186 -28.389  13.248  0.00  0.00    +0.220 A 
ATOM      9  N   UNL     1       0.033 -27.755  12.034  0.00  0.00    -0.283 N 
ATOM     36  H   UNL     1       0.005 -26.736  11.986  0.00  0.00    +0.155 HD
ATOM     37  N   UNL     1      -0.413 -27.621  14.333  0.00  0.00    -0.214 NA
BRANCH   4   3
ATOM      1  C   UNL     1      -0.645 -24.943  17.790  0.00  0.00    +0.020 A 
ATOM      2  C   UNL     1      -0.391 -25.830  16.678  0.00  0.00    +0.013 A 
ATOM      3  C   UNL     1      -0.863 -27.209  16.702  0.00  0.00    +0.019 A 
ATOM     38  C   UNL     1      -1.595 -27.662  17.876  0.00  0.00    +0.120 A 
ATOM     39  N   UNL     1      -1.822 -26.786  18.932  0.00  0.00    -0.263 NA
ATOM     40  C   UNL     1      -1.372 -25.458  18.921  0.00  0.00    +0.111 A 
ENDBRANCH   4   3
ENDBRANCH  10   9
BRANCH  12  13
ATOM     13  N   UNL     1       3.000 -30.848   9.508  0.00  0.00    -0.281 N 
ATOM     14  C   UNL     1       4.311 -30.464   9.738  0.00  0.00    +0.248 C 
ATOM     30  O   UNL     1       4.678 -29.307   9.878  0.00  0.00    -0.270 OA
ATOM     31  H   UNL     1       2.861 -31.816   9.217  0.00  0.00    +0.155 HD
BRANCH  14  15
ATOM     15  C   UNL     1       5.370 -31.516   9.806  0.00  0.00    +0.037 A 
ATOM     16  C   UNL     1       5.060 -32.925   9.549  0.00  0.00    +0.013 A 
ATOM     17  C   UNL     1       6.097 -33.922   9.639  0.00  0.00    +0.005 A 
ATOM     18  C   UNL     1       7.456 -33.513   9.986  0.00  0.00    -0.033 A 
ATOM     28  C   UNL     1       7.737 -32.108  10.231  0.00  0.00    +0.005 A 
ATOM     29  C   UNL     1       6.723 -31.128  10.145  0.00  0.00    +0.013 A 
BRANCH  18  19
ATOM     19  C   UNL     1       8.620 -34.512  10.125  0.00  0.00    +0.119 C 
BRANCH  19  20
ATOM     20  N   UNL     1       8.557 -35.482  11.258  0.00  0.00    -0.302 NA
ATOM     21  C   UNL     1       7.718 -36.716  10.912  0.00  0.00    +0.066 C 
ATOM     22  C   UNL     1       7.681 -37.731  12.101  0.00  0.00    -0.064 C 
ATOM     23  N   UNL     1       7.132 -37.034  13.346  0.00  0.00    +0.379 N 
ATOM     24  C   UNL     1       7.041 -38.001  14.450  0.00  0.00    -0.096 C 
ATOM     25  H   UNL     1       6.097 -36.690  13.112  0.00  0.00    -0.082 HD
ATOM     26  C   UNL     1       7.959 -35.805  13.696  0.00  0.00    -0.064 C 
ATOM     27  C   UNL     1       8.013 -34.816  12.498  0.00  0.00    +0.066 C 
ENDBRANCH  19  20
ENDBRANCH  18  19
ENDBRANCH  14  15
ENDBRANCH  12  13
TORSDOF 6
ENDMDL
MODEL 3
REMARK VINA RESULT:      -9.2      7.167     10.126
REMARK  Name = C:\Users\Docking\Desktop\test protocol\1iep_ligandH.pdb
REMARK  8 active torsions:
REMARK  status: ('A' for Active; 'I' for Inactive)
REMARK    1  A    between atoms: _5  and  _11
REMARK    2  A    between atoms: _19  and  _21
REMARK    3  A    between atoms: _22  and  _66
REMARK    4  A    between atoms: _27  and  _30
REMARK    5  A    between atoms: _32  and  _33
REMARK    6  A    between atoms: _38  and  _43
REMARK    7  A    between atoms: _43  and  _46
REMARK    8  A    between atoms: _53  and  _55
REMARK                            x       y       z     vdW  Elec       q    Type
REMARK                         _______ _______ _______ _____ _____    ______ ____
ROOT
ATOM     10  C   UNL     1       1.084 -30.307  11.503  0.00  0.00    +0.038 A 
ATOM     11  C   UNL     1       0.696 -29.820  10.229  0.00  0.00    +0.047 A 
ATOM     12  C   UNL     1       0.787 -30.657   9.043  0.00  0.00    +0.035 A 
ATOM     32  C   UNL     1       1.275 -31.988   9.192  0.00  0.00    +0.024 A 
ATOM     33  C   UNL     1       1.675 -32.500  10.480  0.00  0.00    +0.007 A 
ATOM     34  C   UNL     1       1.589 -31.677  11.653  0.00  0.00    -0.029 A 
ATOM     35  C   UNL     1       2.038 -32.276  13.006  0.00  0.00    +0.045 C 
ENDROOT
BRANCH  10   9
ATOM      4  C   UNL     1      -1.244 -28.666  15.367  0.00  0.00    +0.077 A 
ATOM      5  C   UNL     1      -2.350 -29.554  15.150  0.00  0.00    +0.048 A 
ATOM      6  C   UNL     1      -2.284 -30.411  14.029  0.00  0.00    +0.116 A 
ATOM      7  N   UNL     1      -1.189 -30.376  13.194  0.00  0.00    -0.223 NA
ATOM      8  C   UNL     1      -0.140 -29.507  13.431  0.00  0.00    +0.220 A 
ATOM      9  N   UNL     1       0.975 -29.460  12.608  0.00  0.00    -0.283 N 
ATOM     36  H   UNL     1       1.725 -28.799  12.812  0.00  0.00    +0.155 HD
ATOM     37  N   UNL     1      -0.179 -28.676  14.493  0.00  0.00    -0.214 NA
BRANCH   4   3
ATOM      1  C   UNL     1      -0.467 -25.507  17.539  0.00  0.00    +0.020 A 
ATOM      2  C   UNL     1      -0.516 -26.401  16.405  0.00  0.00    +0.013 A 
ATOM      3  C   UNL     1      -1.165 -27.702  16.509  0.00  0.00    +0.019 A 
ATOM     38  C   UNL     1      -1.761 -28.070  17.785  0.00  0.00    +0.120 A 
ATOM     39  N   UNL     1      -1.698 -27.189  18.860  0.00  0.00    -0.263 NA
ATOM     40  C   UNL     1      -1.074 -25.936  18.772  0.00  0.00    +0.111 A 
ENDBRANCH   4   3
ENDBRANCH  10   9
BRANCH  12  13
ATOM     13  N   UNL     1       0.416 -30.214   7.722  0.00  0.00    -0.281 N 
ATOM     14  C   UNL     1      -0.718 -29.513   7.347  0.00  0.00    +0.248 C 
ATOM     30  O   UNL     1      -1.695 -29.345   8.061  0.00  0.00    -0.270 OA
ATOM     31  H   UNL     1       1.069 -30.446   6.973  0.00  0.00    +0.155 HD
BRANCH  14  15
ATOM     15  C   UNL     1      -0.782 -28.926   5.974  0.00  0.00    +0.037 A 
ATOM     16  C   UNL     1      -2.023 -28.346   5.452  0.00  0.00    +0.013 A 
ATOM     17  C   UNL     1      -2.062 -27.801   4.118  0.00  0.00    +0.005 A 
ATOM     18  C   UNL     1      -0.854 -27.833   3.296  0.00  0.00    -0.033 A 
ATOM     28  C   UNL     1       0.364 -28.409   3.841  0.00  0.00    +0.005 A 
ATOM     29  C   UNL     1       0.406 -28.945   5.147  0.00  0.00    +0.013 A 
BRANCH  18  19
ATOM     19  C   UNL     1      -0.810 -27.294   1.854  0.00  0.00    +0.119 C 
BRANCH  19  20
ATOM     20  N   UNL     1       0.260 -27.826   0.958  0.00  0.00    -0.302 NA
ATOM     21  C   UNL     1       0.703 -26.794  -0.083  0.00  0.00    +0.066 C 
ATOM     22  C   UNL     1       1.838 -27.359  -0.997  0.00  0.00    -0.064 C 
ATOM     23  N   UNL     1       1.350 -28.639  -1.678  0.00  0.00    +0.379 N 
ATOM     24  C   UNL     1       2.394 -29.142  -2.583  0.00  0.00    -0.096 C 
ATOM     25  H   UNL     1       0.463 -28.375  -2.298  0.00  0.00    -0.082 HD
ATOM     26  C   UNL     1       0.905 -29.670  -0.650  0.00  0.00    -0.064 C 
ATOM     27  C   UNL     1      -0.202 -29.088   0.273  0.00  0.00    +0.066 C 
ENDBRANCH  19  20
ENDBRANCH  18  19
ENDBRANCH  14  15
ENDBRANCH  12  13
TORSDOF 6
ENDMDL
MODEL 4
REMARK VINA RESULT:      -9.1      2.146     12.238
REMARK  Name = C:\Users\Docking\Desktop\test protocol\1iep_ligandH.pdb
REMARK  8 active torsions:
REMARK  status: ('A' for Active; 'I' for Inactive)
REMARK    1  A    between atoms: _5  and  _11
REMARK    2  A    between atoms: _19  and  _21
REMARK    3  A    between atoms: _22  and  _66
REMARK    4  A    between atoms: _27  and  _30
REMARK    5  A    between atoms: _32  and  _33
REMARK    6  A    between atoms: _38  and  _43
REMARK    7  A    between atoms: _43  and  _46
REMARK    8  A    between atoms: _53  and  _55
REMARK                            x       y       z     vdW  Elec       q    Type
REMARK                         _______ _______ _______ _____ _____    ______ ____
ROOT
ATOM     10  C   UNL     1       1.649 -32.268  11.755  0.00  0.00    +0.038 A 
ATOM     11  C   UNL     1       1.515 -30.865  11.919  0.00  0.00    +0.047 A 
ATOM     12  C   UNL     1       0.330 -30.290  12.535  0.00  0.00    +0.035 A 
ATOM     32  C   UNL     1      -0.699 -31.172  12.976  0.00  0.00    +0.024 A 
ATOM     33  C   UNL     1      -0.579 -32.600  12.816  0.00  0.00    +0.007 A 
ATOM     34  C   UNL     1       0.586 -33.174  12.206  0.00  0.00    -0.029 A 
ATOM     35  C   UNL     1       0.658 -34.711  12.055  0.00  0.00    +0.045 C 
ENDROOT
BRANCH  10   9
ATOM      4  C   UNL     1       6.022 -34.232  11.985  0.00  0.00    +0.077 A 
ATOM      5  C   UNL     1       6.007 -34.242  13.420  0.00  0.00    +0.048 A 
ATOM      6  C   UNL     1       4.858 -33.726  14.060  0.00  0.00    +0.116 A 
ATOM      7  N   UNL     1       3.808 -33.239  13.311  0.00  0.00    -0.223 NA
ATOM      8  C   UNL     1       3.856 -33.243  11.929  0.00  0.00    +0.220 A 
ATOM      9  N   UNL     1       2.809 -32.766  11.156  0.00  0.00    -0.283 N 
ATOM     36  H   UNL     1       2.885 -32.779  10.140  0.00  0.00    +0.155 HD
ATOM     37  N   UNL     1       4.943 -33.729  11.294  0.00  0.00    -0.214 NA
BRANCH   4   3
ATOM      1  C   UNL     1       9.624 -35.026  10.682  0.00  0.00    +0.020 A 
ATOM      2  C   UNL     1       8.559 -34.506  11.509  0.00  0.00    +0.013 A 
ATOM      3  C   UNL     1       7.164 -34.746  11.164  0.00  0.00    +0.019 A 
ATOM     38  C   UNL     1       6.878 -35.523   9.967  0.00  0.00    +0.120 A 
ATOM     39  N   UNL     1       7.924 -36.009   9.189  0.00  0.00    -0.263 NA
ATOM     40  C   UNL     1       9.271 -35.783   9.510  0.00  0.00    +0.111 A 
ENDBRANCH   4   3
ENDBRANCH  10   9
BRANCH  12  13
ATOM     13  N   UNL     1       0.134 -28.873  12.721  0.00  0.00    -0.281 N 
ATOM     14  C   UNL     1       0.024 -28.178  13.915  0.00  0.00    +0.248 C 
ATOM     30  O   UNL     1      -0.137 -28.701  15.007  0.00  0.00    -0.270 OA
ATOM     31  H   UNL     1       0.069 -28.315  11.870  0.00  0.00    +0.155 HD
BRANCH  14  15
ATOM     15  C   UNL     1       0.088 -26.685  13.889  0.00  0.00    +0.037 A 
ATOM     16  C   UNL     1      -0.156 -25.935  12.654  0.00  0.00    +0.013 A 
ATOM     17  C   UNL     1      -0.072 -24.496  12.653  0.00  0.00    +0.005 A 
ATOM     18  C   UNL     1       0.259 -23.797  13.893  0.00  0.00    -0.033 A 
ATOM     28  C   UNL     1       0.491 -24.566  15.105  0.00  0.00    +0.005 A 
ATOM     29  C   UNL     1       0.410 -25.976  15.109  0.00  0.00    +0.013 A 
BRANCH  18  19
ATOM     19  C   UNL     1       0.391 -22.265  13.980  0.00  0.00    +0.119 C 
BRANCH  19  20
ATOM     20  N   UNL     1      -0.491 -21.451  13.091  0.00  0.00    -0.302 NA
ATOM     21  C   UNL     1       0.286 -20.823  11.931  0.00  0.00    +0.066 C 
ATOM     22  C   UNL     1      -0.656 -19.993  10.999  0.00  0.00    -0.064 C 
ATOM     23  N   UNL     1      -1.364 -18.916  11.822  0.00  0.00    +0.379 N 
ATOM     24  C   UNL     1      -2.207 -18.097  10.938  0.00  0.00    -0.096 C 
ATOM     25  H   UNL     1      -0.581 -18.251  12.255  0.00  0.00    -0.082 HD
ATOM     26  C   UNL     1      -2.137 -19.532  12.980  0.00  0.00    -0.064 C 
ATOM     27  C   UNL     1      -1.197 -20.379  13.884  0.00  0.00    +0.066 C 
ENDBRANCH  19  20
ENDBRANCH  18  19
ENDBRANCH  14  15
ENDBRANCH  12  13
TORSDOF 6
ENDMDL
MODEL 5
REMARK VINA RESULT:      -9.1      3.661      4.744
REMARK  Name = C:\Users\Docking\Desktop\test protocol\1iep_ligandH.pdb
REMARK  8 active torsions:
REMARK  status: ('A' for Active; 'I' for Inactive)
REMARK    1  A    between atoms: _5  and  _11
REMARK    2  A    between atoms: _19  and  _21
REMARK    3  A    between atoms: _22  and  _66
REMARK    4  A    between atoms: _27  and  _30
REMARK    5  A    between atoms: _32  and  _33
REMARK    6  A    between atoms: _38  and  _43
REMARK    7  A    between atoms: _43  and  _46
REMARK    8  A    between atoms: _53  and  _55
REMARK                            x       y       z     vdW  Elec       q    Type
REMARK                         _______ _______ _______ _____ _____    ______ ____
ROOT
ATOM     10  C   UNL     1      -0.499 -29.353  12.273  0.00  0.00    +0.038 A 
ATOM     11  C   UNL     1       0.559 -30.263  12.530  0.00  0.00    +0.047 A 
ATOM     12  C   UNL     1       0.653 -30.967  13.800  0.00  0.00    +0.035 A 
ATOM     32  C   UNL     1      -0.348 -30.722  14.784  0.00  0.00    +0.024 A 
ATOM     33  C   UNL     1      -1.429 -29.800  14.540  0.00  0.00    +0.007 A 
ATOM     34  C   UNL     1      -1.526 -29.100  13.290  0.00  0.00    -0.029 A 
ATOM     35  C   UNL     1      -2.703 -28.118  13.085  0.00  0.00    +0.045 C 
ENDROOT
BRANCH  10   9
ATOM      4  C   UNL     1      -0.034 -29.314   7.496  0.00  0.00    +0.077 A 
ATOM      5  C   UNL     1       0.351 -30.696   7.463  0.00  0.00    +0.048 A 
ATOM      6  C   UNL     1       0.424 -31.379   8.698  0.00  0.00    +0.116 A 
ATOM      7  N   UNL     1       0.132 -30.719   9.872  0.00  0.00    -0.223 NA
ATOM      8  C   UNL     1      -0.235 -29.386   9.868  0.00  0.00    +0.220 A 
ATOM      9  N   UNL     1      -0.541 -28.704  11.036  0.00  0.00    -0.283 N 
ATOM     36  H   UNL     1      -0.799 -27.719  10.992  0.00  0.00    +0.155 HD
ATOM     37  N   UNL     1      -0.311 -28.711   8.702  0.00  0.00    -0.214 NA
BRANCH   4   3
ATOM      1  C   UNL     1      -0.001 -28.077   3.785  0.00  0.00    +0.020 A 
ATOM      2  C   UNL     1       0.137 -28.945   4.932  0.00  0.00    +0.013 A 
ATOM      3  C   UNL     1      -0.160 -28.459   6.274  0.00  0.00    +0.019 A 
ATOM     38  C   UNL     1      -0.599 -27.079   6.421  0.00  0.00    +0.120 A 
ATOM     39  N   UNL     1      -0.721 -26.266   5.298  0.00  0.00    -0.263 NA
ATOM     40  C   UNL     1      -0.437 -26.723   4.002  0.00  0.00    +0.111 A 
ENDBRANCH   4   3
ENDBRANCH  10   9
BRANCH  12  13
ATOM     13  N   UNL     1       1.708 -31.896  14.121  0.00  0.00    -0.281 N 
ATOM     14  C   UNL     1       1.835 -33.214  13.714  0.00  0.00    +0.248 C 
ATOM     30  O   UNL     1       0.945 -33.862  13.184  0.00  0.00    -0.270 OA
ATOM     31  H   UNL     1       2.452 -31.538  14.721  0.00  0.00    +0.155 HD
BRANCH  14  15
ATOM     15  C   UNL     1       3.133 -33.919  13.944  0.00  0.00    +0.037 A 
ATOM     16  C   UNL     1       3.247 -35.371  13.788  0.00  0.00    +0.013 A 
ATOM     17  C   UNL     1       4.507 -36.028  14.032  0.00  0.00    +0.005 A 
ATOM     18  C   UNL     1       5.664 -35.231  14.433  0.00  0.00    -0.033 A 
ATOM     28  C   UNL     1       5.524 -33.791  14.575  0.00  0.00    +0.005 A 
ATOM     29  C   UNL     1       4.290 -33.144  14.338  0.00  0.00    +0.013 A 
BRANCH  18  19
ATOM     19  C   UNL     1       7.042 -35.850  14.735  0.00  0.00    +0.119 C 
BRANCH  19  20
ATOM     20  N   UNL     1       7.985 -36.009  13.588  0.00  0.00    -0.302 NA
ATOM     21  C   UNL     1       8.076 -34.738  12.739  0.00  0.00    +0.066 C 
ATOM     22  C   UNL     1       9.085 -34.914  11.557  0.00  0.00    -0.064 C 
ATOM     23  N   UNL     1       8.660 -36.108  10.701  0.00  0.00    +0.379 N 
ATOM     24  C   UNL     1       9.573 -36.241   9.557  0.00  0.00    -0.096 C 
ATOM     25  H   UNL     1       7.643 -35.891  10.300  0.00  0.00    -0.082 HD
ATOM     26  C   UNL     1       8.565 -37.376  11.539  0.00  0.00    -0.064 C 
ATOM     27  C   UNL     1       7.582 -37.180  12.727  0.00  0.00    +0.066 C 
ENDBRANCH  19  20
ENDBRANCH  18  19
ENDBRANCH  14  15
ENDBRANCH  12  13
TORSDOF 6
ENDMDL
