MODEL 1
REMARK VINA RESULT:      -9.8      0.000      0.000
REMARK  Name = C:\Users\Docking\Desktop\test protocol\1iep_ligandH.pdb
REMARK  8 active torsions:
REMARK  status: ('A' for Active; 'I' for Inactive)
REMARK    1  A    between atoms: _5  and  _11
REMARK    2  A    between atoms: _19  and  _21
REMARK    3  A    between atoms: _22  and  _66
REMARK    4  A    between atoms: _27  and  _30
REMARK    5  A    between atoms: _32  and  _33
REMARK    6  A    between atoms: _38  and  _43
REMARK    7  A    between atoms: _43  and  _46
REMARK    8  A    between atoms: _53  and  _55
REMARK                            x       y       z     vdW  Elec       q    Type
REMARK                         _______ _______ _______ _____ _____    ______ ____
ROOT
ATOM     10  C   UNL     1      -1.029 -28.437  13.255  0.00  0.00    +0.038 A 
ATOM     11  C   UNL     1       0.166 -29.192  13.374  0.00  0.00    +0.047 A 
ATOM     12  C   UNL     1       0.176 -30.485  14.041  0.00  0.00    +0.035 A 
ATOM     32  C   UNL     1      -1.050 -30.980  14.572  0.00  0.00    +0.024 A 
ATOM     33  C   UNL     1      -2.274 -30.225  14.461  0.00  0.00    +0.007 A 
ATOM     34  C   UNL     1      -2.289 -28.948  13.807  0.00  0.00    -0.029 A 
ATOM     35  C   UNL     1      -3.629 -28.180  13.723  0.00  0.00    +0.045 C 
ENDROOT
BRANCH  10   9
ATOM      4  C   UNL     1      -0.074 -23.734  13.169  0.00  0.00    +0.077 A 
ATOM      5  C   UNL     1       0.339 -23.732  14.543  0.00  0.00    +0.048 A 
ATOM      6  C   UNL     1       0.284 -24.961  15.238  0.00  0.00    +0.116 A 
ATOM      7  N   UNL     1      -0.153 -26.100  14.597  0.00  0.00    -0.223 NA
ATOM      8  C   UNL     1      -0.546 -26.067  13.272  0.00  0.00    +0.220 A 
ATOM      9  N   UNL     1      -0.981 -27.202  12.605  0.00  0.00    -0.283 N 
ATOM     36  H   UNL     1      -1.269 -27.134  11.630  0.00  0.00    +0.155 HD
ATOM     37  N   UNL     1      -0.504 -24.905  12.586  0.00  0.00    -0.214 NA
BRANCH   4   3
ATOM      1  C   UNL     1       0.231 -20.039  11.923  0.00  0.00    +0.020 A 
ATOM      2  C   UNL     1       0.241 -21.183  12.805  0.00  0.00    +0.013 A 
ATOM      3  C   UNL     1      -0.069 -22.515  12.300  0.00  0.00    +0.019 A 
ATOM     38  C   UNL     1      -0.386 -22.655  10.887  0.00  0.00    +0.120 A 
ATOM     39  N   UNL     1      -0.388 -21.535  10.062  0.00  0.00    -0.263 NA
ATOM     40  C   UNL     1      -0.093 -20.248  10.537  0.00  0.00    +0.111 A 
ENDBRANCH   4   3
ENDBRANCH  10   9
BRANCH  12  13
ATOM     13  N   UNL     1       1.360 -31.293  14.199  0.00  0.00    -0.281 N 
ATOM     14  C   UNL     1       1.657 -32.497  13.583  0.00  0.00    +0.248 C 
ATOM     30  O   UNL     1       0.851 -33.173  12.961  0.00  0.00    -0.270 OA
ATOM     31  H   UNL     1       2.064 -30.933  14.843  0.00  0.00    +0.155 HD
BRANCH  14  15
ATOM     15  C   UNL     1       3.048 -33.036  13.685  0.00  0.00    +0.037 A 
ATOM     16  C   UNL     1       4.207 -32.227  13.301  0.00  0.00    +0.013 A 
ATOM     17  C   UNL     1       5.536 -32.777  13.393  0.00  0.00    +0.005 A 
ATOM     18  C   UNL     1       5.713 -34.145  13.874  0.00  0.00    -0.033 A 
ATOM     28  C   UNL     1       4.546 -34.924  14.253  0.00  0.00    +0.005 A 
ATOM     29  C   UNL     1       3.241 -34.389  14.163  0.00  0.00    +0.013 A 
BRANCH  18  19
ATOM     19  C   UNL     1       7.092 -34.821  13.984  0.00  0.00    +0.119 C 
BRANCH  19  20
ATOM     20  N   UNL     1       7.676 -35.392  12.734  0.00  0.00    -0.302 NA
ATOM     21  C   UNL     1       8.625 -34.410  12.042  0.00  0.00    +0.066 C 
ATOM     22  C   UNL     1       9.244 -35.033  10.748  0.00  0.00    -0.064 C 
ATOM     23  N   UNL     1       8.120 -35.458   9.802  0.00  0.00    +0.379 N 
ATOM     24  C   UNL     1       8.699 -35.990   8.560  0.00  0.00    -0.096 C 
ATOM     25  H   UNL     1       7.536 -34.545   9.539  0.00  0.00    -0.082 HD
ATOM     26  C   UNL     1       7.170 -36.432  10.483  0.00  0.00    -0.064 C 
ATOM     27  C   UNL     1       6.583 -35.815  11.783  0.00  0.00    +0.066 C 
ENDBRANCH  19  20
ENDBRANCH  18  19
ENDBRANCH  14  15
ENDBRANCH  12  13
TORSDOF 6
ENDMDL
MODEL 2
REMARK VINA RESULT:      -9.6      3.725      5.903
REMARK  Name = C:\Users\Docking\Desktop\test protocol\1iep_ligandH.pdb
REMARK  8 active torsions:
REMARK  status: ('A' for Active; 'I' for Inactive)
REMARK    1  A    between atoms: _5  and  _11
REMARK    2  A    between atoms: _19  and  _21
REMARK    3  A    between atoms: _22  and  _66
REMARK    4  A    between atoms: _27  and  _30
REMARK    5  A    between atoms: _32  and  _33
REMARK    6  A    between atoms: _38  and  _43
REMARK    7  A    between atoms: _43  and  _46
REMARK    8  A    between atoms: _53  and  _55
REMARK                            x       y       z     vdW  Elec       q    Type
REMARK                         _______ _______ _______ _____ _____    ______ ____
ROOT
ATOM     10  C   UNL     1      -0.295 -29.079  11.554  0.00  0.00    +0.038 A 
ATOM     11  C   UNL     1       0.937 -29.724  11.277  0.00  0.00    +0.047 A 
ATOM     12  C   UNL     1       1.683 -29.432  10.062  0.00  0.00    +0.035 A 
ATOM     32  C   UNL     1       1.145 -28.475   9.153  0.00  0.00    +0.024 A 
ATOM     33  C   UNL     1      -0.107 -27.811   9.419  0.00  0.00    +0.007 A 
ATOM     34  C   UNL     1      -0.848 -28.097  10.614  0.00  0.00    -0.029 A 
ATOM     35  C   UNL     1      -2.187 -27.359  10.844  0.00  0.00    +0.045 C 
ENDROOT
BRANCH  10   9
ATOM      4  C   UNL     1      -1.428 -28.232  16.141  0.00  0.00    +0.077 A 
ATOM      5  C   UNL     1      -0.585 -27.072  16.196  0.00  0.00    +0.048 A 
ATOM      6  C   UNL     1       0.128 -26.732  15.025  0.00  0.00    +0.116 A 
ATOM      7  N   UNL     1       0.001 -27.501  13.889  0.00  0.00    -0.223 NA
ATOM      8  C   UNL     1      -0.819 -28.614  13.870  0.00  0.00    +0.220 A 
ATOM      9  N   UNL     1      -0.969 -29.398  12.735  0.00  0.00    -0.283 N 
ATOM     36  H   UNL     1      -1.577 -30.215  12.764  0.00  0.00    +0.155 HD
ATOM     37  N   UNL     1      -1.510 -28.961  14.975  0.00  0.00    -0.214 NA
BRANCH   4   3
ATOM      1  C   UNL     1      -2.931 -28.684  19.723  0.00  0.00    +0.020 A 
ATOM      2  C   UNL     1      -2.115 -28.180  18.643  0.00  0.00    +0.013 A 
ATOM      3  C   UNL     1      -2.248 -28.718  17.295  0.00  0.00    +0.019 A 
ATOM     38  C   UNL     1      -3.224 -29.773  17.072  0.00  0.00    +0.120 A 
ATOM     39  N   UNL     1      -3.996 -30.240  18.132  0.00  0.00    -0.263 NA
ATOM     40  C   UNL     1      -3.875 -29.731  19.433  0.00  0.00    +0.111 A 
ENDBRANCH   4   3
ENDBRANCH  10   9
BRANCH  12  13
ATOM     13  N   UNL     1       2.935 -30.062   9.723  0.00  0.00    -0.281 N 
ATOM     14  C   UNL     1       4.204 -29.728  10.167  0.00  0.00    +0.248 C 
ATOM     30  O   UNL     1       4.479 -28.696  10.760  0.00  0.00    -0.270 OA
ATOM     31  H   UNL     1       2.879 -30.850   9.077  0.00  0.00    +0.155 HD
BRANCH  14  15
ATOM     15  C   UNL     1       5.333 -30.670   9.900  0.00  0.00    +0.037 A 
ATOM     16  C   UNL     1       6.717 -30.305  10.214  0.00  0.00    +0.013 A 
ATOM     17  C   UNL     1       7.790 -31.226   9.931  0.00  0.00    +0.005 A 
ATOM     18  C   UNL     1       7.481 -32.522   9.332  0.00  0.00    -0.033 A 
ATOM     28  C   UNL     1       6.099 -32.860   9.036  0.00  0.00    +0.005 A 
ATOM     29  C   UNL     1       5.045 -31.960   9.311  0.00  0.00    +0.013 A 
BRANCH  18  19
ATOM     19  C   UNL     1       8.564 -33.558   8.977  0.00  0.00    +0.119 C 
BRANCH  19  20
ATOM     20  N   UNL     1       8.812 -34.653   9.961  0.00  0.00    -0.302 NA
ATOM     21  C   UNL     1       8.205 -35.983   9.506  0.00  0.00    +0.066 C 
ATOM     22  C   UNL     1       8.493 -37.123  10.537  0.00  0.00    -0.064 C 
ATOM     23  N   UNL     1       7.946 -36.718  11.907  0.00  0.00    +0.379 N 
ATOM     24  C   UNL     1       8.163 -37.812  12.865  0.00  0.00    -0.096 C 
ATOM     25  H   UNL     1       6.845 -36.574  11.802  0.00  0.00    -0.082 HD
ATOM     26  C   UNL     1       8.542 -35.395  12.366  0.00  0.00    -0.064 C 
ATOM     27  C   UNL     1       8.276 -34.276  11.320  0.00  0.00    +0.066 C 
ENDBRANCH  19  20
ENDBRANCH  18  19
ENDBRANCH  14  15
ENDBRANCH  12  13
TORSDOF 6
ENDMDL
MODEL 3
REMARK VINA RESULT:      -9.4      3.646      5.285
REMARK  Name = C:\Users\Docking\Desktop\test protocol\1iep_ligandH.pdb
REMARK  8 active torsions:
REMARK  status: ('A' for Active; 'I' for Inactive)
REMARK    1  A    between atoms: _5  and  _11
REMARK    2  A    between atoms: _19  and  _21
REMARK    3  A    between atoms: _22  and  _66
REMARK    4  A    between atoms: _27  and  _30
REMARK    5  A    between atoms: _32  and  _33
REMARK    6  A    between atoms: _38  and  _43
REMARK    7  A    between atoms: _43  and  _46
REMARK    8  A    between atoms: _53  and  _55
REMARK                            x       y       z     vdW  Elec       q    Type
REMARK                         _______ _______ _______ _____ _____    ______ ____
ROOT
ATOM     10  C   UNL     1       0.427 -28.499  11.052  0.00  0.00    +0.038 A 
ATOM     11  C   UNL     1       1.619 -29.262  10.971  0.00  0.00    +0.047 A 
ATOM     12  C   UNL     1       1.921 -30.064   9.796  0.00  0.00    +0.035 A 
ATOM     32  C   UNL     1       0.987 -30.064   8.720  0.00  0.00    +0.024 A 
ATOM     33  C   UNL     1      -0.231 -29.295   8.786  0.00  0.00    +0.007 A 
ATOM     34  C   UNL     1      -0.535 -28.504   9.944  0.00  0.00    -0.029 A 
ATOM     35  C   UNL     1      -1.859 -27.705   9.963  0.00  0.00    +0.045 C 
ENDROOT
BRANCH  10   9
ATOM      4  C   UNL     1      -0.907 -28.101  15.646  0.00  0.00    +0.077 A 
ATOM      5  C   UNL     1      -1.175 -29.506  15.751  0.00  0.00    +0.048 A 
ATOM      6  C   UNL     1      -0.964 -30.295  14.599  0.00  0.00    +0.116 A 
ATOM      7  N   UNL     1      -0.518 -29.712  13.433  0.00  0.00    -0.223 NA
ATOM      8  C   UNL     1      -0.270 -28.353  13.365  0.00  0.00    +0.220 A 
ATOM      9  N   UNL     1       0.187 -27.747  12.205  0.00  0.00    -0.283 N 
ATOM     36  H   UNL     1       0.351 -26.741  12.193  0.00  0.00    +0.155 HD
ATOM     37  N   UNL     1      -0.465 -27.578  14.451  0.00  0.00    -0.214 NA
BRANCH   4   3
ATOM      1  C   UNL     1      -0.670 -24.917  17.906  0.00  0.00    +0.020 A 
ATOM      2  C   UNL     1      -0.473 -25.811  16.788  0.00  0.00    +0.013 A 
ATOM      3  C   UNL     1      -1.079 -27.136  16.778  0.00  0.00    +0.019 A 
ATOM     38  C   UNL     1      -1.887 -27.529  17.923  0.00  0.00    +0.120 A 
ATOM     39  N   UNL     1      -2.058 -26.648  18.986  0.00  0.00    -0.263 NA
ATOM     40  C   UNL     1      -1.478 -25.371  19.007  0.00  0.00    +0.111 A 
ENDBRANCH   4   3
ENDBRANCH  10   9
BRANCH  12  13
ATOM     13  N   UNL     1       3.113 -30.865   9.661  0.00  0.00    -0.281 N 
ATOM     14  C   UNL     1       4.431 -30.439   9.670  0.00  0.00    +0.248 C 
ATOM     30  O   UNL     1       4.781 -29.272   9.582  0.00  0.00    -0.270 OA
ATOM     31  H   UNL     1       2.966 -31.868   9.543  0.00  0.00    +0.155 HD
BRANCH  14  15
ATOM     15  C   UNL     1       5.518 -31.459   9.778  0.00  0.00    +0.037 A 
ATOM     16  C   UNL     1       6.055 -32.127   8.589  0.00  0.00    +0.013 A 
ATOM     17  C   UNL     1       7.091 -33.119   8.723  0.00  0.00    +0.005 A 
ATOM     18  C   UNL     1       7.600 -33.449  10.053  0.00  0.00    -0.033 A 
ATOM     28  C   UNL     1       7.054 -32.767  11.214  0.00  0.00    +0.005 A 
ATOM     29  C   UNL     1       6.037 -31.795  11.087  0.00  0.00    +0.013 A 
BRANCH  18  19
ATOM     19  C   UNL     1       8.691 -34.510  10.292  0.00  0.00    +0.119 C 
BRANCH  19  20
ATOM     20  N   UNL     1       8.267 -35.795  10.923  0.00  0.00    -0.302 NA
ATOM     21  C   UNL     1       6.910 -36.273  10.399  0.00  0.00    +0.066 C 
ATOM     22  C   UNL     1       6.493 -37.631  11.053  0.00  0.00    -0.064 C 
ATOM     23  N   UNL     1       6.461 -37.471  12.574  0.00  0.00    +0.379 N 
ATOM     24  C   UNL     1       6.013 -38.729  13.190  0.00  0.00    -0.096 C 
ATOM     25  H   UNL     1       5.705 -36.688  12.816  0.00  0.00    -0.082 HD
ATOM     26  C   UNL     1       7.805 -36.993  13.104  0.00  0.00    -0.064 C 
ATOM     27  C   UNL     1       8.224 -35.659  12.425  0.00  0.00    +0.066 C 
ENDBRANCH  19  20
ENDBRANCH  18  19
ENDBRANCH  14  15
ENDBRANCH  12  13
TORSDOF 6
ENDMDL
MODEL 4
REMARK VINA RESULT:      -9.3      2.405     12.542
REMARK  Name = C:\Users\Docking\Desktop\test protocol\1iep_ligandH.pdb
REMARK  8 active torsions:
REMARK  status: ('A' for Active; 'I' for Inactive)
REMARK    1  A    between atoms: _5  and  _11
REMARK    2  A    between atoms: _19  and  _21
REMARK    3  A    between atoms: _22  and  _66
REMARK    4  A    between atoms: _27  and  _30
REMARK    5  A    between atoms: _32  and  _33
REMARK    6  A    between atoms: _38  and  _43
REMARK    7  A    between atoms: _43  and  _46
REMARK    8  A    between atoms: _53  and  _55
REMARK                            x       y       z     vdW  Elec       q    Type
REMARK                         _______ _______ _______ _____ _____    ______ ____
ROOT
ATOM     10  C   UNL     1       1.488 -31.725  12.024  0.00  0.00    +0.038 A 
ATOM     11  C   UNL     1       1.359 -30.315  12.117  0.00  0.00    +0.047 A 
ATOM     12  C   UNL     1       0.156 -29.704  12.660  0.00  0.00    +0.035 A 
ATOM     32  C   UNL     1      -0.896 -30.558  13.102  0.00  0.00    +0.024 A 
ATOM     33  C   UNL     1      -0.782 -31.993  13.014  0.00  0.00    +0.007 A 
ATOM     34  C   UNL     1       0.401 -32.602  12.477  0.00  0.00    -0.029 A 
ATOM     35  C   UNL     1       0.466 -34.145  12.401  0.00  0.00    +0.045 C 
ENDROOT
BRANCH  10   9
ATOM      4  C   UNL     1       5.865 -33.631  12.513  0.00  0.00    +0.077 A 
ATOM      5  C   UNL     1       5.814 -33.531  13.943  0.00  0.00    +0.048 A 
ATOM      6  C   UNL     1       4.646 -32.977  14.513  0.00  0.00    +0.116 A 
ATOM      7  N   UNL     1       3.613 -32.557  13.704  0.00  0.00    -0.223 NA
ATOM      8  C   UNL     1       3.695 -32.666  12.328  0.00  0.00    +0.220 A 
ATOM      9  N   UNL     1       2.665 -32.258  11.495  0.00  0.00    -0.283 N 
ATOM     36  H   UNL     1       2.767 -32.349  10.484  0.00  0.00    +0.155 HD
ATOM     37  N   UNL     1       4.801 -33.191  11.759  0.00  0.00    -0.214 NA
BRANCH   4   3
ATOM      1  C   UNL     1       9.502 -34.428  11.312  0.00  0.00    +0.020 A 
ATOM      2  C   UNL     1       8.413 -33.852  12.067  0.00  0.00    +0.013 A 
ATOM      3  C   UNL     1       7.030 -34.198  11.762  0.00  0.00    +0.019 A 
ATOM     38  C   UNL     1       6.782 -35.136  10.678  0.00  0.00    +0.120 A 
ATOM     39  N   UNL     1       7.850 -35.674   9.967  0.00  0.00    -0.263 NA
ATOM     40  C   UNL     1       9.185 -35.347  10.251  0.00  0.00    +0.111 A 
ENDBRANCH   4   3
ENDBRANCH  10   9
BRANCH  12  13
ATOM     13  N   UNL     1      -0.035 -28.279  12.772  0.00  0.00    -0.281 N 
ATOM     14  C   UNL     1      -0.038 -27.508  13.922  0.00  0.00    +0.248 C 
ATOM     30  O   UNL     1      -0.089 -27.959  15.057  0.00  0.00    -0.270 OA
ATOM     31  H   UNL     1      -0.187 -27.778  11.896  0.00  0.00    +0.155 HD
BRANCH  14  15
ATOM     15  C   UNL     1       0.008 -26.019  13.794  0.00  0.00    +0.037 A 
ATOM     16  C   UNL     1       0.385 -25.170  14.927  0.00  0.00    +0.013 A 
ATOM     17  C   UNL     1       0.405 -23.736  14.781  0.00  0.00    +0.005 A 
ATOM     18  C   UNL     1       0.049 -23.142  13.494  0.00  0.00    -0.033 A 
ATOM     28  C   UNL     1      -0.316 -24.008  12.385  0.00  0.00    +0.005 A 
ATOM     29  C   UNL     1      -0.338 -25.414  12.525  0.00  0.00    +0.013 A 
BRANCH  18  19
ATOM     19  C   UNL     1       0.023 -21.621  13.254  0.00  0.00    +0.119 C 
BRANCH  19  20
ATOM     20  N   UNL     1      -1.270 -20.913  13.496  0.00  0.00    -0.302 NA
ATOM     21  C   UNL     1      -1.795 -20.228  12.231  0.00  0.00    +0.066 C 
ATOM     22  C   UNL     1      -3.159 -19.511  12.497  0.00  0.00    -0.064 C 
ATOM     23  N   UNL     1      -2.987 -18.498  13.630  0.00  0.00    +0.379 N 
ATOM     24  C   UNL     1      -4.252 -17.781  13.843  0.00  0.00    -0.096 C 
ATOM     25  H   UNL     1      -2.226 -17.751  13.303  0.00  0.00    -0.082 HD
ATOM     26  C   UNL     1      -2.462 -19.170  14.891  0.00  0.00    -0.064 C 
ATOM     27  C   UNL     1      -1.122 -19.904  14.609  0.00  0.00    +0.066 C 
ENDBRANCH  19  20
ENDBRANCH  18  19
ENDBRANCH  14  15
ENDBRANCH  12  13
TORSDOF 6
ENDMDL
MODEL 5
REMARK VINA RESULT:      -9.2      2.710     12.584
REMARK  Name = C:\Users\Docking\Desktop\test protocol\1iep_ligandH.pdb
REMARK  8 active torsions:
REMARK  status: ('A' for Active; 'I' for Inactive)
REMARK    1  A    between atoms: _5  and  _11
REMARK    2  A    between atoms: _19  and  _21
REMARK    3  A    between atoms: _22  and  _66
REMARK    4  A    between atoms: _27  and  _30
REMARK    5  A    between atoms: _32  and  _33
REMARK    6  A    between atoms: _38  and  _43
REMARK    7  A    between atoms: _43  and  _46
REMARK    8  A    between atoms: _53  and  _55
REMARK                            x       y       z     vdW  Elec       q    Type
REMARK                         _______ _______ _______ _____ _____    ______ ____
ROOT
ATOM     10  C   UNL     1       1.092 -31.228  11.895  0.00  0.00    +0.038 A 
ATOM     11  C   UNL     1       0.981 -29.819  12.011  0.00  0.00    +0.047 A 
ATOM     12  C   UNL     1      -0.107 -29.208  12.758  0.00  0.00    +0.035 A 
ATOM     32  C   UNL     1      -1.064 -30.064  13.379  0.00  0.00    +0.024 A 
ATOM     33  C   UNL     1      -0.967 -31.498  13.271  0.00  0.00    +0.007 A 
ATOM     34  C   UNL     1       0.103 -32.106  12.533  0.00  0.00    -0.029 A 
ATOM     35  C   UNL     1       0.153 -33.649  12.445  0.00  0.00    +0.045 C 
ENDROOT
BRANCH  10   9
ATOM      4  C   UNL     1       5.484 -33.143  11.601  0.00  0.00    +0.077 A 
ATOM      5  C   UNL     1       5.684 -33.049  13.019  0.00  0.00    +0.048 A 
ATOM      6  C   UNL     1       4.635 -32.496  13.787  0.00  0.00    +0.116 A 
ATOM      7  N   UNL     1       3.476 -32.071  13.173  0.00  0.00    -0.223 NA
ATOM      8  C   UNL     1       3.317 -32.174  11.803  0.00  0.00    +0.220 A 
ATOM      9  N   UNL     1       2.157 -31.761  11.166  0.00  0.00    -0.283 N 
ATOM     36  H   UNL     1       2.081 -31.847  10.152  0.00  0.00    +0.155 HD
ATOM     37  N   UNL     1       4.304 -32.698  11.047  0.00  0.00    -0.214 NA
BRANCH   4   3
ATOM      1  C   UNL     1       7.200 -34.607   8.406  0.00  0.00    +0.020 A 
ATOM      2  C   UNL     1       6.183 -34.066   9.279  0.00  0.00    +0.013 A 
ATOM      3  C   UNL     1       6.498 -33.707  10.656  0.00  0.00    +0.019 A 
ATOM     38  C   UNL     1       7.861 -33.909  11.123  0.00  0.00    +0.120 A 
ATOM     39  N   UNL     1       8.819 -34.433  10.260  0.00  0.00    -0.263 NA
ATOM     40  C   UNL     1       8.528 -34.784   8.933  0.00  0.00    +0.111 A 
ENDBRANCH   4   3
ENDBRANCH  10   9
BRANCH  12  13
ATOM     13  N   UNL     1      -0.276 -27.784  12.903  0.00  0.00    -0.281 N 
ATOM     14  C   UNL     1       0.099 -26.986  13.972  0.00  0.00    +0.248 C 
ATOM     30  O   UNL     1       0.445 -27.411  15.064  0.00  0.00    -0.270 OA
ATOM     31  H   UNL     1      -0.726 -27.305  12.122  0.00  0.00    +0.155 HD
BRANCH  14  15
ATOM     15  C   UNL     1       0.070 -25.500  13.809  0.00  0.00    +0.037 A 
ATOM     16  C   UNL     1       0.476 -24.608  14.898  0.00  0.00    +0.013 A 
ATOM     17  C   UNL     1       0.423 -23.179  14.720  0.00  0.00    +0.005 A 
ATOM     18  C   UNL     1      -0.037 -22.632  13.445  0.00  0.00    -0.033 A 
ATOM     28  C   UNL     1      -0.428 -23.540  12.380  0.00  0.00    +0.005 A 
ATOM     29  C   UNL     1      -0.379 -24.942  12.551  0.00  0.00    +0.013 A 
BRANCH  18  19
ATOM     19  C   UNL     1      -0.146 -21.120  13.174  0.00  0.00    +0.119 C 
BRANCH  19  20
ATOM     20  N   UNL     1      -1.267 -20.387  13.833  0.00  0.00    -0.302 NA
ATOM     21  C   UNL     1      -2.539 -20.396  12.981  0.00  0.00    +0.066 C 
ATOM     22  C   UNL     1      -3.709 -19.644  13.695  0.00  0.00    -0.064 C 
ATOM     23  N   UNL     1      -3.275 -18.210  14.005  0.00  0.00    +0.379 N 
ATOM     24  C   UNL     1      -4.392 -17.482  14.625  0.00  0.00    -0.096 C 
ATOM     25  H   UNL     1      -3.042 -17.710  13.036  0.00  0.00    -0.082 HD
ATOM     26  C   UNL     1      -2.009 -18.191  14.850  0.00  0.00    -0.064 C 
ATOM     27  C   UNL     1      -0.862 -18.967  14.144  0.00  0.00    +0.066 C 
ENDBRANCH  19  20
ENDBRANCH  18  19
ENDBRANCH  14  15
ENDBRANCH  12  13
TORSDOF 6
ENDMDL
