MODEL 1
REMARK VINA RESULT:     -10.0      0.000      0.000
REMARK  Name = C:\Users\Docking\Desktop\test protocol\1iep_ligandH.pdb
REMARK  8 active torsions:
REMARK  status: ('A' for Active; 'I' for Inactive)
REMARK    1  A    between atoms: _5  and  _11
REMARK    2  A    between atoms: _19  and  _21
REMARK    3  A    between atoms: _22  and  _66
REMARK    4  A    between atoms: _27  and  _30
REMARK    5  A    between atoms: _32  and  _33
REMARK    6  A    between atoms: _38  and  _43
REMARK    7  A    between atoms: _43  and  _46
REMARK    8  A    between atoms: _53  and  _55
REMARK                            x       y       z     vdW  Elec       q    Type
REMARK                         _______ _______ _______ _____ _____    ______ ____
ROOT
ATOM     10  C   UNL     1       0.443 -28.374  11.168  0.00  0.00    +0.038 A 
ATOM     11  C   UNL     1       1.648 -29.122  11.136  0.00  0.00    +0.047 A 
ATOM     12  C   UNL     1       1.996 -29.939   9.984  0.00  0.00    +0.035 A 
ATOM     32  C   UNL     1       1.094 -29.970   8.880  0.00  0.00    +0.024 A 
ATOM     33  C   UNL     1      -0.136 -29.217   8.897  0.00  0.00    +0.007 A 
ATOM     34  C   UNL     1      -0.485 -28.411  10.032  0.00  0.00    -0.029 A 
ATOM     35  C   UNL     1      -1.819 -27.630   9.997  0.00  0.00    +0.045 C 
ENDROOT
BRANCH  10   9
ATOM      4  C   UNL     1      -0.765 -27.937  15.793  0.00  0.00    +0.077 A 
ATOM      5  C   UNL     1      -0.865 -29.358  15.962  0.00  0.00    +0.048 A 
ATOM      6  C   UNL     1      -0.605 -30.166  14.832  0.00  0.00    +0.116 A 
ATOM      7  N   UNL     1      -0.270 -29.585  13.629  0.00  0.00    -0.223 NA
ATOM      8  C   UNL     1      -0.184 -28.211  13.499  0.00  0.00    +0.220 A 
ATOM      9  N   UNL     1       0.160 -27.606  12.300  0.00  0.00    -0.283 N 
ATOM     36  H   UNL     1       0.205 -26.589  12.243  0.00  0.00    +0.155 HD
ATOM     37  N   UNL     1      -0.429 -27.418  14.562  0.00  0.00    -0.214 NA
BRANCH   4   3
ATOM      1  C   UNL     1      -2.014 -26.270  19.103  0.00  0.00    +0.020 A 
ATOM      2  C   UNL     1      -1.812 -27.258  18.069  0.00  0.00    +0.013 A 
ATOM      3  C   UNL     1      -1.007 -26.951  16.893  0.00  0.00    +0.019 A 
ATOM     38  C   UNL     1      -0.415 -25.625  16.795  0.00  0.00    +0.120 A 
ATOM     39  N   UNL     1      -0.628 -24.694  17.806  0.00  0.00    -0.263 NA
ATOM     40  C   UNL     1      -1.403 -24.977  18.941  0.00  0.00    +0.111 A 
ENDBRANCH   4   3
ENDBRANCH  10   9
BRANCH  12  13
ATOM     13  N   UNL     1       3.201 -30.726   9.897  0.00  0.00    -0.281 N 
ATOM     14  C   UNL     1       4.510 -30.275   9.834  0.00  0.00    +0.248 C 
ATOM     30  O   UNL     1       4.831 -29.115   9.626  0.00  0.00    -0.270 OA
ATOM     31  H   UNL     1       3.074 -31.738   9.881  0.00  0.00    +0.155 HD
BRANCH  14  15
ATOM     15  C   UNL     1       5.621 -31.258  10.014  0.00  0.00    +0.037 A 
ATOM     16  C   UNL     1       5.568 -32.587   9.399  0.00  0.00    +0.013 A 
ATOM     17  C   UNL     1       6.646 -33.521   9.602  0.00  0.00    +0.005 A 
ATOM     18  C   UNL     1       7.788 -33.129  10.424  0.00  0.00    -0.033 A 
ATOM     28  C   UNL     1       7.818 -31.803  11.017  0.00  0.00    +0.005 A 
ATOM     29  C   UNL     1       6.763 -30.884  10.821  0.00  0.00    +0.013 A 
BRANCH  18  19
ATOM     19  C   UNL     1       8.974 -34.070  10.711  0.00  0.00    +0.119 C 
BRANCH  19  20
ATOM     20  N   UNL     1       8.790 -35.093  11.784  0.00  0.00    -0.302 NA
ATOM     21  C   UNL     1       8.135 -36.371  11.252  0.00  0.00    +0.066 C 
ATOM     22  C   UNL     1       7.971 -37.439  12.382  0.00  0.00    -0.064 C 
ATOM     23  N   UNL     1       7.148 -36.845  13.526  0.00  0.00    +0.379 N 
ATOM     24  C   UNL     1       6.943 -37.865  14.564  0.00  0.00    -0.096 C 
ATOM     25  H   UNL     1       6.147 -36.573  13.116  0.00  0.00    -0.082 HD
ATOM     26  C   UNL     1       7.790 -35.572  14.059  0.00  0.00    -0.064 C 
ATOM     27  C   UNL     1       7.976 -34.529  12.922  0.00  0.00    +0.066 C 
ENDBRANCH  19  20
ENDBRANCH  18  19
ENDBRANCH  14  15
ENDBRANCH  12  13
TORSDOF 6
ENDMDL
MODEL 2
REMARK VINA RESULT:     -10.0      3.589      5.206
REMARK  Name = C:\Users\Docking\Desktop\test protocol\1iep_ligandH.pdb
REMARK  8 active torsions:
REMARK  status: ('A' for Active; 'I' for Inactive)
REMARK    1  A    between atoms: _5  and  _11
REMARK    2  A    between atoms: _19  and  _21
REMARK    3  A    between atoms: _22  and  _66
REMARK    4  A    between atoms: _27  and  _30
REMARK    5  A    between atoms: _32  and  _33
REMARK    6  A    between atoms: _38  and  _43
REMARK    7  A    between atoms: _43  and  _46
REMARK    8  A    between atoms: _53  and  _55
REMARK                            x       y       z     vdW  Elec       q    Type
REMARK                         _______ _______ _______ _____ _____    ______ ____
ROOT
ATOM     10  C   UNL     1      -0.967 -28.322  13.463  0.00  0.00    +0.038 A 
ATOM     11  C   UNL     1       0.186 -29.139  13.586  0.00  0.00    +0.047 A 
ATOM     12  C   UNL     1       0.113 -30.458  14.194  0.00  0.00    +0.035 A 
ATOM     32  C   UNL     1      -1.152 -30.916  14.664  0.00  0.00    +0.024 A 
ATOM     33  C   UNL     1      -2.335 -30.099  14.548  0.00  0.00    +0.007 A 
ATOM     34  C   UNL     1      -2.268 -28.796  13.951  0.00  0.00    -0.029 A 
ATOM     35  C   UNL     1      -3.566 -27.961  13.859  0.00  0.00    +0.045 C 
ENDROOT
BRANCH  10   9
ATOM      4  C   UNL     1       0.079 -23.642  13.652  0.00  0.00    +0.077 A 
ATOM      5  C   UNL     1       0.370 -23.703  15.055  0.00  0.00    +0.048 A 
ATOM      6  C   UNL     1       0.232 -24.957  15.692  0.00  0.00    +0.116 A 
ATOM      7  N   UNL     1      -0.169 -26.060  14.970  0.00  0.00    -0.223 NA
ATOM      8  C   UNL     1      -0.443 -25.966  13.618  0.00  0.00    +0.220 A 
ATOM      9  N   UNL     1      -0.839 -27.064  12.870  0.00  0.00    -0.283 N 
ATOM     36  H   UNL     1      -1.040 -26.952  11.877  0.00  0.00    +0.155 HD
ATOM     37  N   UNL     1      -0.320 -24.780  12.987  0.00  0.00    -0.214 NA
BRANCH   4   3
ATOM      1  C   UNL     1       0.606 -19.916  12.582  0.00  0.00    +0.020 A 
ATOM      2  C   UNL     1       0.519 -21.095  13.414  0.00  0.00    +0.013 A 
ATOM      3  C   UNL     1       0.183 -22.390  12.837  0.00  0.00    +0.019 A 
ATOM     38  C   UNL     1      -0.061 -22.460  11.404  0.00  0.00    +0.120 A 
ATOM     39  N   UNL     1       0.029 -21.308  10.629  0.00  0.00    -0.263 NA
ATOM     40  C   UNL     1       0.350 -20.055  11.173  0.00  0.00    +0.111 A 
ENDBRANCH   4   3
ENDBRANCH  10   9
BRANCH  12  13
ATOM     13  N   UNL     1       1.252 -31.328  14.353  0.00  0.00    -0.281 N 
ATOM     14  C   UNL     1       1.628 -32.394  13.552  0.00  0.00    +0.248 C 
ATOM     30  O   UNL     1       0.919 -32.896  12.693  0.00  0.00    -0.270 OA
ATOM     31  H   UNL     1       1.854 -31.135  15.154  0.00  0.00    +0.155 HD
BRANCH  14  15
ATOM     15  C   UNL     1       2.982 -32.998  13.743  0.00  0.00    +0.037 A 
ATOM     16  C   UNL     1       4.198 -32.190  13.622  0.00  0.00    +0.013 A 
ATOM     17  C   UNL     1       5.492 -32.801  13.794  0.00  0.00    +0.005 A 
ATOM     18  C   UNL     1       5.576 -34.229  14.091  0.00  0.00    -0.033 A 
ATOM     28  C   UNL     1       4.353 -35.006  14.211  0.00  0.00    +0.005 A 
ATOM     29  C   UNL     1       3.083 -34.410  14.042  0.00  0.00    +0.013 A 
BRANCH  18  19
ATOM     19  C   UNL     1       6.915 -34.970  14.269  0.00  0.00    +0.119 C 
BRANCH  19  20
ATOM     20  N   UNL     1       7.649 -35.364  13.030  0.00  0.00    -0.302 NA
ATOM     21  C   UNL     1       8.324 -34.166  12.356  0.00  0.00    +0.066 C 
ATOM     22  C   UNL     1       9.106 -34.601  11.074  0.00  0.00    -0.064 C 
ATOM     23  N   UNL     1       8.146 -35.296  10.106  0.00  0.00    +0.379 N 
ATOM     24  C   UNL     1       8.866 -35.654   8.875  0.00  0.00    -0.096 C 
ATOM     25  H   UNL     1       7.352 -34.563   9.833  0.00  0.00    -0.082 HD
ATOM     26  C   UNL     1       7.468 -36.487  10.769  0.00  0.00    -0.064 C 
ATOM     27  C   UNL     1       6.719 -36.049  12.058  0.00  0.00    +0.066 C 
ENDBRANCH  19  20
ENDBRANCH  18  19
ENDBRANCH  14  15
ENDBRANCH  12  13
TORSDOF 6
ENDMDL
MODEL 3
REMARK VINA RESULT:      -9.3      4.522     12.130
REMARK  Name = C:\Users\Docking\Desktop\test protocol\1iep_ligandH.pdb
REMARK  8 active torsions:
REMARK  status: ('A' for Active; 'I' for Inactive)
REMARK    1  A    between atoms: _5  and  _11
REMARK    2  A    between atoms: _19  and  _21
REMARK    3  A    between atoms: _22  and  _66
REMARK    4  A    between atoms: _27  and  _30
REMARK    5  A    between atoms: _32  and  _33
REMARK    6  A    between atoms: _38  and  _43
REMARK    7  A    between atoms: _43  and  _46
REMARK    8  A    between atoms: _53  and  _55
REMARK                            x       y       z     vdW  Elec       q    Type
REMARK                         _______ _______ _______ _____ _____    ______ ____
ROOT
ATOM     10  C   UNL     1       1.409 -31.601  11.936  0.00  0.00    +0.038 A 
ATOM     11  C   UNL     1       1.304 -30.198  12.120  0.00  0.00    +0.047 A 
ATOM     12  C   UNL     1       0.074 -29.593  12.606  0.00  0.00    +0.035 A 
ATOM     32  C   UNL     1      -1.030 -30.447  12.898  0.00  0.00    +0.024 A 
ATOM     33  C   UNL     1      -0.941 -31.874  12.716  0.00  0.00    +0.007 A 
ATOM     34  C   UNL     1       0.269 -32.477  12.234  0.00  0.00    -0.029 A 
ATOM     35  C   UNL     1       0.306 -34.012  12.051  0.00  0.00    +0.045 C 
ENDROOT
BRANCH  10   9
ATOM      4  C   UNL     1       5.786 -33.439  12.643  0.00  0.00    +0.077 A 
ATOM      5  C   UNL     1       5.673 -33.313  14.067  0.00  0.00    +0.048 A 
ATOM      6  C   UNL     1       4.476 -32.763  14.578  0.00  0.00    +0.116 A 
ATOM      7  N   UNL     1       3.472 -32.373  13.718  0.00  0.00    -0.223 NA
ATOM      8  C   UNL     1       3.613 -32.507  12.349  0.00  0.00    +0.220 A 
ATOM      9  N   UNL     1       2.614 -32.128  11.466  0.00  0.00    -0.283 N 
ATOM     36  H   UNL     1       2.760 -32.236  10.463  0.00  0.00    +0.155 HD
ATOM     37  N   UNL     1       4.748 -33.027  11.837  0.00  0.00    -0.214 NA
BRANCH   4   3
ATOM      1  C   UNL     1       9.448 -34.009  11.392  0.00  0.00    +0.020 A 
ATOM      2  C   UNL     1       8.320 -33.424  12.080  0.00  0.00    +0.013 A 
ATOM      3  C   UNL     1       6.988 -34.003  11.952  0.00  0.00    +0.019 A 
ATOM     38  C   UNL     1       6.831 -35.184  11.116  0.00  0.00    +0.120 A 
ATOM     39  N   UNL     1       7.936 -35.724  10.464  0.00  0.00    -0.263 NA
ATOM     40  C   UNL     1       9.222 -35.174  10.578  0.00  0.00    +0.111 A 
ENDBRANCH   4   3
ENDBRANCH  10   9
BRANCH  12  13
ATOM     13  N   UNL     1      -0.094 -28.175  12.805  0.00  0.00    -0.281 N 
ATOM     14  C   UNL     1      -0.078 -27.475  14.000  0.00  0.00    +0.248 C 
ATOM     30  O   UNL     1      -0.130 -27.993  15.106  0.00  0.00    -0.270 OA
ATOM     31  H   UNL     1      -0.243 -27.620  11.962  0.00  0.00    +0.155 HD
BRANCH  14  15
ATOM     15  C   UNL     1      -0.009 -25.982  13.962  0.00  0.00    +0.037 A 
ATOM     16  C   UNL     1      -0.278 -25.241  12.727  0.00  0.00    +0.013 A 
ATOM     17  C   UNL     1      -0.188 -23.802  12.713  0.00  0.00    +0.005 A 
ATOM     18  C   UNL     1       0.171 -23.095  13.940  0.00  0.00    -0.033 A 
ATOM     28  C   UNL     1       0.428 -23.855  15.152  0.00  0.00    +0.005 A 
ATOM     29  C   UNL     1       0.342 -25.265  15.169  0.00  0.00    +0.013 A 
BRANCH  18  19
ATOM     19  C   UNL     1       0.312 -21.563  14.012  0.00  0.00    +0.119 C 
BRANCH  19  20
ATOM     20  N   UNL     1      -0.158 -20.777  12.833  0.00  0.00    -0.302 NA
ATOM     21  C   UNL     1       0.775 -19.605  12.514  0.00  0.00    +0.066 C 
ATOM     22  C   UNL     1       0.281 -18.808  11.264  0.00  0.00    -0.064 C 
ATOM     23  N   UNL     1      -1.146 -18.313  11.509  0.00  0.00    +0.379 N 
ATOM     24  C   UNL     1      -1.592 -17.513  10.359  0.00  0.00    -0.096 C 
ATOM     25  H   UNL     1      -1.122 -17.642  12.399  0.00  0.00    -0.082 HD
ATOM     26  C   UNL     1      -2.080 -19.471  11.829  0.00  0.00    -0.064 C 
ATOM     27  C   UNL     1      -1.564 -20.275  13.055  0.00  0.00    +0.066 C 
ENDBRANCH  19  20
ENDBRANCH  18  19
ENDBRANCH  14  15
ENDBRANCH  12  13
TORSDOF 6
ENDMDL
MODEL 4
REMARK VINA RESULT:      -9.3      4.405     12.423
REMARK  Name = C:\Users\Docking\Desktop\test protocol\1iep_ligandH.pdb
REMARK  8 active torsions:
REMARK  status: ('A' for Active; 'I' for Inactive)
REMARK    1  A    between atoms: _5  and  _11
REMARK    2  A    between atoms: _19  and  _21
REMARK    3  A    between atoms: _22  and  _66
REMARK    4  A    between atoms: _27  and  _30
REMARK    5  A    between atoms: _32  and  _33
REMARK    6  A    between atoms: _38  and  _43
REMARK    7  A    between atoms: _43  and  _46
REMARK    8  A    between atoms: _53  and  _55
REMARK                            x       y       z     vdW  Elec       q    Type
REMARK                         _______ _______ _______ _____ _____    ______ ____
ROOT
ATOM     10  C   UNL     1       1.205 -31.121  11.911  0.00  0.00    +0.038 A 
ATOM     11  C   UNL     1       1.115 -29.713  12.058  0.00  0.00    +0.047 A 
ATOM     12  C   UNL     1      -0.076 -29.090  12.614  0.00  0.00    +0.035 A 
ATOM     32  C   UNL     1      -1.155 -29.931  13.013  0.00  0.00    +0.024 A 
ATOM     33  C   UNL     1      -1.081 -31.364  12.869  0.00  0.00    +0.007 A 
ATOM     34  C   UNL     1       0.090 -31.984  12.319  0.00  0.00    -0.029 A 
ATOM     35  C   UNL     1       0.113 -33.524  12.182  0.00  0.00    +0.045 C 
ENDROOT
BRANCH  10   9
ATOM      4  C   UNL     1       5.529 -33.156  12.362  0.00  0.00    +0.077 A 
ATOM      5  C   UNL     1       5.469 -33.105  13.795  0.00  0.00    +0.048 A 
ATOM      6  C   UNL     1       4.311 -32.541  14.376  0.00  0.00    +0.116 A 
ATOM      7  N   UNL     1       3.295 -32.066  13.574  0.00  0.00    -0.223 NA
ATOM      8  C   UNL     1       3.386 -32.130  12.196  0.00  0.00    +0.220 A 
ATOM      9  N   UNL     1       2.373 -31.666  11.371  0.00  0.00    -0.283 N 
ATOM     36  H   UNL     1       2.481 -31.724  10.359  0.00  0.00    +0.155 HD
ATOM     37  N   UNL     1       4.481 -32.663  11.617  0.00  0.00    -0.214 NA
BRANCH   4   3
ATOM      1  C   UNL     1       9.108 -34.393  11.380  0.00  0.00    +0.020 A 
ATOM      2  C   UNL     1       8.026 -33.834  12.159  0.00  0.00    +0.013 A 
ATOM      3  C   UNL     1       6.684 -33.727  11.600  0.00  0.00    +0.019 A 
ATOM     38  C   UNL     1       6.468 -34.199  10.241  0.00  0.00    +0.120 A 
ATOM     39  N   UNL     1       7.529 -34.731   9.515  0.00  0.00    -0.263 NA
ATOM     40  C   UNL     1       8.825 -34.838  10.041  0.00  0.00    +0.111 A 
ENDBRANCH   4   3
ENDBRANCH  10   9
BRANCH  12  13
ATOM     13  N   UNL     1      -0.228 -27.665  12.781  0.00  0.00    -0.281 N 
ATOM     14  C   UNL     1       0.010 -26.910  13.917  0.00  0.00    +0.248 C 
ATOM     30  O   UNL     1       0.188 -27.377  15.033  0.00  0.00    -0.270 OA
ATOM     31  H   UNL     1      -0.551 -27.152  11.961  0.00  0.00    +0.155 HD
BRANCH  14  15
ATOM     15  C   UNL     1       0.042 -25.421  13.801  0.00  0.00    +0.037 A 
ATOM     16  C   UNL     1       0.428 -24.578  14.936  0.00  0.00    +0.013 A 
ATOM     17  C   UNL     1       0.434 -23.143  14.802  0.00  0.00    +0.005 A 
ATOM     18  C   UNL     1       0.053 -22.541  13.526  0.00  0.00    -0.033 A 
ATOM     28  C   UNL     1      -0.321 -23.401  12.415  0.00  0.00    +0.005 A 
ATOM     29  C   UNL     1      -0.328 -24.808  12.543  0.00  0.00    +0.013 A 
BRANCH  18  19
ATOM     19  C   UNL     1       0.010 -21.018  13.299  0.00  0.00    +0.119 C 
BRANCH  19  20
ATOM     20  N   UNL     1      -1.186 -20.284  13.810  0.00  0.00    -0.302 NA
ATOM     21  C   UNL     1      -2.411 -20.487  12.914  0.00  0.00    +0.066 C 
ATOM     22  C   UNL     1      -3.658 -19.731  13.476  0.00  0.00    -0.064 C 
ATOM     23  N   UNL     1      -3.330 -18.243  13.614  0.00  0.00    +0.379 N 
ATOM     24  C   UNL     1      -4.519 -17.520  14.087  0.00  0.00    -0.096 C 
ATOM     25  H   UNL     1      -3.080 -17.857  12.599  0.00  0.00    -0.082 HD
ATOM     26  C   UNL     1      -2.111 -18.033  14.502  0.00  0.00    -0.064 C 
ATOM     27  C   UNL     1      -0.885 -18.812  13.951  0.00  0.00    +0.066 C 
ENDBRANCH  19  20
ENDBRANCH  18  19
ENDBRANCH  14  15
ENDBRANCH  12  13
TORSDOF 6
ENDMDL
MODEL 5
REMARK VINA RESULT:      -9.3      4.425     12.058
REMARK  Name = C:\Users\Docking\Desktop\test protocol\1iep_ligandH.pdb
REMARK  8 active torsions:
REMARK  status: ('A' for Active; 'I' for Inactive)
REMARK    1  A    between atoms: _5  and  _11
REMARK    2  A    between atoms: _19  and  _21
REMARK    3  A    between atoms: _22  and  _66
REMARK    4  A    between atoms: _27  and  _30
REMARK    5  A    between atoms: _32  and  _33
REMARK    6  A    between atoms: _38  and  _43
REMARK    7  A    between atoms: _43  and  _46
REMARK    8  A    between atoms: _53  and  _55
REMARK                            x       y       z     vdW  Elec       q    Type
REMARK                         _______ _______ _______ _____ _____    ______ ____
ROOT
ATOM     10  C   UNL     1       1.143 -30.503   9.322  0.00  0.00    +0.038 A 
ATOM     11  C   UNL     1       1.089 -29.300  10.072  0.00  0.00    +0.047 A 
ATOM     12  C   UNL     1      -0.042 -28.393   9.958  0.00  0.00    +0.035 A 
ATOM     32  C   UNL     1      -1.102 -28.743   9.073  0.00  0.00    +0.024 A 
ATOM     33  C   UNL     1      -1.064 -29.961   8.303  0.00  0.00    +0.007 A 
ATOM     34  C   UNL     1       0.051 -30.858   8.409  0.00  0.00    -0.029 A 
ATOM     35  C   UNL     1       0.042 -32.147   7.554  0.00  0.00    +0.045 C 
ENDROOT
BRANCH  10   9
ATOM      4  C   UNL     1       3.359 -34.295  11.258  0.00  0.00    +0.077 A 
ATOM      5  C   UNL     1       2.218 -34.626  12.062  0.00  0.00    +0.048 A 
ATOM      6  C   UNL     1       1.084 -33.790  11.954  0.00  0.00    +0.116 A 
ATOM      7  N   UNL     1       1.100 -32.708  11.101  0.00  0.00    -0.223 NA
ATOM      8  C   UNL     1       2.217 -32.416  10.340  0.00  0.00    +0.220 A 
ATOM      9  N   UNL     1       2.253 -31.338   9.470  0.00  0.00    -0.283 N 
ATOM     36  H   UNL     1       3.099 -31.152   8.932  0.00  0.00    +0.155 HD
ATOM     37  N   UNL     1       3.314 -33.198  10.427  0.00  0.00    -0.214 NA
BRANCH   4   3
ATOM      1  C   UNL     1       6.350 -36.558  10.146  0.00  0.00    +0.020 A 
ATOM      2  C   UNL     1       5.113 -35.812  10.092  0.00  0.00    +0.013 A 
ATOM      3  C   UNL     1       4.632 -35.084  11.259  0.00  0.00    +0.019 A 
ATOM     38  C   UNL     1       5.431 -35.130  12.474  0.00  0.00    +0.120 A 
ATOM     39  N   UNL     1       6.617 -35.858  12.497  0.00  0.00    -0.263 NA
ATOM     40  C   UNL     1       7.089 -36.564  11.380  0.00  0.00    +0.111 A 
ENDBRANCH   4   3
ENDBRANCH  10   9
BRANCH  12  13
ATOM     13  N   UNL     1      -0.148 -27.154  10.689  0.00  0.00    -0.281 N 
ATOM     14  C   UNL     1      -0.435 -26.979  12.032  0.00  0.00    +0.248 C 
ATOM     30  O   UNL     1      -0.856 -27.858  12.769  0.00  0.00    -0.270 OA
ATOM     31  H   UNL     1       0.008 -26.302  10.149  0.00  0.00    +0.155 HD
BRANCH  14  15
ATOM     15  C   UNL     1      -0.238 -25.629  12.643  0.00  0.00    +0.037 A 
ATOM     16  C   UNL     1       0.141 -25.479  14.050  0.00  0.00    +0.013 A 
ATOM     17  C   UNL     1       0.307 -24.165  14.619  0.00  0.00    +0.005 A 
ATOM     18  C   UNL     1       0.095 -22.989  13.778  0.00  0.00    -0.033 A 
ATOM     28  C   UNL     1      -0.276 -23.167  12.384  0.00  0.00    +0.005 A 
ATOM     29  C   UNL     1      -0.440 -24.453  11.824  0.00  0.00    +0.013 A 
BRANCH  18  19
ATOM     19  C   UNL     1       0.230 -21.549  14.306  0.00  0.00    +0.119 C 
BRANCH  19  20
ATOM     20  N   UNL     1      -0.477 -20.474  13.548  0.00  0.00    -0.302 NA
ATOM     21  C   UNL     1       0.498 -19.572  12.785  0.00  0.00    +0.066 C 
ATOM     22  C   UNL     1      -0.260 -18.467  11.980  0.00  0.00    -0.064 C 
ATOM     23  N   UNL     1      -1.123 -17.644  12.937  0.00  0.00    +0.379 N 
ATOM     24  C   UNL     1      -1.792 -16.567  12.192  0.00  0.00    -0.096 C 
ATOM     25  H   UNL     1      -0.443 -17.168  13.681  0.00  0.00    -0.082 HD
ATOM     26  C   UNL     1      -2.094 -18.533  13.701  0.00  0.00    -0.064 C 
ATOM     27  C   UNL     1      -1.333 -19.646  14.474  0.00  0.00    +0.066 C 
ENDBRANCH  19  20
ENDBRANCH  18  19
ENDBRANCH  14  15
ENDBRANCH  12  13
TORSDOF 6
ENDMDL
