MODEL 1
REMARK VINA RESULT:     -10.0      0.000      0.000
REMARK  Name = C:\Users\Docking\Desktop\test protocol\1iep_ligandH.pdb
REMARK  8 active torsions:
REMARK  status: ('A' for Active; 'I' for Inactive)
REMARK    1  A    between atoms: _5  and  _11
REMARK    2  A    between atoms: _19  and  _21
REMARK    3  A    between atoms: _22  and  _66
REMARK    4  A    between atoms: _27  and  _30
REMARK    5  A    between atoms: _32  and  _33
REMARK    6  A    between atoms: _38  and  _43
REMARK    7  A    between atoms: _43  and  _46
REMARK    8  A    between atoms: _53  and  _55
REMARK                            x       y       z     vdW  Elec       q    Type
REMARK                         _______ _______ _______ _____ _____    ______ ____
ROOT
ATOM     10  C   UNL     1      -0.693 -28.777  13.168  0.00  0.00    +0.038 A 
ATOM     11  C   UNL     1       0.466 -29.580  13.323  0.00  0.00    +0.047 A 
ATOM     12  C   UNL     1       0.399 -30.881  13.969  0.00  0.00    +0.035 A 
ATOM     32  C   UNL     1      -0.866 -31.336  14.443  0.00  0.00    +0.024 A 
ATOM     33  C   UNL     1      -2.054 -30.533  14.294  0.00  0.00    +0.007 A 
ATOM     34  C   UNL     1      -1.993 -29.247  13.660  0.00  0.00    -0.029 A 
ATOM     35  C   UNL     1      -3.298 -28.426  13.535  0.00  0.00    +0.045 C 
ENDROOT
BRANCH  10   9
ATOM      4  C   UNL     1       0.265 -24.075  13.238  0.00  0.00    +0.077 A 
ATOM      5  C   UNL     1       0.518 -24.087  14.650  0.00  0.00    +0.048 A 
ATOM      6  C   UNL     1       0.384 -25.323  15.322  0.00  0.00    +0.116 A 
ATOM      7  N   UNL     1       0.024 -26.455  14.624  0.00  0.00    -0.223 NA
ATOM      8  C   UNL     1      -0.215 -26.408  13.263  0.00  0.00    +0.220 A 
ATOM      9  N   UNL     1      -0.571 -27.536  12.540  0.00  0.00    -0.283 N 
ATOM     36  H   UNL     1      -0.746 -27.458  11.538  0.00  0.00    +0.155 HD
ATOM     37  N   UNL     1      -0.095 -25.240  12.599  0.00  0.00    -0.214 NA
BRANCH   4   3
ATOM      1  C   UNL     1       0.729 -20.370  12.070  0.00  0.00    +0.020 A 
ATOM      2  C   UNL     1       0.638 -21.524  12.936  0.00  0.00    +0.013 A 
ATOM      3  C   UNL     1       0.368 -22.847  12.387  0.00  0.00    +0.019 A 
ATOM     38  C   UNL     1       0.195 -22.970  10.948  0.00  0.00    +0.120 A 
ATOM     39  N   UNL     1       0.286 -21.841  10.139  0.00  0.00    -0.263 NA
ATOM     40  C   UNL     1       0.544 -20.563  10.656  0.00  0.00    +0.111 A 
ENDBRANCH   4   3
ENDBRANCH  10   9
BRANCH  12  13
ATOM     13  N   UNL     1       1.544 -31.737  14.161  0.00  0.00    -0.281 N 
ATOM     14  C   UNL     1       1.917 -32.842  13.414  0.00  0.00    +0.248 C 
ATOM     30  O   UNL     1       1.202 -33.392  12.590  0.00  0.00    -0.270 OA
ATOM     31  H   UNL     1       2.153 -31.499  14.944  0.00  0.00    +0.155 HD
BRANCH  14  15
ATOM     15  C   UNL     1       3.276 -33.429  13.622  0.00  0.00    +0.037 A 
ATOM     16  C   UNL     1       4.472 -32.584  13.649  0.00  0.00    +0.013 A 
ATOM     17  C   UNL     1       5.773 -33.178  13.834  0.00  0.00    +0.005 A 
ATOM     18  C   UNL     1       5.882 -34.626  13.995  0.00  0.00    -0.033 A 
ATOM     28  C   UNL     1       4.678 -35.440  13.968  0.00  0.00    +0.005 A 
ATOM     29  C   UNL     1       3.402 -34.861  13.786  0.00  0.00    +0.013 A 
BRANCH  18  19
ATOM     19  C   UNL     1       7.231 -35.348  14.176  0.00  0.00    +0.119 C 
BRANCH  19  20
ATOM     20  N   UNL     1       7.987 -35.705  12.939  0.00  0.00    -0.302 NA
ATOM     21  C   UNL     1       8.435 -34.464  12.161  0.00  0.00    +0.066 C 
ATOM     22  C   UNL     1       9.244 -34.855  10.882  0.00  0.00    -0.064 C 
ATOM     23  N   UNL     1       8.390 -35.767  10.000  0.00  0.00    +0.379 N 
ATOM     24  C   UNL     1       9.126 -36.090   8.769  0.00  0.00    -0.096 C 
ATOM     25  H   UNL     1       7.477 -35.198   9.709  0.00  0.00    -0.082 HD
ATOM     26  C   UNL     1       7.938 -37.002  10.767  0.00  0.00    -0.064 C 
ATOM     27  C   UNL     1       7.160 -36.602  12.052  0.00  0.00    +0.066 C 
ENDBRANCH  19  20
ENDBRANCH  18  19
ENDBRANCH  14  15
ENDBRANCH  12  13
TORSDOF 6
ENDMDL
MODEL 2
REMARK VINA RESULT:      -9.5      2.491     12.484
REMARK  Name = C:\Users\Docking\Desktop\test protocol\1iep_ligandH.pdb
REMARK  8 active torsions:
REMARK  status: ('A' for Active; 'I' for Inactive)
REMARK    1  A    between atoms: _5  and  _11
REMARK    2  A    between atoms: _19  and  _21
REMARK    3  A    between atoms: _22  and  _66
REMARK    4  A    between atoms: _27  and  _30
REMARK    5  A    between atoms: _32  and  _33
REMARK    6  A    between atoms: _38  and  _43
REMARK    7  A    between atoms: _43  and  _46
REMARK    8  A    between atoms: _53  and  _55
REMARK                            x       y       z     vdW  Elec       q    Type
REMARK                         _______ _______ _______ _____ _____    ______ ____
ROOT
ATOM     10  C   UNL     1       1.685 -31.924  11.978  0.00  0.00    +0.038 A 
ATOM     11  C   UNL     1       1.566 -30.515  12.089  0.00  0.00    +0.047 A 
ATOM     12  C   UNL     1       0.379 -29.903  12.666  0.00  0.00    +0.035 A 
ATOM     32  C   UNL     1      -0.667 -30.757  13.122  0.00  0.00    +0.024 A 
ATOM     33  C   UNL     1      -0.563 -32.191  13.016  0.00  0.00    +0.007 A 
ATOM     34  C   UNL     1       0.604 -32.800  12.445  0.00  0.00    -0.029 A 
ATOM     35  C   UNL     1       0.658 -34.343  12.350  0.00  0.00    +0.045 C 
ENDROOT
BRANCH  10   9
ATOM      4  C   UNL     1       6.115 -33.734  12.337  0.00  0.00    +0.077 A 
ATOM      5  C   UNL     1       6.127 -33.579  13.763  0.00  0.00    +0.048 A 
ATOM      6  C   UNL     1       4.976 -33.023  14.365  0.00  0.00    +0.116 A 
ATOM      7  N   UNL     1       3.899 -32.653  13.588  0.00  0.00    -0.223 NA
ATOM      8  C   UNL     1       3.921 -32.815  12.215  0.00  0.00    +0.220 A 
ATOM      9  N   UNL     1       2.847 -32.458  11.415  0.00  0.00    -0.283 N 
ATOM     36  H   UNL     1       2.905 -32.586  10.405  0.00  0.00    +0.155 HD
ATOM     37  N   UNL     1       5.009 -33.343  11.616  0.00  0.00    -0.214 NA
BRANCH   4   3
ATOM      1  C   UNL     1       9.712 -34.555  11.036  0.00  0.00    +0.020 A 
ATOM      2  C   UNL     1       8.648 -33.971  11.820  0.00  0.00    +0.013 A 
ATOM      3  C   UNL     1       7.255 -34.310  11.556  0.00  0.00    +0.019 A 
ATOM     38  C   UNL     1       6.971 -35.252  10.484  0.00  0.00    +0.120 A 
ATOM     39  N   UNL     1       8.016 -35.798   9.745  0.00  0.00    -0.263 NA
ATOM     40  C   UNL     1       9.360 -35.478   9.989  0.00  0.00    +0.111 A 
ENDBRANCH   4   3
ENDBRANCH  10   9
BRANCH  12  13
ATOM     13  N   UNL     1       0.199 -28.479  12.798  0.00  0.00    -0.281 N 
ATOM     14  C   UNL     1       0.259 -27.716  13.952  0.00  0.00    +0.248 C 
ATOM     30  O   UNL     1       0.267 -28.175  15.085  0.00  0.00    -0.270 OA
ATOM     31  H   UNL     1       0.003 -27.971  11.935  0.00  0.00    +0.155 HD
BRANCH  14  15
ATOM     15  C   UNL     1       0.304 -26.227  13.832  0.00  0.00    +0.037 A 
ATOM     16  C   UNL     1       0.608 -25.380  14.988  0.00  0.00    +0.013 A 
ATOM     17  C   UNL     1       0.628 -23.945  14.849  0.00  0.00    +0.005 A 
ATOM     18  C   UNL     1       0.343 -23.348  13.546  0.00  0.00    -0.033 A 
ATOM     28  C   UNL     1       0.048 -24.212  12.415  0.00  0.00    +0.005 A 
ATOM     29  C   UNL     1       0.027 -25.619  12.548  0.00  0.00    +0.013 A 
BRANCH  18  19
ATOM     19  C   UNL     1       0.320 -21.826  13.311  0.00  0.00    +0.119 C 
BRANCH  19  20
ATOM     20  N   UNL     1      -0.927 -21.095  13.683  0.00  0.00    -0.302 NA
ATOM     21  C   UNL     1      -1.845 -20.873  12.478  0.00  0.00    +0.066 C 
ATOM     22  C   UNL     1      -3.155 -20.126  12.890  0.00  0.00    -0.064 C 
ATOM     23  N   UNL     1      -2.794 -18.793  13.548  0.00  0.00    +0.379 N 
ATOM     24  C   UNL     1      -4.024 -18.063  13.884  0.00  0.00    -0.096 C 
ATOM     25  H   UNL     1      -2.234 -18.187  12.798  0.00  0.00    -0.082 HD
ATOM     26  C   UNL     1      -1.879 -19.004  14.746  0.00  0.00    -0.064 C 
ATOM     27  C   UNL     1      -0.593 -19.773  14.331  0.00  0.00    +0.066 C 
ENDBRANCH  19  20
ENDBRANCH  18  19
ENDBRANCH  14  15
ENDBRANCH  12  13
TORSDOF 6
ENDMDL
MODEL 3
REMARK VINA RESULT:      -9.3      2.191     12.520
REMARK  Name = C:\Users\Docking\Desktop\test protocol\1iep_ligandH.pdb
REMARK  8 active torsions:
REMARK  status: ('A' for Active; 'I' for Inactive)
REMARK    1  A    between atoms: _5  and  _11
REMARK    2  A    between atoms: _19  and  _21
REMARK    3  A    between atoms: _22  and  _66
REMARK    4  A    between atoms: _27  and  _30
REMARK    5  A    between atoms: _32  and  _33
REMARK    6  A    between atoms: _38  and  _43
REMARK    7  A    between atoms: _43  and  _46
REMARK    8  A    between atoms: _53  and  _55
REMARK                            x       y       z     vdW  Elec       q    Type
REMARK                         _______ _______ _______ _____ _____    ______ ____
ROOT
ATOM     10  C   UNL     1       2.036 -32.390  11.847  0.00  0.00    +0.038 A 
ATOM     11  C   UNL     1       2.121 -30.983  11.999  0.00  0.00    +0.047 A 
ATOM     12  C   UNL     1       1.021 -30.219  12.567  0.00  0.00    +0.035 A 
ATOM     32  C   UNL     1      -0.150 -30.922  12.973  0.00  0.00    +0.024 A 
ATOM     33  C   UNL     1      -0.255 -32.352  12.825  0.00  0.00    +0.007 A 
ATOM     34  C   UNL     1       0.826 -33.110  12.263  0.00  0.00    -0.029 A 
ATOM     35  C   UNL     1       0.657 -34.641  12.122  0.00  0.00    +0.045 C 
ENDROOT
BRANCH  10   9
ATOM      4  C   UNL     1       6.289 -34.582  12.221  0.00  0.00    +0.077 A 
ATOM      5  C   UNL     1       6.367 -34.321  13.630  0.00  0.00    +0.048 A 
ATOM      6  C   UNL     1       5.295 -33.613  14.218  0.00  0.00    +0.116 A 
ATOM      7  N   UNL     1       4.230 -33.203  13.446  0.00  0.00    -0.223 NA
ATOM      8  C   UNL     1       4.187 -33.470  12.090  0.00  0.00    +0.220 A 
ATOM      9  N   UNL     1       3.122 -33.073  11.296  0.00  0.00    -0.283 N 
ATOM     36  H   UNL     1       3.132 -33.283  10.298  0.00  0.00    +0.155 HD
ATOM     37  N   UNL     1       5.199 -34.143  11.504  0.00  0.00    -0.214 NA
BRANCH   4   3
ATOM      1  C   UNL     1       9.556 -35.451  10.253  0.00  0.00    +0.020 A 
ATOM      2  C   UNL     1       8.571 -34.692  10.988  0.00  0.00    +0.013 A 
ATOM      3  C   UNL     1       7.342 -35.322  11.456  0.00  0.00    +0.019 A 
ATOM     38  C   UNL     1       7.140 -36.732  11.162  0.00  0.00    +0.120 A 
ATOM     39  N   UNL     1       8.106 -37.438  10.451  0.00  0.00    -0.263 NA
ATOM     40  C   UNL     1       9.291 -36.842   9.994  0.00  0.00    +0.111 A 
ENDBRANCH   4   3
ENDBRANCH  10   9
BRANCH  12  13
ATOM     13  N   UNL     1       1.048 -28.787  12.738  0.00  0.00    -0.281 N 
ATOM     14  C   UNL     1       0.176 -27.850  12.207  0.00  0.00    +0.248 C 
ATOM     30  O   UNL     1      -0.637 -28.084  11.326  0.00  0.00    -0.270 OA
ATOM     31  H   UNL     1       1.800 -28.420  13.321  0.00  0.00    +0.155 HD
BRANCH  14  15
ATOM     15  C   UNL     1       0.225 -26.447  12.720  0.00  0.00    +0.037 A 
ATOM     16  C   UNL     1       0.495 -26.163  14.131  0.00  0.00    +0.013 A 
ATOM     17  C   UNL     1       0.520 -24.801  14.603  0.00  0.00    +0.005 A 
ATOM     18  C   UNL     1       0.276 -23.712  13.660  0.00  0.00    -0.033 A 
ATOM     28  C   UNL     1       0.016 -24.022  12.264  0.00  0.00    +0.005 A 
ATOM     29  C   UNL     1      -0.010 -25.356  11.798  0.00  0.00    +0.013 A 
BRANCH  18  19
ATOM     19  C   UNL     1       0.262 -22.230  14.079  0.00  0.00    +0.119 C 
BRANCH  19  20
ATOM     20  N   UNL     1      -0.304 -21.249  13.105  0.00  0.00    -0.302 NA
ATOM     21  C   UNL     1       0.791 -20.510  12.331  0.00  0.00    +0.066 C 
ATOM     22  C   UNL     1       0.181 -19.505  11.301  0.00  0.00    -0.064 C 
ATOM     23  N   UNL     1      -0.725 -18.515  12.035  0.00  0.00    +0.379 N 
ATOM     24  C   UNL     1      -1.255 -17.532  11.078  0.00  0.00    -0.096 C 
ATOM     25  H   UNL     1      -0.096 -17.964  12.772  0.00  0.00    -0.082 HD
ATOM     26  C   UNL     1      -1.816 -19.241  12.810  0.00  0.00    -0.064 C 
ATOM     27  C   UNL     1      -1.199 -20.259  13.809  0.00  0.00    +0.066 C 
ENDBRANCH  19  20
ENDBRANCH  18  19
ENDBRANCH  14  15
ENDBRANCH  12  13
TORSDOF 6
ENDMDL
MODEL 4
REMARK VINA RESULT:      -9.1      1.317      1.663
REMARK  Name = C:\Users\Docking\Desktop\test protocol\1iep_ligandH.pdb
REMARK  8 active torsions:
REMARK  status: ('A' for Active; 'I' for Inactive)
REMARK    1  A    between atoms: _5  and  _11
REMARK    2  A    between atoms: _19  and  _21
REMARK    3  A    between atoms: _22  and  _66
REMARK    4  A    between atoms: _27  and  _30
REMARK    5  A    between atoms: _32  and  _33
REMARK    6  A    between atoms: _38  and  _43
REMARK    7  A    between atoms: _43  and  _46
REMARK    8  A    between atoms: _53  and  _55
REMARK                            x       y       z     vdW  Elec       q    Type
REMARK                         _______ _______ _______ _____ _____    ______ ____
ROOT
ATOM     10  C   UNL     1      -1.149 -28.632  12.863  0.00  0.00    +0.038 A 
ATOM     11  C   UNL     1      -0.033 -29.508  12.849  0.00  0.00    +0.047 A 
ATOM     12  C   UNL     1      -0.121 -30.846  13.412  0.00  0.00    +0.035 A 
ATOM     32  C   UNL     1      -1.361 -31.261  13.978  0.00  0.00    +0.024 A 
ATOM     33  C   UNL     1      -2.505 -30.383  14.002  0.00  0.00    +0.007 A 
ATOM     34  C   UNL     1      -2.424 -29.061  13.451  0.00  0.00    -0.029 A 
ATOM     35  C   UNL     1      -3.679 -28.160  13.509  0.00  0.00    +0.045 C 
ENDROOT
BRANCH  10   9
ATOM      4  C   UNL     1       0.189 -24.029  13.118  0.00  0.00    +0.077 A 
ATOM      5  C   UNL     1       0.622 -24.169  14.479  0.00  0.00    +0.048 A 
ATOM      6  C   UNL     1       0.476 -25.440  15.079  0.00  0.00    +0.116 A 
ATOM      7  N   UNL     1      -0.063 -26.486  14.362  0.00  0.00    -0.223 NA
ATOM      8  C   UNL     1      -0.472 -26.317  13.052  0.00  0.00    +0.220 A 
ATOM      9  N   UNL     1      -1.009 -27.357  12.309  0.00  0.00    -0.283 N 
ATOM     36  H   UNL     1      -1.305 -27.190  11.348  0.00  0.00    +0.155 HD
ATOM     37  N   UNL     1      -0.344 -25.113  12.456  0.00  0.00    -0.214 NA
BRANCH   4   3
ATOM      1  C   UNL     1       0.671 -20.264  12.175  0.00  0.00    +0.020 A 
ATOM      2  C   UNL     1       0.594 -21.470  12.967  0.00  0.00    +0.013 A 
ATOM      3  C   UNL     1       0.281 -22.750  12.345  0.00  0.00    +0.019 A 
ATOM     38  C   UNL     1       0.051 -22.776  10.908  0.00  0.00    +0.120 A 
ATOM     39  N   UNL     1       0.130 -21.599  10.172  0.00  0.00    -0.263 NA
ATOM     40  C   UNL     1       0.429 -20.360  10.760  0.00  0.00    +0.111 A 
ENDBRANCH   4   3
ENDBRANCH  10   9
BRANCH  12  13
ATOM     13  N   UNL     1       0.980 -31.777  13.433  0.00  0.00    -0.281 N 
ATOM     14  C   UNL     1       1.063 -33.013  12.814  0.00  0.00    +0.248 C 
ATOM     30  O   UNL     1       0.114 -33.603  12.319  0.00  0.00    -0.270 OA
ATOM     31  H   UNL     1       1.798 -31.489  13.971  0.00  0.00    +0.155 HD
BRANCH  14  15
ATOM     15  C   UNL     1       2.389 -33.700  12.746  0.00  0.00    +0.037 A 
ATOM     16  C   UNL     1       3.309 -33.690  13.886  0.00  0.00    +0.013 A 
ATOM     17  C   UNL     1       4.589 -34.346  13.789  0.00  0.00    +0.005 A 
ATOM     18  C   UNL     1       4.956 -35.018  12.545  0.00  0.00    -0.033 A 
ATOM     28  C   UNL     1       4.022 -35.016  11.431  0.00  0.00    +0.005 A 
ATOM     29  C   UNL     1       2.767 -34.374  11.522  0.00  0.00    +0.013 A 
BRANCH  18  19
ATOM     19  C   UNL     1       6.310 -35.725  12.344  0.00  0.00    +0.119 C 
BRANCH  19  20
ATOM     20  N   UNL     1       7.437 -34.904  11.811  0.00  0.00    -0.302 NA
ATOM     21  C   UNL     1       7.974 -33.920  12.854  0.00  0.00    +0.066 C 
ATOM     22  C   UNL     1       9.168 -33.085  12.287  0.00  0.00    -0.064 C 
ATOM     23  N   UNL     1       8.717 -32.345  11.027  0.00  0.00    +0.379 N 
ATOM     24  C   UNL     1       9.820 -31.514  10.524  0.00  0.00    -0.096 C 
ATOM     25  H   UNL     1       7.883 -31.663  11.315  0.00  0.00    -0.082 HD
ATOM     26  C   UNL     1       8.179 -33.316   9.985  0.00  0.00    -0.064 C 
ATOM     27  C   UNL     1       7.012 -34.161  10.568  0.00  0.00    +0.066 C 
ENDBRANCH  19  20
ENDBRANCH  18  19
ENDBRANCH  14  15
ENDBRANCH  12  13
TORSDOF 6
ENDMDL
MODEL 5
REMARK VINA RESULT:      -8.8      3.626     12.821
REMARK  Name = C:\Users\Docking\Desktop\test protocol\1iep_ligandH.pdb
REMARK  8 active torsions:
REMARK  status: ('A' for Active; 'I' for Inactive)
REMARK    1  A    between atoms: _5  and  _11
REMARK    2  A    between atoms: _19  and  _21
REMARK    3  A    between atoms: _22  and  _66
REMARK    4  A    between atoms: _27  and  _30
REMARK    5  A    between atoms: _32  and  _33
REMARK    6  A    between atoms: _38  and  _43
REMARK    7  A    between atoms: _43  and  _46
REMARK    8  A    between atoms: _53  and  _55
REMARK                            x       y       z     vdW  Elec       q    Type
REMARK                         _______ _______ _______ _____ _____    ______ ____
ROOT
ATOM     10  C   UNL     1       1.326 -30.423   9.416  0.00  0.00    +0.038 A 
ATOM     11  C   UNL     1       1.249 -29.229  10.178  0.00  0.00    +0.047 A 
ATOM     12  C   UNL     1       0.114 -28.328  10.053  0.00  0.00    +0.035 A 
ATOM     32  C   UNL     1      -0.928 -28.677   9.144  0.00  0.00    +0.024 A 
ATOM     33  C   UNL     1      -0.865 -29.886   8.361  0.00  0.00    +0.007 A 
ATOM     34  C   UNL     1       0.254 -30.777   8.479  0.00  0.00    -0.029 A 
ATOM     35  C   UNL     1       0.271 -32.056   7.610  0.00  0.00    +0.045 C 
ENDROOT
BRANCH  10   9
ATOM      4  C   UNL     1       3.461 -34.359  11.146  0.00  0.00    +0.077 A 
ATOM      5  C   UNL     1       2.264 -34.788  11.809  0.00  0.00    +0.048 A 
ATOM      6  C   UNL     1       1.122 -33.964  11.687  0.00  0.00    +0.116 A 
ATOM      7  N   UNL     1       1.185 -32.800  10.952  0.00  0.00    -0.223 NA
ATOM      8  C   UNL     1       2.356 -32.414  10.326  0.00  0.00    +0.220 A 
ATOM      9  N   UNL     1       2.440 -31.251   9.576  0.00  0.00    -0.283 N 
ATOM     36  H   UNL     1       3.324 -30.997   9.136  0.00  0.00    +0.155 HD
ATOM     37  N   UNL     1       3.460 -33.182  10.430  0.00  0.00    -0.214 NA
BRANCH   4   3
ATOM      1  C   UNL     1       6.508 -36.585  10.118  0.00  0.00    +0.020 A 
ATOM      2  C   UNL     1       5.259 -35.863  10.033  0.00  0.00    +0.013 A 
ATOM      3  C   UNL     1       4.748 -35.123  11.179  0.00  0.00    +0.019 A 
ATOM     38  C   UNL     1       5.530 -35.132  12.406  0.00  0.00    +0.120 A 
ATOM     39  N   UNL     1       6.729 -35.837  12.459  0.00  0.00    -0.263 NA
ATOM     40  C   UNL     1       7.230 -36.555  11.362  0.00  0.00    +0.111 A 
ENDBRANCH   4   3
ENDBRANCH  10   9
BRANCH  12  13
ATOM     13  N   UNL     1      -0.015 -27.098  10.794  0.00  0.00    -0.281 N 
ATOM     14  C   UNL     1      -0.070 -26.933  12.168  0.00  0.00    +0.248 C 
ATOM     30  O   UNL     1      -0.231 -27.844  12.967  0.00  0.00    -0.270 OA
ATOM     31  H   UNL     1      -0.073 -26.245  10.237  0.00  0.00    +0.155 HD
BRANCH  14  15
ATOM     15  C   UNL     1       0.059 -25.557  12.736  0.00  0.00    +0.037 A 
ATOM     16  C   UNL     1       0.317 -25.345  14.162  0.00  0.00    +0.013 A 
ATOM     17  C   UNL     1       0.420 -24.006  14.687  0.00  0.00    +0.005 A 
ATOM     18  C   UNL     1       0.267 -22.869  13.784  0.00  0.00    -0.033 A 
ATOM     28  C   UNL     1       0.016 -23.108  12.372  0.00  0.00    +0.005 A 
ATOM     29  C   UNL     1      -0.086 -24.419  11.854  0.00  0.00    +0.013 A 
BRANCH  18  19
ATOM     19  C   UNL     1       0.340 -21.406  14.260  0.00  0.00    +0.119 C 
BRANCH  19  20
ATOM     20  N   UNL     1      -0.858 -20.853  14.960  0.00  0.00    -0.302 NA
ATOM     21  C   UNL     1      -1.574 -19.792  14.120  0.00  0.00    +0.066 C 
ATOM     22  C   UNL     1      -2.838 -19.241  14.857  0.00  0.00    -0.064 C 
ATOM     23  N   UNL     1      -2.425 -18.670  16.215  0.00  0.00    +0.379 N 
ATOM     24  C   UNL     1      -3.602 -18.099  16.886  0.00  0.00    -0.096 C 
ATOM     25  H   UNL     1      -1.706 -17.839  16.027  0.00  0.00    -0.082 HD
ATOM     26  C   UNL     1      -1.709 -19.718  17.055  0.00  0.00    -0.064 C 
ATOM     27  C   UNL     1      -0.472 -20.280  16.301  0.00  0.00    +0.066 C 
ENDBRANCH  19  20
ENDBRANCH  18  19
ENDBRANCH  14  15
ENDBRANCH  12  13
TORSDOF 6
ENDMDL
