MODEL 1
REMARK VINA RESULT:      -8.7      0.000      0.000
REMARK  Name = C:\Users\Docking\Desktop\test protocol\1iep_ligandH.pdb
REMARK  8 active torsions:
REMARK  status: ('A' for Active; 'I' for Inactive)
REMARK    1  A    between atoms: _5  and  _11
REMARK    2  A    between atoms: _19  and  _21
REMARK    3  A    between atoms: _22  and  _66
REMARK    4  A    between atoms: _27  and  _30
REMARK    5  A    between atoms: _32  and  _33
REMARK    6  A    between atoms: _38  and  _43
REMARK    7  A    between atoms: _43  and  _46
REMARK    8  A    between atoms: _53  and  _55
REMARK                            x       y       z     vdW  Elec       q    Type
REMARK                         _______ _______ _______ _____ _____    ______ ____
ROOT
ATOM     10  C   UNL     1      24.077-128.377   8.259  0.00  0.00    +0.038 A 
ATOM     11  C   UNL     1      25.231-128.749   7.523  0.00  0.00    +0.047 A 
ATOM     12  C   UNL     1      25.745-130.109   7.566  0.00  0.00    +0.035 A 
ATOM     32  C   UNL     1      25.058-131.066   8.368  0.00  0.00    +0.024 A 
ATOM     33  C   UNL     1      23.884-130.704   9.124  0.00  0.00    +0.007 A 
ATOM     34  C   UNL     1      23.374-129.364   9.087  0.00  0.00    -0.029 A 
ATOM     35  C   UNL     1      22.116-129.031   9.923  0.00  0.00    +0.045 C 
ENDROOT
BRANCH  10   9
ATOM      4  C   UNL     1      22.146-124.699   5.855  0.00  0.00    +0.077 A 
ATOM      5  C   UNL     1      22.050-125.464   4.645  0.00  0.00    +0.048 A 
ATOM      6  C   UNL     1      22.515-126.797   4.681  0.00  0.00    +0.116 A 
ATOM      7  N   UNL     1      23.035-127.317   5.846  0.00  0.00    -0.223 NA
ATOM      8  C   UNL     1      23.115-126.552   6.995  0.00  0.00    +0.220 A 
ATOM      9  N   UNL     1      23.627-127.057   8.181  0.00  0.00    -0.283 N 
ATOM     36  H   UNL     1      23.676-126.458   9.005  0.00  0.00    +0.155 HD
ATOM     37  N   UNL     1      22.679-125.275   6.986  0.00  0.00    -0.214 NA
BRANCH   4   3
ATOM      1  C   UNL     1      20.376-121.437   7.090  0.00  0.00    +0.020 A 
ATOM      2  C   UNL     1      20.781-122.822   7.017  0.00  0.00    +0.013 A 
ATOM      3  C   UNL     1      21.693-123.277   5.976  0.00  0.00    +0.019 A 
ATOM     38  C   UNL     1      22.181-122.298   5.016  0.00  0.00    +0.120 A 
ATOM     39  N   UNL     1      21.771-120.972   5.110  0.00  0.00    -0.263 NA
ATOM     40  C   UNL     1      20.893-120.522   6.107  0.00  0.00    +0.111 A 
ENDBRANCH   4   3
ENDBRANCH  10   9
BRANCH  12  13
ATOM     13  N   UNL     1      26.917-130.543   6.846  0.00  0.00    -0.281 N 
ATOM     14  C   UNL     1      27.942-131.357   7.300  0.00  0.00    +0.248 C 
ATOM     30  O   UNL     1      28.115-131.663   8.470  0.00  0.00    -0.270 OA
ATOM     31  H   UNL     1      27.000-130.210   5.886  0.00  0.00    +0.155 HD
BRANCH  14  15
ATOM     15  C   UNL     1      28.926-131.897   6.312  0.00  0.00    +0.037 A 
ATOM     16  C   UNL     1      28.488-132.452   5.029  0.00  0.00    +0.013 A 
ATOM     17  C   UNL     1      29.456-132.982   4.102  0.00  0.00    +0.005 A 
ATOM     18  C   UNL     1      30.874-132.957   4.455  0.00  0.00    -0.033 A 
ATOM     28  C   UNL     1      31.281-132.395   5.732  0.00  0.00    +0.005 A 
ATOM     29  C   UNL     1      30.334-131.876   6.644  0.00  0.00    +0.013 A 
BRANCH  18  19
ATOM     19  C   UNL     1      31.974-133.520   3.536  0.00  0.00    +0.119 C 
BRANCH  19  20
ATOM     20  N   UNL     1      31.693-134.813   2.845  0.00  0.00    -0.302 NA
ATOM     21  C   UNL     1      32.867-135.791   2.955  0.00  0.00    +0.066 C 
ATOM     22  C   UNL     1      32.547-137.147   2.247  0.00  0.00    -0.064 C 
ATOM     23  N   UNL     1      32.197-136.883   0.781  0.00  0.00    +0.379 N 
ATOM     24  C   UNL     1      31.952-138.161   0.097  0.00  0.00    -0.096 C 
ATOM     25  H   UNL     1      33.085-136.408   0.302  0.00  0.00    -0.082 HD
ATOM     26  C   UNL     1      31.033-135.910   0.662  0.00  0.00    -0.064 C 
ATOM     27  C   UNL     1      31.349-134.577   1.395  0.00  0.00    +0.066 C 
ENDBRANCH  19  20
ENDBRANCH  18  19
ENDBRANCH  14  15
ENDBRANCH  12  13
TORSDOF 6
ENDMDL
MODEL 2
REMARK VINA RESULT:      -8.6      1.927      2.911
REMARK  Name = C:\Users\Docking\Desktop\test protocol\1iep_ligandH.pdb
REMARK  8 active torsions:
REMARK  status: ('A' for Active; 'I' for Inactive)
REMARK    1  A    between atoms: _5  and  _11
REMARK    2  A    between atoms: _19  and  _21
REMARK    3  A    between atoms: _22  and  _66
REMARK    4  A    between atoms: _27  and  _30
REMARK    5  A    between atoms: _32  and  _33
REMARK    6  A    between atoms: _38  and  _43
REMARK    7  A    between atoms: _43  and  _46
REMARK    8  A    between atoms: _53  and  _55
REMARK                            x       y       z     vdW  Elec       q    Type
REMARK                         _______ _______ _______ _____ _____    ______ ____
ROOT
ATOM     10  C   UNL     1      23.168-127.404   6.387  0.00  0.00    +0.038 A 
ATOM     11  C   UNL     1      24.440-128.024   6.291  0.00  0.00    +0.047 A 
ATOM     12  C   UNL     1      24.896-128.968   7.300  0.00  0.00    +0.035 A 
ATOM     32  C   UNL     1      24.028-129.259   8.393  0.00  0.00    +0.024 A 
ATOM     33  C   UNL     1      22.732-128.638   8.506  0.00  0.00    +0.007 A 
ATOM     34  C   UNL     1      22.279-127.704   7.515  0.00  0.00    -0.029 A 
ATOM     35  C   UNL     1      20.883-127.063   7.692  0.00  0.00    +0.045 C 
ENDROOT
BRANCH  10   9
ATOM      4  C   UNL     1      22.900-122.978   4.549  0.00  0.00    +0.077 A 
ATOM      5  C   UNL     1      23.562-122.403   5.685  0.00  0.00    +0.048 A 
ATOM      6  C   UNL     1      23.949-123.280   6.723  0.00  0.00    +0.116 A 
ATOM      7  N   UNL     1      23.689-124.629   6.623  0.00  0.00    -0.223 NA
ATOM      8  C   UNL     1      23.047-125.151   5.515  0.00  0.00    +0.220 A 
ATOM      9  N   UNL     1      22.782-126.506   5.389  0.00  0.00    -0.283 N 
ATOM     36  H   UNL     1      22.300-126.851   4.560  0.00  0.00    +0.155 HD
ATOM     37  N   UNL     1      22.666-124.335   4.510  0.00  0.00    -0.214 NA
BRANCH   4   3
ATOM      1  C   UNL     1      20.642-121.354   1.800  0.00  0.00    +0.020 A 
ATOM      2  C   UNL     1      21.040-122.139   2.945  0.00  0.00    +0.013 A 
ATOM      3  C   UNL     1      22.434-122.183   3.370  0.00  0.00    +0.019 A 
ATOM     38  C   UNL     1      23.407-121.415   2.608  0.00  0.00    +0.120 A 
ATOM     39  N   UNL     1      22.994-120.670   1.508  0.00  0.00    -0.263 NA
ATOM     40  C   UNL     1      21.656-120.621   1.089  0.00  0.00    +0.111 A 
ENDBRANCH   4   3
ENDBRANCH  10   9
BRANCH  12  13
ATOM     13  N   UNL     1      26.180-129.622   7.260  0.00  0.00    -0.281 N 
ATOM     14  C   UNL     1      26.462-130.959   7.490  0.00  0.00    +0.248 C 
ATOM     30  O   UNL     1      25.676-131.757   7.977  0.00  0.00    -0.270 OA
ATOM     31  H   UNL     1      26.978-129.028   7.035  0.00  0.00    +0.155 HD
BRANCH  14  15
ATOM     15  C   UNL     1      27.819-131.480   7.141  0.00  0.00    +0.037 A 
ATOM     16  C   UNL     1      28.883-131.561   8.145  0.00  0.00    +0.013 A 
ATOM     17  C   UNL     1      30.188-132.052   7.778  0.00  0.00    +0.005 A 
ATOM     18  C   UNL     1      30.435-132.468   6.400  0.00  0.00    -0.033 A 
ATOM     28  C   UNL     1      29.360-132.382   5.425  0.00  0.00    +0.005 A 
ATOM     29  C   UNL     1      28.080-131.900   5.781  0.00  0.00    +0.013 A 
BRANCH  18  19
ATOM     19  C   UNL     1      31.802-132.985   5.914  0.00  0.00    +0.119 C 
BRANCH  19  20
ATOM     20  N   UNL     1      31.816-134.267   5.148  0.00  0.00    -0.302 NA
ATOM     21  C   UNL     1      32.766-135.296   5.767  0.00  0.00    +0.066 C 
ATOM     22  C   UNL     1      32.751-136.638   4.966  0.00  0.00    -0.064 C 
ATOM     23  N   UNL     1      33.125-136.363   3.508  0.00  0.00    +0.379 N 
ATOM     24  C   UNL     1      33.169-137.631   2.765  0.00  0.00    -0.096 C 
ATOM     25  H   UNL     1      34.152-135.930   3.499  0.00  0.00    -0.082 HD
ATOM     26  C   UNL     1      32.187-135.339   2.886  0.00  0.00    -0.064 C 
ATOM     27  C   UNL     1      32.187-134.019   3.706  0.00  0.00    +0.066 C 
ENDBRANCH  19  20
ENDBRANCH  18  19
ENDBRANCH  14  15
ENDBRANCH  12  13
TORSDOF 6
ENDMDL
MODEL 3
REMARK VINA RESULT:      -8.4     18.434     22.107
REMARK  Name = C:\Users\Docking\Desktop\test protocol\1iep_ligandH.pdb
REMARK  8 active torsions:
REMARK  status: ('A' for Active; 'I' for Inactive)
REMARK    1  A    between atoms: _5  and  _11
REMARK    2  A    between atoms: _19  and  _21
REMARK    3  A    between atoms: _22  and  _66
REMARK    4  A    between atoms: _27  and  _30
REMARK    5  A    between atoms: _32  and  _33
REMARK    6  A    between atoms: _38  and  _43
REMARK    7  A    between atoms: _43  and  _46
REMARK    8  A    between atoms: _53  and  _55
REMARK                            x       y       z     vdW  Elec       q    Type
REMARK                         _______ _______ _______ _____ _____    ______ ____
ROOT
ATOM     10  C   UNL     1       6.245-131.804   7.094  0.00  0.00    +0.038 A 
ATOM     11  C   UNL     1       6.387-132.289   5.769  0.00  0.00    +0.047 A 
ATOM     12  C   UNL     1       5.297-132.189   4.810  0.00  0.00    +0.035 A 
ATOM     32  C   UNL     1       4.077-131.587   5.234  0.00  0.00    +0.024 A 
ATOM     33  C   UNL     1       3.915-131.090   6.578  0.00  0.00    +0.007 A 
ATOM     34  C   UNL     1       4.985-131.188   7.529  0.00  0.00    -0.029 A 
ATOM     35  C   UNL     1       4.754-130.644   8.958  0.00  0.00    +0.045 C 
ENDROOT
BRANCH  10   9
ATOM      4  C   UNL     1       9.089-134.386   9.972  0.00  0.00    +0.077 A 
ATOM      5  C   UNL     1       8.347-135.589   9.724  0.00  0.00    +0.048 A 
ATOM      6  C   UNL     1       7.236-135.499   8.856  0.00  0.00    +0.116 A 
ATOM      7  N   UNL     1       6.902-134.291   8.283  0.00  0.00    -0.223 NA
ATOM      8  C   UNL     1       7.637-133.150   8.544  0.00  0.00    +0.220 A 
ATOM      9  N   UNL     1       7.323-131.926   7.973  0.00  0.00    -0.283 N 
ATOM     36  H   UNL     1       7.886-131.106   8.196  0.00  0.00    +0.155 HD
ATOM     37  N   UNL     1       8.702-133.209   9.371  0.00  0.00    -0.214 NA
BRANCH   4   3
ATOM      1  C   UNL     1      12.093-133.058  12.096  0.00  0.00    +0.020 A 
ATOM      2  C   UNL     1      10.936-133.067  11.232  0.00  0.00    +0.013 A 
ATOM      3  C   UNL     1      10.290-134.320  10.863  0.00  0.00    +0.019 A 
ATOM     38  C   UNL     1      10.844-135.558  11.392  0.00  0.00    +0.120 A 
ATOM     39  N   UNL     1      11.961-135.519  12.222  0.00  0.00    -0.263 NA
ATOM     40  C   UNL     1      12.591-134.319  12.581  0.00  0.00    +0.111 A 
ENDBRANCH   4   3
ENDBRANCH  10   9
BRANCH  12  13
ATOM     13  N   UNL     1       5.380-132.671   3.454  0.00  0.00    -0.281 N 
ATOM     14  C   UNL     1       5.365-133.985   3.014  0.00  0.00    +0.248 C 
ATOM     30  O   UNL     1       5.493-134.959   3.741  0.00  0.00    -0.270 OA
ATOM     31  H   UNL     1       5.460-131.957   2.729  0.00  0.00    +0.155 HD
BRANCH  14  15
ATOM     15  C   UNL     1       5.198-134.256   1.554  0.00  0.00    +0.037 A 
ATOM     16  C   UNL     1       6.241-133.895   0.590  0.00  0.00    +0.013 A 
ATOM     17  C   UNL     1       6.047-134.152  -0.815  0.00  0.00    +0.005 A 
ATOM     18  C   UNL     1       4.804-134.775  -1.265  0.00  0.00    -0.033 A 
ATOM     28  C   UNL     1       3.789-135.128  -0.286  0.00  0.00    +0.005 A 
ATOM     29  C   UNL     1       3.975-134.876   1.092  0.00  0.00    +0.013 A 
BRANCH  18  19
ATOM     19  C   UNL     1       4.503-135.067  -2.747  0.00  0.00    +0.119 C 
BRANCH  19  20
ATOM     20  N   UNL     1       4.576-136.490  -3.192  0.00  0.00    -0.302 NA
ATOM     21  C   UNL     1       6.021-136.962  -3.373  0.00  0.00    +0.066 C 
ATOM     22  C   UNL     1       6.079-138.460  -3.817  0.00  0.00    -0.064 C 
ATOM     23  N   UNL     1       5.286-138.636  -5.113  0.00  0.00    +0.379 N 
ATOM     24  C   UNL     1       5.387-140.032  -5.564  0.00  0.00    -0.096 C 
ATOM     25  H   UNL     1       5.761-137.994  -5.890  0.00  0.00    -0.082 HD
ATOM     26  C   UNL     1       3.848-138.167  -4.942  0.00  0.00    -0.064 C 
ATOM     27  C   UNL     1       3.802-136.686  -4.473  0.00  0.00    +0.066 C 
ENDBRANCH  19  20
ENDBRANCH  18  19
ENDBRANCH  14  15
ENDBRANCH  12  13
TORSDOF 6
ENDMDL
MODEL 4
REMARK VINA RESULT:      -8.3     25.765     32.546
REMARK  Name = C:\Users\Docking\Desktop\test protocol\1iep_ligandH.pdb
REMARK  8 active torsions:
REMARK  status: ('A' for Active; 'I' for Inactive)
REMARK    1  A    between atoms: _5  and  _11
REMARK    2  A    between atoms: _19  and  _21
REMARK    3  A    between atoms: _22  and  _66
REMARK    4  A    between atoms: _27  and  _30
REMARK    5  A    between atoms: _32  and  _33
REMARK    6  A    between atoms: _38  and  _43
REMARK    7  A    between atoms: _43  and  _46
REMARK    8  A    between atoms: _53  and  _55
REMARK                            x       y       z     vdW  Elec       q    Type
REMARK                         _______ _______ _______ _____ _____    ______ ____
ROOT
ATOM     10  C   UNL     1       2.583-122.287  -3.987  0.00  0.00    +0.038 A 
ATOM     11  C   UNL     1       1.641-121.272  -3.682  0.00  0.00    +0.047 A 
ATOM     12  C   UNL     1       1.631-120.619  -2.382  0.00  0.00    +0.035 A 
ATOM     32  C   UNL     1       2.598-121.024  -1.416  0.00  0.00    +0.024 A 
ATOM     33  C   UNL     1       3.563-122.054  -1.709  0.00  0.00    +0.007 A 
ATOM     34  C   UNL     1       3.576-122.703  -2.989  0.00  0.00    -0.029 A 
ATOM     35  C   UNL     1       4.629-123.806  -3.245  0.00  0.00    +0.045 C 
ENDROOT
BRANCH  10   9
ATOM      4  C   UNL     1       0.781-125.423  -7.141  0.00  0.00    +0.077 A 
ATOM      5  C   UNL     1      -0.150-125.943  -6.182  0.00  0.00    +0.048 A 
ATOM      6  C   UNL     1      -0.128-125.381  -4.886  0.00  0.00    +0.116 A 
ATOM      7  N   UNL     1       0.763-124.374  -4.583  0.00  0.00    -0.223 NA
ATOM      8  C   UNL     1       1.648-123.897  -5.531  0.00  0.00    +0.220 A 
ATOM      9  N   UNL     1       2.547-122.879  -5.251  0.00  0.00    -0.283 N 
ATOM     36  H   UNL     1       3.189-122.560  -5.976  0.00  0.00    +0.155 HD
ATOM     37  N   UNL     1       1.648-124.418  -6.776  0.00  0.00    -0.214 NA
BRANCH   4   3
ATOM      1  C   UNL     1       2.100-127.033 -10.453  0.00  0.00    +0.020 A 
ATOM      2  C   UNL     1       2.059-126.580  -9.082  0.00  0.00    +0.013 A 
ATOM      3  C   UNL     1       0.876-125.911  -8.553  0.00  0.00    +0.019 A 
ATOM     38  C   UNL     1      -0.256-125.715  -9.446  0.00  0.00    +0.120 A 
ATOM     39  N   UNL     1      -0.187-126.160 -10.762  0.00  0.00    -0.263 NA
ATOM     40  C   UNL     1       0.946-126.804 -11.282  0.00  0.00    +0.111 A 
ENDBRANCH   4   3
ENDBRANCH  10   9
BRANCH  12  13
ATOM     13  N   UNL     1       0.693-119.589  -2.013  0.00  0.00    -0.281 N 
ATOM     14  C   UNL     1       0.812-118.221  -2.200  0.00  0.00    +0.248 C 
ATOM     30  O   UNL     1       1.846-117.656  -2.524  0.00  0.00    -0.270 OA
ATOM     31  H   UNL     1      -0.164-119.906  -1.558  0.00  0.00    +0.155 HD
BRANCH  14  15
ATOM     15  C   UNL     1      -0.386-117.355  -1.983  0.00  0.00    +0.037 A 
ATOM     16  C   UNL     1      -1.725-117.796  -2.383  0.00  0.00    +0.013 A 
ATOM     17  C   UNL     1      -2.862-116.934  -2.177  0.00  0.00    +0.005 A 
ATOM     18  C   UNL     1      -2.664-115.621  -1.567  0.00  0.00    -0.033 A 
ATOM     28  C   UNL     1      -1.326-115.211  -1.175  0.00  0.00    +0.005 A 
ATOM     29  C   UNL     1      -0.209-116.053  -1.376  0.00  0.00    +0.013 A 
BRANCH  18  19
ATOM     19  C   UNL     1      -3.816-114.627  -1.329  0.00  0.00    +0.119 C 
BRANCH  19  20
ATOM     20  N   UNL     1      -5.209-115.158  -1.429  0.00  0.00    -0.302 NA
ATOM     21  C   UNL     1      -6.218-114.061  -1.781  0.00  0.00    +0.066 C 
ATOM     22  C   UNL     1      -7.666-114.638  -1.904  0.00  0.00    -0.064 C 
ATOM     23  N   UNL     1      -8.050-115.327  -0.594  0.00  0.00    +0.379 N 
ATOM     24  C   UNL     1      -9.432-115.820  -0.686  0.00  0.00    -0.096 C 
ATOM     25  H   UNL     1      -8.017-114.560   0.214  0.00  0.00    -0.082 HD
ATOM     26  C   UNL     1      -7.050-116.418  -0.235  0.00  0.00    -0.064 C 
ATOM     27  C   UNL     1      -5.611-115.839  -0.144  0.00  0.00    +0.066 C 
ENDBRANCH  19  20
ENDBRANCH  18  19
ENDBRANCH  14  15
ENDBRANCH  12  13
TORSDOF 6
ENDMDL
MODEL 5
REMARK VINA RESULT:      -8.3     27.001     29.445
REMARK  Name = C:\Users\Docking\Desktop\test protocol\1iep_ligandH.pdb
REMARK  8 active torsions:
REMARK  status: ('A' for Active; 'I' for Inactive)
REMARK    1  A    between atoms: _5  and  _11
REMARK    2  A    between atoms: _19  and  _21
REMARK    3  A    between atoms: _22  and  _66
REMARK    4  A    between atoms: _27  and  _30
REMARK    5  A    between atoms: _32  and  _33
REMARK    6  A    between atoms: _38  and  _43
REMARK    7  A    between atoms: _43  and  _46
REMARK    8  A    between atoms: _53  and  _55
REMARK                            x       y       z     vdW  Elec       q    Type
REMARK                         _______ _______ _______ _____ _____    ______ ____
ROOT
ATOM     10  C   UNL     1       0.953-120.226  -3.209  0.00  0.00    +0.038 A 
ATOM     11  C   UNL     1       0.642-121.335  -4.037  0.00  0.00    +0.047 A 
ATOM     12  C   UNL     1       1.442-122.549  -4.000  0.00  0.00    +0.035 A 
ATOM     32  C   UNL     1       2.552-122.600  -3.107  0.00  0.00    +0.024 A 
ATOM     33  C   UNL     1       2.883-121.482  -2.259  0.00  0.00    +0.007 A 
ATOM     34  C   UNL     1       2.098-120.281  -2.292  0.00  0.00    -0.029 A 
ATOM     35  C   UNL     1       2.503-119.111  -1.366  0.00  0.00    +0.045 C 
ENDROOT
BRANCH  10   9
ATOM      4  C   UNL     1      -2.693-117.507  -1.675  0.00  0.00    +0.077 A 
ATOM      5  C   UNL     1      -3.046-118.451  -0.654  0.00  0.00    +0.048 A 
ATOM      6  C   UNL     1      -2.268-119.627  -0.562  0.00  0.00    +0.116 A 
ATOM      7  N   UNL     1      -1.218-119.833  -1.431  0.00  0.00    -0.223 NA
ATOM      8  C   UNL     1      -0.906-118.903  -2.405  0.00  0.00    +0.220 A 
ATOM      9  N   UNL     1       0.150-119.086  -3.284  0.00  0.00    -0.283 N 
ATOM     36  H   UNL     1       0.343-118.379  -3.994  0.00  0.00    +0.155 HD
ATOM     37  N   UNL     1      -1.635-117.772  -2.515  0.00  0.00    -0.214 NA
BRANCH   4   3
ATOM      1  C   UNL     1      -5.477-114.878  -2.474  0.00  0.00    +0.020 A 
ATOM      2  C   UNL     1      -4.825-116.151  -2.272  0.00  0.00    +0.013 A 
ATOM      3  C   UNL     1      -3.418-116.216  -1.897  0.00  0.00    +0.019 A 
ATOM     38  C   UNL     1      -2.695-114.964  -1.731  0.00  0.00    +0.120 A 
ATOM     39  N   UNL     1      -3.349-113.753  -1.934  0.00  0.00    -0.263 NA
ATOM     40  C   UNL     1      -4.702-113.678  -2.297  0.00  0.00    +0.111 A 
ENDBRANCH   4   3
ENDBRANCH  10   9
BRANCH  12  13
ATOM     13  N   UNL     1       1.179-123.704  -4.823  0.00  0.00    -0.281 N 
ATOM     14  C   UNL     1       1.238-123.796  -6.204  0.00  0.00    +0.248 C 
ATOM     30  O   UNL     1       1.318-122.838  -6.958  0.00  0.00    -0.270 OA
ATOM     31  H   UNL     1       0.919-124.556  -4.327  0.00  0.00    +0.155 HD
BRANCH  14  15
ATOM     15  C   UNL     1       1.185-125.148  -6.840  0.00  0.00    +0.037 A 
ATOM     16  C   UNL     1       2.092-125.510  -7.932  0.00  0.00    +0.013 A 
ATOM     17  C   UNL     1       2.009-126.815  -8.539  0.00  0.00    +0.005 A 
ATOM     18  C   UNL     1       1.014-127.768  -8.053  0.00  0.00    -0.033 A 
ATOM     28  C   UNL     1       0.130-127.385  -6.965  0.00  0.00    +0.005 A 
ATOM     29  C   UNL     1       0.208-126.106  -6.369  0.00  0.00    +0.013 A 
BRANCH  18  19
ATOM     19  C   UNL     1       0.840-129.175  -8.656  0.00  0.00    +0.119 C 
BRANCH  19  20
ATOM     20  N   UNL     1       1.849-129.617  -9.664  0.00  0.00    -0.302 NA
ATOM     21  C   UNL     1       1.276-129.626 -11.084  0.00  0.00    +0.066 C 
ATOM     22  C   UNL     1       2.352-130.069 -12.129  0.00  0.00    -0.064 C 
ATOM     23  N   UNL     1       2.886-131.451 -11.752  0.00  0.00    +0.379 N 
ATOM     24  C   UNL     1       3.856-131.895 -12.764  0.00  0.00    -0.096 C 
ATOM     25  H   UNL     1       2.028-132.162 -11.770  0.00  0.00    -0.082 HD
ATOM     26  C   UNL     1       3.455-131.451 -10.340  0.00  0.00    -0.064 C 
ATOM     27  C   UNL     1       2.387-130.982  -9.313  0.00  0.00    +0.066 C 
ENDBRANCH  19  20
ENDBRANCH  18  19
ENDBRANCH  14  15
ENDBRANCH  12  13
TORSDOF 6
ENDMDL
