MODEL 1
REMARK VINA RESULT:      -8.1      0.000      0.000
REMARK  Name = C:\Users\Docking\Desktop\test protocol\1iep_ligandH.pdb
REMARK  8 active torsions:
REMARK  status: ('A' for Active; 'I' for Inactive)
REMARK    1  A    between atoms: _5  and  _11
REMARK    2  A    between atoms: _19  and  _21
REMARK    3  A    between atoms: _22  and  _66
REMARK    4  A    between atoms: _27  and  _30
REMARK    5  A    between atoms: _32  and  _33
REMARK    6  A    between atoms: _38  and  _43
REMARK    7  A    between atoms: _43  and  _46
REMARK    8  A    between atoms: _53  and  _55
REMARK                            x       y       z     vdW  Elec       q    Type
REMARK                         _______ _______ _______ _____ _____    ______ ____
ROOT
ATOM     10  C   UNL     1      23.377-125.981   6.580  0.00  0.00    +0.038 A 
ATOM     11  C   UNL     1      23.218-124.779   5.845  0.00  0.00    +0.047 A 
ATOM     12  C   UNL     1      21.977-124.022   5.897  0.00  0.00    +0.035 A 
ATOM     32  C   UNL     1      20.918-124.518   6.712  0.00  0.00    +0.024 A 
ATOM     33  C   UNL     1      21.061-125.739   7.466  0.00  0.00    +0.007 A 
ATOM     34  C   UNL     1      22.283-126.490   7.416  0.00  0.00    -0.029 A 
ATOM     35  C   UNL     1      22.378-127.796   8.239  0.00  0.00    +0.045 C 
ENDROOT
BRANCH  10   9
ATOM      4  C   UNL     1      27.823-126.929   8.119  0.00  0.00    +0.077 A 
ATOM      5  C   UNL     1      27.730-125.956   9.170  0.00  0.00    +0.048 A 
ATOM      6  C   UNL     1      26.524-125.228   9.276  0.00  0.00    +0.116 A 
ATOM      7  N   UNL     1      25.494-125.464   8.391  0.00  0.00    -0.223 NA
ATOM      8  C   UNL     1      25.617-126.408   7.388  0.00  0.00    +0.220 A 
ATOM      9  N   UNL     1      24.590-126.667   6.493  0.00  0.00    -0.283 N 
ATOM     36  H   UNL     1      24.723-127.366   5.763  0.00  0.00    +0.155 HD
ATOM     37  N   UNL     1      26.759-127.115   7.266  0.00  0.00    -0.214 NA
BRANCH   4   3
ATOM      1  C   UNL     1      30.345-129.919   8.133  0.00  0.00    +0.020 A 
ATOM      2  C   UNL     1      29.157-129.139   8.392  0.00  0.00    +0.013 A 
ATOM      3  C   UNL     1      29.032-127.780   7.881  0.00  0.00    +0.019 A 
ATOM     38  C   UNL     1      30.135-127.235   7.104  0.00  0.00    +0.120 A 
ATOM     39  N   UNL     1      31.268-128.009   6.872  0.00  0.00    -0.263 NA
ATOM     40  C   UNL     1      31.400-129.318   7.360  0.00  0.00    +0.111 A 
ENDBRANCH   4   3
ENDBRANCH  10   9
BRANCH  12  13
ATOM     13  N   UNL     1      21.755-122.799   5.166  0.00  0.00    -0.281 N 
ATOM     14  C   UNL     1      21.990-122.556   3.822  0.00  0.00    +0.248 C 
ATOM     30  O   UNL     1      22.630-123.294   3.088  0.00  0.00    -0.270 OA
ATOM     31  H   UNL     1      21.380-122.018   5.704  0.00  0.00    +0.155 HD
BRANCH  14  15
ATOM     15  C   UNL     1      21.447-121.306   3.209  0.00  0.00    +0.037 A 
ATOM     16  C   UNL     1      21.362-121.147   1.755  0.00  0.00    +0.013 A 
ATOM     17  C   UNL     1      20.850-119.924   1.190  0.00  0.00    +0.005 A 
ATOM     18  C   UNL     1      20.418-118.850   2.080  0.00  0.00    -0.033 A 
ATOM     28  C   UNL     1      20.508-119.035   3.519  0.00  0.00    +0.005 A 
ATOM     29  C   UNL     1      21.011-120.232   4.077  0.00  0.00    +0.013 A 
BRANCH  18  19
ATOM     19  C   UNL     1      19.878-117.502   1.565  0.00  0.00    +0.119 C 
BRANCH  19  20
ATOM     20  N   UNL     1      20.774-116.314   1.689  0.00  0.00    -0.302 NA
ATOM     21  C   UNL     1      22.253-116.711   1.722  0.00  0.00    +0.066 C 
ATOM     22  C   UNL     1      23.177-115.454   1.830  0.00  0.00    -0.064 C 
ATOM     23  N   UNL     1      22.803-114.655   3.080  0.00  0.00    +0.379 N 
ATOM     24  C   UNL     1      23.708-113.505   3.215  0.00  0.00    -0.096 C 
ATOM     25  H   UNL     1      22.961-115.316   3.963  0.00  0.00    -0.082 HD
ATOM     26  C   UNL     1      21.333-114.259   3.057  0.00  0.00    -0.064 C 
ATOM     27  C   UNL     1      20.425-115.513   2.919  0.00  0.00    +0.066 C 
ENDBRANCH  19  20
ENDBRANCH  18  19
ENDBRANCH  14  15
ENDBRANCH  12  13
TORSDOF 6
ENDMDL
MODEL 2
REMARK VINA RESULT:      -8.0      2.635     11.784
REMARK  Name = C:\Users\Docking\Desktop\test protocol\1iep_ligandH.pdb
REMARK  8 active torsions:
REMARK  status: ('A' for Active; 'I' for Inactive)
REMARK    1  A    between atoms: _5  and  _11
REMARK    2  A    between atoms: _19  and  _21
REMARK    3  A    between atoms: _22  and  _66
REMARK    4  A    between atoms: _27  and  _30
REMARK    5  A    between atoms: _32  and  _33
REMARK    6  A    between atoms: _38  and  _43
REMARK    7  A    between atoms: _43  and  _46
REMARK    8  A    between atoms: _53  and  _55
REMARK                            x       y       z     vdW  Elec       q    Type
REMARK                         _______ _______ _______ _____ _____    ______ ____
ROOT
ATOM     10  C   UNL     1      22.650-125.906   6.008  0.00  0.00    +0.038 A 
ATOM     11  C   UNL     1      24.015-126.144   6.308  0.00  0.00    +0.047 A 
ATOM     12  C   UNL     1      24.405-127.088   7.343  0.00  0.00    +0.035 A 
ATOM     32  C   UNL     1      23.377-127.775   8.053  0.00  0.00    +0.024 A 
ATOM     33  C   UNL     1      21.984-127.545   7.761  0.00  0.00    +0.007 A 
ATOM     34  C   UNL     1      21.593-126.613   6.742  0.00  0.00    -0.029 A 
ATOM     35  C   UNL     1      20.085-126.401   6.477  0.00  0.00    +0.045 C 
ENDROOT
BRANCH  10   9
ATOM      4  C   UNL     1      21.334-121.533   4.531  0.00  0.00    +0.077 A 
ATOM      5  C   UNL     1      21.245-121.041   5.876  0.00  0.00    +0.048 A 
ATOM      6  C   UNL     1      21.539-121.947   6.919  0.00  0.00    +0.116 A 
ATOM      7  N   UNL     1      21.895-123.246   6.628  0.00  0.00    -0.223 NA
ATOM      8  C   UNL     1      21.969-123.689   5.320  0.00  0.00    +0.220 A 
ATOM      9  N   UNL     1      22.332-124.989   5.003  0.00  0.00    -0.283 N 
ATOM     36  H   UNL     1      22.368-125.279   4.026  0.00  0.00    +0.155 HD
ATOM     37  N   UNL     1      21.692-122.843   4.306  0.00  0.00    -0.214 NA
BRANCH   4   3
ATOM      1  C   UNL     1      20.832-120.372   0.830  0.00  0.00    +0.020 A 
ATOM      2  C   UNL     1      21.109-121.223   1.964  0.00  0.00    +0.013 A 
ATOM      3  C   UNL     1      21.057-120.696   3.321  0.00  0.00    +0.019 A 
ATOM     38  C   UNL     1      20.718-119.292   3.498  0.00  0.00    +0.120 A 
ATOM     39  N   UNL     1      20.457-118.496   2.387  0.00  0.00    -0.263 NA
ATOM     40  C   UNL     1      20.506-118.992   1.076  0.00  0.00    +0.111 A 
ENDBRANCH   4   3
ENDBRANCH  10   9
BRANCH  12  13
ATOM     13  N   UNL     1      25.775-127.364   7.698  0.00  0.00    -0.281 N 
ATOM     14  C   UNL     1      26.534-128.475   7.365  0.00  0.00    +0.248 C 
ATOM     30  O   UNL     1      26.079-129.504   6.888  0.00  0.00    -0.270 OA
ATOM     31  H   UNL     1      26.243-126.655   8.262  0.00  0.00    +0.155 HD
BRANCH  14  15
ATOM     15  C   UNL     1      28.008-128.442   7.610  0.00  0.00    +0.037 A 
ATOM     16  C   UNL     1      28.892-129.473   7.061  0.00  0.00    +0.013 A 
ATOM     17  C   UNL     1      30.308-129.428   7.327  0.00  0.00    +0.005 A 
ATOM     18  C   UNL     1      30.849-128.345   8.145  0.00  0.00    -0.033 A 
ATOM     28  C   UNL     1      29.949-127.332   8.673  0.00  0.00    +0.005 A 
ATOM     29  C   UNL     1      28.561-127.374   8.415  0.00  0.00    +0.013 A 
BRANCH  18  19
ATOM     19  C   UNL     1      32.344-128.229   8.498  0.00  0.00    +0.119 C 
BRANCH  19  20
ATOM     20  N   UNL     1      33.192-127.382   7.607  0.00  0.00    -0.302 NA
ATOM     21  C   UNL     1      32.354-126.576   6.611  0.00  0.00    +0.066 C 
ATOM     22  C   UNL     1      33.256-125.678   5.703  0.00  0.00    -0.064 C 
ATOM     23  N   UNL     1      34.271-126.557   4.970  0.00  0.00    +0.379 N 
ATOM     24  C   UNL     1      35.082-125.723   4.071  0.00  0.00    -0.096 C 
ATOM     25  H   UNL     1      33.700-127.278   4.340  0.00  0.00    -0.082 HD
ATOM     26  C   UNL     1      35.107-127.364   5.953  0.00  0.00    -0.064 C 
ATOM     27  C   UNL     1      34.199-128.230   6.870  0.00  0.00    +0.066 C 
ENDBRANCH  19  20
ENDBRANCH  18  19
ENDBRANCH  14  15
ENDBRANCH  12  13
TORSDOF 6
ENDMDL
MODEL 3
REMARK VINA RESULT:      -7.9      4.043     11.516
REMARK  Name = C:\Users\Docking\Desktop\test protocol\1iep_ligandH.pdb
REMARK  8 active torsions:
REMARK  status: ('A' for Active; 'I' for Inactive)
REMARK    1  A    between atoms: _5  and  _11
REMARK    2  A    between atoms: _19  and  _21
REMARK    3  A    between atoms: _22  and  _66
REMARK    4  A    between atoms: _27  and  _30
REMARK    5  A    between atoms: _32  and  _33
REMARK    6  A    between atoms: _38  and  _43
REMARK    7  A    between atoms: _43  and  _46
REMARK    8  A    between atoms: _53  and  _55
REMARK                            x       y       z     vdW  Elec       q    Type
REMARK                         _______ _______ _______ _____ _____    ______ ____
ROOT
ATOM     10  C   UNL     1      22.041-119.689   1.808  0.00  0.00    +0.038 A 
ATOM     11  C   UNL     1      22.128-120.949   2.454  0.00  0.00    +0.047 A 
ATOM     12  C   UNL     1      21.455-121.193   3.721  0.00  0.00    +0.035 A 
ATOM     32  C   UNL     1      20.699-120.133   4.300  0.00  0.00    +0.024 A 
ATOM     33  C   UNL     1      20.601-118.846   3.657  0.00  0.00    +0.007 A 
ATOM     34  C   UNL     1      21.264-118.598   2.409  0.00  0.00    -0.029 A 
ATOM     35  C   UNL     1      21.129-117.197   1.769  0.00  0.00    +0.045 C 
ENDROOT
BRANCH  10   9
ATOM      4  C   UNL     1      25.884-118.399  -0.761  0.00  0.00    +0.077 A 
ATOM      5  C   UNL     1      26.618-118.027   0.414  0.00  0.00    +0.048 A 
ATOM      6  C   UNL     1      25.968-118.176   1.660  0.00  0.00    +0.116 A 
ATOM      7  N   UNL     1      24.680-118.662   1.714  0.00  0.00    -0.223 NA
ATOM      8  C   UNL     1      24.000-119.011   0.562  0.00  0.00    +0.220 A 
ATOM      9  N   UNL     1      22.707-119.509   0.594  0.00  0.00    -0.283 N 
ATOM     36  H   UNL     1      22.236-119.748  -0.279  0.00  0.00    +0.155 HD
ATOM     37  N   UNL     1      24.598-118.876  -0.640  0.00  0.00    -0.214 NA
BRANCH   4   3
ATOM      1  C   UNL     1      26.683-119.130  -4.520  0.00  0.00    +0.020 A 
ATOM      2  C   UNL     1      26.124-119.269  -3.195  0.00  0.00    +0.013 A 
ATOM      3  C   UNL     1      26.436-118.303  -2.149  0.00  0.00    +0.019 A 
ATOM     38  C   UNL     1      27.324-117.198  -2.480  0.00  0.00    +0.120 A 
ATOM     39  N   UNL     1      27.848-117.090  -3.764  0.00  0.00    -0.263 NA
ATOM     40  C   UNL     1      27.556-118.015  -4.778  0.00  0.00    +0.111 A 
ENDBRANCH   4   3
ENDBRANCH  10   9
BRANCH  12  13
ATOM     13  N   UNL     1      21.515-122.449   4.427  0.00  0.00    -0.281 N 
ATOM     14  C   UNL     1      22.319-123.543   4.153  0.00  0.00    +0.248 C 
ATOM     30  O   UNL     1      22.961-123.688   3.123  0.00  0.00    -0.270 OA
ATOM     31  H   UNL     1      20.887-122.543   5.226  0.00  0.00    +0.155 HD
BRANCH  14  15
ATOM     15  C   UNL     1      22.413-124.641   5.162  0.00  0.00    +0.037 A 
ATOM     16  C   UNL     1      21.315-125.592   5.355  0.00  0.00    +0.013 A 
ATOM     17  C   UNL     1      21.424-126.632   6.348  0.00  0.00    +0.005 A 
ATOM     18  C   UNL     1      22.638-126.726   7.155  0.00  0.00    -0.033 A 
ATOM     28  C   UNL     1      23.715-125.773   6.939  0.00  0.00    +0.005 A 
ATOM     29  C   UNL     1      23.610-124.752   5.968  0.00  0.00    +0.013 A 
BRANCH  18  19
ATOM     19  C   UNL     1      22.833-127.791   8.251  0.00  0.00    +0.119 C 
BRANCH  19  20
ATOM     20  N   UNL     1      21.759-127.916   9.280  0.00  0.00    -0.302 NA
ATOM     21  C   UNL     1      21.644-126.660  10.148  0.00  0.00    +0.066 C 
ATOM     22  C   UNL     1      20.501-126.799  11.205  0.00  0.00    -0.064 C 
ATOM     23  N   UNL     1      20.758-128.034  12.070  0.00  0.00    +0.379 N 
ATOM     24  C   UNL     1      19.716-128.136  13.102  0.00  0.00    -0.096 C 
ATOM     25  H   UNL     1      21.734-127.886  12.589  0.00  0.00    -0.082 HD
ATOM     26  C   UNL     1      20.876-129.288  11.215  0.00  0.00    -0.064 C 
ATOM     27  C   UNL     1      21.995-129.127  10.149  0.00  0.00    +0.066 C 
ENDBRANCH  19  20
ENDBRANCH  18  19
ENDBRANCH  14  15
ENDBRANCH  12  13
TORSDOF 6
ENDMDL
MODEL 4
REMARK VINA RESULT:      -7.9      3.634     11.630
REMARK  Name = C:\Users\Docking\Desktop\test protocol\1iep_ligandH.pdb
REMARK  8 active torsions:
REMARK  status: ('A' for Active; 'I' for Inactive)
REMARK    1  A    between atoms: _5  and  _11
REMARK    2  A    between atoms: _19  and  _21
REMARK    3  A    between atoms: _22  and  _66
REMARK    4  A    between atoms: _27  and  _30
REMARK    5  A    between atoms: _32  and  _33
REMARK    6  A    between atoms: _38  and  _43
REMARK    7  A    between atoms: _43  and  _46
REMARK    8  A    between atoms: _53  and  _55
REMARK                            x       y       z     vdW  Elec       q    Type
REMARK                         _______ _______ _______ _____ _____    ______ ____
ROOT
ATOM     10  C   UNL     1      22.010-120.068   2.090  0.00  0.00    +0.038 A 
ATOM     11  C   UNL     1      22.449-121.086   2.975  0.00  0.00    +0.047 A 
ATOM     12  C   UNL     1      21.829-121.268   4.279  0.00  0.00    +0.035 A 
ATOM     32  C   UNL     1      20.762-120.397   4.647  0.00  0.00    +0.024 A 
ATOM     33  C   UNL     1      20.304-119.357   3.760  0.00  0.00    +0.007 A 
ATOM     34  C   UNL     1      20.913-119.171   2.475  0.00  0.00    -0.029 A 
ATOM     35  C   UNL     1      20.386-118.035   1.567  0.00  0.00    +0.045 C 
ENDROOT
BRANCH  10   9
ATOM      4  C   UNL     1      25.552-118.433  -0.705  0.00  0.00    +0.077 A 
ATOM      5  C   UNL     1      26.186-117.759   0.391  0.00  0.00    +0.048 A 
ATOM      6  C   UNL     1      25.564-117.851   1.657  0.00  0.00    +0.116 A 
ATOM      7  N   UNL     1      24.397-118.568   1.803  0.00  0.00    -0.223 NA
ATOM      8  C   UNL     1      23.811-119.205   0.725  0.00  0.00    +0.220 A 
ATOM      9  N   UNL     1      22.641-119.938   0.851  0.00  0.00    -0.283 N 
ATOM     36  H   UNL     1      22.236-120.387   0.030  0.00  0.00    +0.155 HD
ATOM     37  N   UNL     1      24.384-119.130  -0.494  0.00  0.00    -0.214 NA
BRANCH   4   3
ATOM      1  C   UNL     1      26.300-119.408  -4.419  0.00  0.00    +0.020 A 
ATOM      2  C   UNL     1      25.754-119.457  -3.082  0.00  0.00    +0.013 A 
ATOM      3  C   UNL     1      26.090-118.431  -2.103  0.00  0.00    +0.019 A 
ATOM     38  C   UNL     1      26.986-117.360  -2.512  0.00  0.00    +0.120 A 
ATOM     39  N   UNL     1      27.497-117.340  -3.806  0.00  0.00    -0.263 NA
ATOM     40  C   UNL     1      27.183-118.323  -4.756  0.00  0.00    +0.111 A 
ENDBRANCH   4   3
ENDBRANCH  10   9
BRANCH  12  13
ATOM     13  N   UNL     1      22.238-122.278   5.223  0.00  0.00    -0.281 N 
ATOM     14  C   UNL     1      22.078-123.651   5.124  0.00  0.00    +0.248 C 
ATOM     30  O   UNL     1      21.364-124.206   4.302  0.00  0.00    -0.270 OA
ATOM     31  H   UNL     1      22.701-121.941   6.066  0.00  0.00    +0.155 HD
BRANCH  14  15
ATOM     15  C   UNL     1      22.805-124.534   6.086  0.00  0.00    +0.037 A 
ATOM     16  C   UNL     1      23.796-123.989   7.017  0.00  0.00    +0.013 A 
ATOM     17  C   UNL     1      24.495-124.866   7.923  0.00  0.00    +0.005 A 
ATOM     18  C   UNL     1      24.204-126.297   7.903  0.00  0.00    -0.033 A 
ATOM     28  C   UNL     1      23.212-126.810   6.972  0.00  0.00    +0.005 A 
ATOM     29  C   UNL     1      22.526-125.954   6.082  0.00  0.00    +0.013 A 
BRANCH  18  19
ATOM     19  C   UNL     1      24.917-127.309   8.819  0.00  0.00    +0.119 C 
BRANCH  19  20
ATOM     20  N   UNL     1      26.294-127.735   8.427  0.00  0.00    -0.302 NA
ATOM     21  C   UNL     1      26.337-129.199   7.980  0.00  0.00    +0.066 C 
ATOM     22  C   UNL     1      27.780-129.621   7.552  0.00  0.00    -0.064 C 
ATOM     23  N   UNL     1      28.744-129.381   8.715  0.00  0.00    +0.379 N 
ATOM     24  C   UNL     1      30.092-129.831   8.335  0.00  0.00    -0.096 C 
ATOM     25  H   UNL     1      28.406-130.010   9.570  0.00  0.00    -0.082 HD
ATOM     26  C   UNL     1      28.706-127.928   9.167  0.00  0.00    -0.064 C 
ATOM     27  C   UNL     1      27.262-127.510   9.562  0.00  0.00    +0.066 C 
ENDBRANCH  19  20
ENDBRANCH  18  19
ENDBRANCH  14  15
ENDBRANCH  12  13
TORSDOF 6
ENDMDL
MODEL 5
REMARK VINA RESULT:      -7.8      1.653      2.416
REMARK  Name = C:\Users\Docking\Desktop\test protocol\1iep_ligandH.pdb
REMARK  8 active torsions:
REMARK  status: ('A' for Active; 'I' for Inactive)
REMARK    1  A    between atoms: _5  and  _11
REMARK    2  A    between atoms: _19  and  _21
REMARK    3  A    between atoms: _22  and  _66
REMARK    4  A    between atoms: _27  and  _30
REMARK    5  A    between atoms: _32  and  _33
REMARK    6  A    between atoms: _38  and  _43
REMARK    7  A    between atoms: _43  and  _46
REMARK    8  A    between atoms: _53  and  _55
REMARK                            x       y       z     vdW  Elec       q    Type
REMARK                         _______ _______ _______ _____ _____    ______ ____
ROOT
ATOM     10  C   UNL     1      24.027-126.549   8.010  0.00  0.00    +0.038 A 
ATOM     11  C   UNL     1      24.097-125.390   7.195  0.00  0.00    +0.047 A 
ATOM     12  C   UNL     1      22.924-124.889   6.496  0.00  0.00    +0.035 A 
ATOM     32  C   UNL     1      21.693-125.591   6.653  0.00  0.00    +0.024 A 
ATOM     33  C   UNL     1      21.604-126.771   7.477  0.00  0.00    +0.007 A 
ATOM     34  C   UNL     1      22.759-127.271   8.167  0.00  0.00    -0.029 A 
ATOM     35  C   UNL     1      22.606-128.544   9.032  0.00  0.00    +0.045 C 
ENDROOT
BRANCH  10   9
ATOM      4  C   UNL     1      27.994-129.242   8.230  0.00  0.00    +0.077 A 
ATOM      5  C   UNL     1      27.723-129.849   6.959  0.00  0.00    +0.048 A 
ATOM      6  C   UNL     1      26.549-129.446   6.284  0.00  0.00    +0.116 A 
ATOM      7  N   UNL     1      25.715-128.505   6.848  0.00  0.00    -0.223 NA
ATOM      8  C   UNL     1      26.005-127.940   8.076  0.00  0.00    +0.220 A 
ATOM      9  N   UNL     1      25.184-126.986   8.658  0.00  0.00    -0.283 N 
ATOM     36  H   UNL     1      25.429-126.598   9.569  0.00  0.00    +0.155 HD
ATOM     37  N   UNL     1      27.119-128.309   8.741  0.00  0.00    -0.214 NA
BRANCH   4   3
ATOM      1  C   UNL     1      30.306-130.185  11.240  0.00  0.00    +0.020 A 
ATOM      2  C   UNL     1      29.114-129.884  10.482  0.00  0.00    +0.013 A 
ATOM      3  C   UNL     1      29.196-129.561   9.063  0.00  0.00    +0.019 A 
ATOM     38  C   UNL     1      30.510-129.552   8.437  0.00  0.00    +0.120 A 
ATOM     39  N   UNL     1      31.640-129.845   9.193  0.00  0.00    -0.263 NA
ATOM     40  C   UNL     1      31.574-130.155  10.560  0.00  0.00    +0.111 A 
ENDBRANCH   4   3
ENDBRANCH  10   9
BRANCH  12  13
ATOM     13  N   UNL     1      22.937-123.723   5.648  0.00  0.00    -0.281 N 
ATOM     14  C   UNL     1      22.878-123.675   4.265  0.00  0.00    +0.248 C 
ATOM     30  O   UNL     1      23.021-124.643   3.534  0.00  0.00    -0.270 OA
ATOM     31  H   UNL     1      22.997-122.824   6.126  0.00  0.00    +0.155 HD
BRANCH  14  15
ATOM     15  C   UNL     1      22.640-122.359   3.598  0.00  0.00    +0.037 A 
ATOM     16  C   UNL     1      23.516-121.211   3.847  0.00  0.00    +0.013 A 
ATOM     17  C   UNL     1      23.254-119.949   3.203  0.00  0.00    +0.005 A 
ATOM     18  C   UNL     1      22.110-119.828   2.302  0.00  0.00    -0.033 A 
ATOM     28  C   UNL     1      21.261-120.984   2.069  0.00  0.00    +0.005 A 
ATOM     29  C   UNL     1      21.514-122.223   2.699  0.00  0.00    +0.013 A 
BRANCH  18  19
ATOM     19  C   UNL     1      21.743-118.513   1.589  0.00  0.00    +0.119 C 
BRANCH  19  20
ATOM     20  N   UNL     1      21.820-117.255   2.390  0.00  0.00    -0.302 NA
ATOM     21  C   UNL     1      20.564-116.394   2.230  0.00  0.00    +0.066 C 
ATOM     22  C   UNL     1      20.652-115.093   3.093  0.00  0.00    -0.064 C 
ATOM     23  N   UNL     1      21.903-114.306   2.698  0.00  0.00    +0.379 N 
ATOM     24  C   UNL     1      21.957-113.054   3.467  0.00  0.00    -0.096 C 
ATOM     25  H   UNL     1      21.807-114.038   1.620  0.00  0.00    -0.082 HD
ATOM     26  C   UNL     1      23.156-115.156   2.852  0.00  0.00    -0.064 C 
ATOM     27  C   UNL     1      23.046-116.460   2.013  0.00  0.00    +0.066 C 
ENDBRANCH  19  20
ENDBRANCH  18  19
ENDBRANCH  14  15
ENDBRANCH  12  13
TORSDOF 6
ENDMDL
