MODEL 1
REMARK VINA RESULT:     -10.1      0.000      0.000
REMARK  Name = C:\Users\Docking\Desktop\test protocol\1iep_ligandH.pdb
REMARK  8 active torsions:
REMARK  status: ('A' for Active; 'I' for Inactive)
REMARK    1  A    between atoms: _5  and  _11
REMARK    2  A    between atoms: _19  and  _21
REMARK    3  A    between atoms: _22  and  _66
REMARK    4  A    between atoms: _27  and  _30
REMARK    5  A    between atoms: _32  and  _33
REMARK    6  A    between atoms: _38  and  _43
REMARK    7  A    between atoms: _43  and  _46
REMARK    8  A    between atoms: _53  and  _55
REMARK                            x       y       z     vdW  Elec       q    Type
REMARK                         _______ _______ _______ _____ _____    ______ ____
ROOT
ATOM     10  C   UNL     1      21.407  25.127  18.510  0.00  0.00    +0.038 A 
ATOM     11  C   UNL     1      20.576  24.335  19.343  0.00  0.00    +0.047 A 
ATOM     12  C   UNL     1      21.079  23.765  20.583  0.00  0.00    +0.035 A 
ATOM     32  C   UNL     1      22.433  24.025  20.946  0.00  0.00    +0.024 A 
ATOM     33  C   UNL     1      23.291  24.827  20.111  0.00  0.00    +0.007 A 
ATOM     34  C   UNL     1      22.802  25.389  18.885  0.00  0.00    -0.029 A 
ATOM     35  C   UNL     1      23.769  26.236  18.025  0.00  0.00    +0.045 C 
ENDROOT
BRANCH  10   9
ATOM      4  C   UNL     1      20.155  24.734  13.893  0.00  0.00    +0.077 A 
ATOM      5  C   UNL     1      20.630  23.382  13.818  0.00  0.00    +0.048 A 
ATOM      6  C   UNL     1      21.196  22.828  14.988  0.00  0.00    +0.116 A 
ATOM      7  N   UNL     1      21.276  23.578  16.141  0.00  0.00    -0.223 NA
ATOM      8  C   UNL     1      20.810  24.879  16.179  0.00  0.00    +0.220 A 
ATOM      9  N   UNL     1      20.872  25.649  17.330  0.00  0.00    -0.283 N 
ATOM     36  H   UNL     1      20.524  26.607  17.315  0.00  0.00    +0.155 HD
ATOM     37  N   UNL     1      20.266  25.432  15.075  0.00  0.00    -0.214 NA
BRANCH   4   3
ATOM      1  C   UNL     1      18.017  25.567  10.725  0.00  0.00    +0.020 A 
ATOM      2  C   UNL     1      18.594  24.823  11.821  0.00  0.00    +0.013 A 
ATOM      3  C   UNL     1      19.528  25.458  12.742  0.00  0.00    +0.019 A 
ATOM     38  C   UNL     1      19.858  26.858  12.527  0.00  0.00    +0.120 A 
ATOM     39  N   UNL     1      19.287  27.550  11.463  0.00  0.00    -0.263 NA
ATOM     40  C   UNL     1      18.389  26.949  10.568  0.00  0.00    +0.111 A 
ENDBRANCH   4   3
ENDBRANCH  10   9
BRANCH  12  13
ATOM     13  N   UNL     1      20.285  22.946  21.465  0.00  0.00    -0.281 N 
ATOM     14  C   UNL     1      20.663  22.377  22.670  0.00  0.00    +0.248 C 
ATOM     30  O   UNL     1      21.816  22.309  23.071  0.00  0.00    -0.270 OA
ATOM     31  H   UNL     1      19.327  22.764  21.165  0.00  0.00    +0.155 HD
BRANCH  14  15
ATOM     15  C   UNL     1      19.611  21.785  23.552  0.00  0.00    +0.037 A 
ATOM     16  C   UNL     1      18.753  20.694  23.083  0.00  0.00    +0.013 A 
ATOM     17  C   UNL     1      17.735  20.152  23.947  0.00  0.00    +0.005 A 
ATOM     18  C   UNL     1      17.570  20.701  25.291  0.00  0.00    -0.033 A 
ATOM     28  C   UNL     1      18.438  21.780  25.732  0.00  0.00    +0.005 A 
ATOM     29  C   UNL     1      19.437  22.314  24.887  0.00  0.00    +0.013 A 
BRANCH  18  19
ATOM     19  C   UNL     1      16.495  20.199  26.274  0.00  0.00    +0.119 C 
BRANCH  19  20
ATOM     20  N   UNL     1      16.888  20.070  27.709  0.00  0.00    -0.302 NA
ATOM     21  C   UNL     1      17.659  18.775  27.978  0.00  0.00    +0.066 C 
ATOM     22  C   UNL     1      18.082  18.666  29.480  0.00  0.00    -0.064 C 
ATOM     23  N   UNL     1      16.837  18.749  30.364  0.00  0.00    +0.379 N 
ATOM     24  C   UNL     1      17.224  18.589  31.773  0.00  0.00    -0.096 C 
ATOM     25  H   UNL     1      16.174  17.893  30.096  0.00  0.00    -0.082 HD
ATOM     26  C   UNL     1      16.062  20.032  30.101  0.00  0.00    -0.064 C 
ATOM     27  C   UNL     1      15.673  20.145  28.600  0.00  0.00    +0.066 C 
ENDBRANCH  19  20
ENDBRANCH  18  19
ENDBRANCH  14  15
ENDBRANCH  12  13
TORSDOF 6
ENDMDL
MODEL 2
REMARK VINA RESULT:      -9.7      1.797      2.419
REMARK  Name = C:\Users\Docking\Desktop\test protocol\1iep_ligandH.pdb
REMARK  8 active torsions:
REMARK  status: ('A' for Active; 'I' for Inactive)
REMARK    1  A    between atoms: _5  and  _11
REMARK    2  A    between atoms: _19  and  _21
REMARK    3  A    between atoms: _22  and  _66
REMARK    4  A    between atoms: _27  and  _30
REMARK    5  A    between atoms: _32  and  _33
REMARK    6  A    between atoms: _38  and  _43
REMARK    7  A    between atoms: _43  and  _46
REMARK    8  A    between atoms: _53  and  _55
REMARK                            x       y       z     vdW  Elec       q    Type
REMARK                         _______ _______ _______ _____ _____    ______ ____
ROOT
ATOM     10  C   UNL     1      21.670  24.515  19.786  0.00  0.00    +0.038 A 
ATOM     11  C   UNL     1      20.681  24.108  20.718  0.00  0.00    +0.047 A 
ATOM     12  C   UNL     1      21.047  23.475  21.975  0.00  0.00    +0.035 A 
ATOM     32  C   UNL     1      22.430  23.273  22.253  0.00  0.00    +0.024 A 
ATOM     33  C   UNL     1      23.449  23.679  21.316  0.00  0.00    +0.007 A 
ATOM     34  C   UNL     1      23.094  24.302  20.073  0.00  0.00    -0.029 A 
ATOM     35  C   UNL     1      24.227  24.710  19.104  0.00  0.00    +0.045 C 
ENDROOT
BRANCH  10   9
ATOM      4  C   UNL     1      20.385  24.318  15.166  0.00  0.00    +0.077 A 
ATOM      5  C   UNL     1      20.567  22.896  15.114  0.00  0.00    +0.048 A 
ATOM      6  C   UNL     1      20.999  22.254  16.297  0.00  0.00    +0.116 A 
ATOM      7  N   UNL     1      21.229  22.989  17.439  0.00  0.00    -0.223 NA
ATOM      8  C   UNL     1      21.045  24.360  17.454  0.00  0.00    +0.220 A 
ATOM      9  N   UNL     1      21.262  25.118  18.594  0.00  0.00    -0.283 N 
ATOM     36  H   UNL     1      21.123  26.128  18.563  0.00  0.00    +0.155 HD
ATOM     37  N   UNL     1      20.634  24.997  16.338  0.00  0.00    -0.214 NA
BRANCH   4   3
ATOM      1  C   UNL     1      19.061  25.388  11.644  0.00  0.00    +0.020 A 
ATOM      2  C   UNL     1      19.492  24.551  12.740  0.00  0.00    +0.013 A 
ATOM      3  C   UNL     1      19.929  25.139  14.000  0.00  0.00    +0.019 A 
ATOM     38  C   UNL     1      19.917  26.589  14.120  0.00  0.00    +0.120 A 
ATOM     39  N   UNL     1      19.498  27.370  13.047  0.00  0.00    -0.263 NA
ATOM     40  C   UNL     1      19.077  26.816  11.829  0.00  0.00    +0.111 A 
ENDBRANCH   4   3
ENDBRANCH  10   9
BRANCH  12  13
ATOM     13  N   UNL     1      20.087  23.034  22.957  0.00  0.00    -0.281 N 
ATOM     14  C   UNL     1      19.564  21.762  23.126  0.00  0.00    +0.248 C 
ATOM     30  O   UNL     1      19.684  20.853  22.318  0.00  0.00    -0.270 OA
ATOM     31  H   UNL     1      19.751  23.746  23.605  0.00  0.00    +0.155 HD
BRANCH  14  15
ATOM     15  C   UNL     1      18.784  21.461  24.364  0.00  0.00    +0.037 A 
ATOM     16  C   UNL     1      18.000  20.229  24.488  0.00  0.00    +0.013 A 
ATOM     17  C   UNL     1      17.243  19.971  25.686  0.00  0.00    +0.005 A 
ATOM     18  C   UNL     1      17.267  20.948  26.773  0.00  0.00    -0.033 A 
ATOM     28  C   UNL     1      18.057  22.159  26.626  0.00  0.00    +0.005 A 
ATOM     29  C   UNL     1      18.799  22.416  25.452  0.00  0.00    +0.013 A 
BRANCH  18  19
ATOM     19  C   UNL     1      16.472  20.765  28.079  0.00  0.00    +0.119 C 
BRANCH  19  20
ATOM     20  N   UNL     1      15.158  20.060  27.988  0.00  0.00    -0.302 NA
ATOM     21  C   UNL     1      14.155  20.826  27.120  0.00  0.00    +0.066 C 
ATOM     22  C   UNL     1      12.794  20.063  27.016  0.00  0.00    -0.064 C 
ATOM     23  N   UNL     1      12.232  19.836  28.421  0.00  0.00    +0.379 N 
ATOM     24  C   UNL     1      10.924  19.171  28.324  0.00  0.00    -0.096 C 
ATOM     25  H   UNL     1      12.070  20.836  28.886  0.00  0.00    -0.082 HD
ATOM     26  C   UNL     1      13.224  19.078  29.291  0.00  0.00    -0.064 C 
ATOM     27  C   UNL     1      14.583  19.829  29.364  0.00  0.00    +0.066 C 
ENDBRANCH  19  20
ENDBRANCH  18  19
ENDBRANCH  14  15
ENDBRANCH  12  13
TORSDOF 6
ENDMDL
MODEL 3
REMARK VINA RESULT:      -9.6     27.057     30.209
REMARK  Name = C:\Users\Docking\Desktop\test protocol\1iep_ligandH.pdb
REMARK  8 active torsions:
REMARK  status: ('A' for Active; 'I' for Inactive)
REMARK    1  A    between atoms: _5  and  _11
REMARK    2  A    between atoms: _19  and  _21
REMARK    3  A    between atoms: _22  and  _66
REMARK    4  A    between atoms: _27  and  _30
REMARK    5  A    between atoms: _32  and  _33
REMARK    6  A    between atoms: _38  and  _43
REMARK    7  A    between atoms: _43  and  _46
REMARK    8  A    between atoms: _53  and  _55
REMARK                            x       y       z     vdW  Elec       q    Type
REMARK                         _______ _______ _______ _____ _____    ______ ____
ROOT
ATOM     10  C   UNL     1      -3.067  38.333  24.214  0.00  0.00    +0.038 A 
ATOM     11  C   UNL     1      -2.441  39.374  23.483  0.00  0.00    +0.047 A 
ATOM     12  C   UNL     1      -2.621  40.769  23.855  0.00  0.00    +0.035 A 
ATOM     32  C   UNL     1      -3.443  41.067  24.981  0.00  0.00    +0.024 A 
ATOM     33  C   UNL     1      -4.087  40.021  25.736  0.00  0.00    +0.007 A 
ATOM     34  C   UNL     1      -3.916  38.643  25.371  0.00  0.00    -0.029 A 
ATOM     35  C   UNL     1      -4.637  37.564  26.212  0.00  0.00    +0.045 C 
ENDROOT
BRANCH  10   9
ATOM      4  C   UNL     1      -4.156  34.506  21.530  0.00  0.00    +0.077 A 
ATOM      5  C   UNL     1      -5.245  35.188  20.894  0.00  0.00    +0.048 A 
ATOM      6  C   UNL     1      -5.497  36.520  21.291  0.00  0.00    +0.116 A 
ATOM      7  N   UNL     1      -4.711  37.116  22.253  0.00  0.00    -0.223 NA
ATOM      8  C   UNL     1      -3.669  36.429  22.848  0.00  0.00    +0.220 A 
ATOM      9  N   UNL     1      -2.861  37.011  23.812  0.00  0.00    -0.283 N 
ATOM     36  H   UNL     1      -2.107  36.469  24.233  0.00  0.00    +0.155 HD
ATOM     37  N   UNL     1      -3.409  35.155  22.487  0.00  0.00    -0.214 NA
BRANCH   4   3
ATOM      1  C   UNL     1      -2.602  30.923  21.761  0.00  0.00    +0.020 A 
ATOM      2  C   UNL     1      -2.953  32.280  22.112  0.00  0.00    +0.013 A 
ATOM      3  C   UNL     1      -3.763  33.096  21.216  0.00  0.00    +0.019 A 
ATOM     38  C   UNL     1      -4.205  32.503  19.962  0.00  0.00    +0.120 A 
ATOM     39  N   UNL     1      -3.850  31.195  19.650  0.00  0.00    -0.263 NA
ATOM     40  C   UNL     1      -3.070  30.401  20.504  0.00  0.00    +0.111 A 
ENDBRANCH   4   3
ENDBRANCH  10   9
BRANCH  12  13
ATOM     13  N   UNL     1      -2.017  41.869  23.145  0.00  0.00    -0.281 N 
ATOM     14  C   UNL     1      -1.198  41.816  22.029  0.00  0.00    +0.248 C 
ATOM     30  O   UNL     1      -0.685  40.794  21.597  0.00  0.00    -0.270 OA
ATOM     31  H   UNL     1      -2.218  42.800  23.510  0.00  0.00    +0.155 HD
BRANCH  14  15
ATOM     15  C   UNL     1      -0.894  43.082  21.296  0.00  0.00    +0.037 A 
ATOM     16  C   UNL     1       0.199  43.153  20.323  0.00  0.00    +0.013 A 
ATOM     17  C   UNL     1       0.482  44.391  19.642  0.00  0.00    +0.005 A 
ATOM     18  C   UNL     1      -0.333  45.569  19.930  0.00  0.00    -0.033 A 
ATOM     28  C   UNL     1      -1.414  45.470  20.896  0.00  0.00    +0.005 A 
ATOM     29  C   UNL     1      -1.694  44.258  21.566  0.00  0.00    +0.013 A 
BRANCH  18  19
ATOM     19  C   UNL     1      -0.089  46.937  19.266  0.00  0.00    +0.119 C 
BRANCH  19  20
ATOM     20  N   UNL     1      -0.719  47.172  17.933  0.00  0.00    -0.302 NA
ATOM     21  C   UNL     1      -1.759  46.100  17.592  0.00  0.00    +0.066 C 
ATOM     22  C   UNL     1      -2.424  46.374  16.204  0.00  0.00    -0.064 C 
ATOM     23  N   UNL     1      -1.341  46.440  15.126  0.00  0.00    +0.379 N 
ATOM     24  C   UNL     1      -1.968  46.640  13.811  0.00  0.00    -0.096 C 
ATOM     25  H   UNL     1      -0.822  45.454  15.107  0.00  0.00    -0.082 HD
ATOM     26  C   UNL     1      -0.302  47.502  15.458  0.00  0.00    -0.064 C 
ATOM     27  C   UNL     1       0.332  47.237  16.853  0.00  0.00    +0.066 C 
ENDBRANCH  19  20
ENDBRANCH  18  19
ENDBRANCH  14  15
ENDBRANCH  12  13
TORSDOF 6
ENDMDL
MODEL 4
REMARK VINA RESULT:      -9.6     26.814     28.153
REMARK  Name = C:\Users\Docking\Desktop\test protocol\1iep_ligandH.pdb
REMARK  8 active torsions:
REMARK  status: ('A' for Active; 'I' for Inactive)
REMARK    1  A    between atoms: _5  and  _11
REMARK    2  A    between atoms: _19  and  _21
REMARK    3  A    between atoms: _22  and  _66
REMARK    4  A    between atoms: _27  and  _30
REMARK    5  A    between atoms: _32  and  _33
REMARK    6  A    between atoms: _38  and  _43
REMARK    7  A    between atoms: _43  and  _46
REMARK    8  A    between atoms: _53  and  _55
REMARK                            x       y       z     vdW  Elec       q    Type
REMARK                         _______ _______ _______ _____ _____    ______ ____
ROOT
ATOM     10  C   UNL     1      -2.308  41.522  23.104  0.00  0.00    +0.038 A 
ATOM     11  C   UNL     1      -3.046  40.467  22.507  0.00  0.00    +0.047 A 
ATOM     12  C   UNL     1      -3.280  39.218  23.214  0.00  0.00    +0.035 A 
ATOM     32  C   UNL     1      -2.751  39.078  24.530  0.00  0.00    +0.024 A 
ATOM     33  C   UNL     1      -1.998  40.139  25.152  0.00  0.00    +0.007 A 
ATOM     34  C   UNL     1      -1.762  41.372  24.458  0.00  0.00    -0.029 A 
ATOM     35  C   UNL     1      -0.942  42.473  25.171  0.00  0.00    +0.045 C 
ENDROOT
BRANCH  10   9
ATOM      4  C   UNL     1       0.129  44.197  19.951  0.00  0.00    +0.077 A 
ATOM      5  C   UNL     1       1.111  43.171  19.750  0.00  0.00    +0.048 A 
ATOM      6  C   UNL     1       0.957  41.973  20.483  0.00  0.00    +0.116 A 
ATOM      7  N   UNL     1      -0.104  41.823  21.349  0.00  0.00    -0.223 NA
ATOM      8  C   UNL     1      -1.033  42.832  21.520  0.00  0.00    +0.220 A 
ATOM      9  N   UNL     1      -2.113  42.699  22.379  0.00  0.00    -0.283 N 
ATOM     36  H   UNL     1      -2.773  43.470  22.483  0.00  0.00    +0.155 HD
ATOM     37  N   UNL     1      -0.908  43.987  20.833  0.00  0.00    -0.214 NA
BRANCH   4   3
ATOM      1  C   UNL     1       1.220  47.733  18.685  0.00  0.00    +0.020 A 
ATOM      2  C   UNL     1       1.246  46.471  19.387  0.00  0.00    +0.013 A 
ATOM      3  C   UNL     1       0.152  45.518  19.246  0.00  0.00    +0.019 A 
ATOM     38  C   UNL     1      -0.960  45.875  18.379  0.00  0.00    +0.120 A 
ATOM     39  N   UNL     1      -0.958  47.098  17.717  0.00  0.00    -0.263 NA
ATOM     40  C   UNL     1       0.088  48.024  17.846  0.00  0.00    +0.111 A 
ENDBRANCH   4   3
ENDBRANCH  10   9
BRANCH  12  13
ATOM     13  N   UNL     1      -4.014  38.110  22.656  0.00  0.00    -0.281 N 
ATOM     14  C   UNL     1      -3.779  37.447  21.462  0.00  0.00    +0.248 C 
ATOM     30  O   UNL     1      -3.026  37.847  20.587  0.00  0.00    -0.270 OA
ATOM     31  H   UNL     1      -4.804  37.773  23.207  0.00  0.00    +0.155 HD
BRANCH  14  15
ATOM     15  C   UNL     1      -4.493  36.161  21.197  0.00  0.00    +0.037 A 
ATOM     16  C   UNL     1      -5.808  36.142  20.550  0.00  0.00    +0.013 A 
ATOM     17  C   UNL     1      -6.483  34.889  20.321  0.00  0.00    +0.005 A 
ATOM     18  C   UNL     1      -5.843  33.644  20.740  0.00  0.00    -0.033 A 
ATOM     28  C   UNL     1      -4.537  33.692  21.375  0.00  0.00    +0.005 A 
ATOM     29  C   UNL     1      -3.872  34.918  21.602  0.00  0.00    +0.013 A 
BRANCH  18  19
ATOM     19  C   UNL     1      -6.499  32.263  20.555  0.00  0.00    +0.119 C 
BRANCH  19  20
ATOM     20  N   UNL     1      -5.868  31.106  21.258  0.00  0.00    -0.302 NA
ATOM     21  C   UNL     1      -5.170  30.154  20.284  0.00  0.00    +0.066 C 
ATOM     22  C   UNL     1      -4.496  28.962  21.038  0.00  0.00    -0.064 C 
ATOM     23  N   UNL     1      -5.552  28.219  21.858  0.00  0.00    +0.379 N 
ATOM     24  C   UNL     1      -4.932  27.062  22.523  0.00  0.00    -0.096 C 
ATOM     25  H   UNL     1      -6.319  27.830  21.149  0.00  0.00    -0.082 HD
ATOM     26  C   UNL     1      -6.253  29.159  22.828  0.00  0.00    -0.064 C 
ATOM     27  C   UNL     1      -6.894  30.356  22.071  0.00  0.00    +0.066 C 
ENDBRANCH  19  20
ENDBRANCH  18  19
ENDBRANCH  14  15
ENDBRANCH  12  13
TORSDOF 6
ENDMDL
MODEL 5
REMARK VINA RESULT:      -9.5     25.508     26.943
REMARK  Name = C:\Users\Docking\Desktop\test protocol\1iep_ligandH.pdb
REMARK  8 active torsions:
REMARK  status: ('A' for Active; 'I' for Inactive)
REMARK    1  A    between atoms: _5  and  _11
REMARK    2  A    between atoms: _19  and  _21
REMARK    3  A    between atoms: _22  and  _66
REMARK    4  A    between atoms: _27  and  _30
REMARK    5  A    between atoms: _32  and  _33
REMARK    6  A    between atoms: _38  and  _43
REMARK    7  A    between atoms: _43  and  _46
REMARK    8  A    between atoms: _53  and  _55
REMARK                            x       y       z     vdW  Elec       q    Type
REMARK                         _______ _______ _______ _____ _____    ______ ____
ROOT
ATOM     10  C   UNL     1      -4.545  38.152  21.042  0.00  0.00    +0.038 A 
ATOM     11  C   UNL     1      -4.078  36.814  20.975  0.00  0.00    +0.047 A 
ATOM     12  C   UNL     1      -4.977  35.691  21.193  0.00  0.00    +0.035 A 
ATOM     32  C   UNL     1      -6.346  35.967  21.475  0.00  0.00    +0.024 A 
ATOM     33  C   UNL     1      -6.838  37.321  21.548  0.00  0.00    +0.007 A 
ATOM     34  C   UNL     1      -5.955  38.432  21.337  0.00  0.00    -0.029 A 
ATOM     35  C   UNL     1      -6.536  39.863  21.434  0.00  0.00    +0.045 C 
ENDROOT
BRANCH  10   9
ATOM      4  C   UNL     1      -1.236  41.272  22.574  0.00  0.00    +0.077 A 
ATOM      5  C   UNL     1      -1.341  40.810  23.928  0.00  0.00    +0.048 A 
ATOM      6  C   UNL     1      -2.264  39.773  24.190  0.00  0.00    +0.116 A 
ATOM      7  N   UNL     1      -3.019  39.244  23.166  0.00  0.00    -0.223 NA
ATOM      8  C   UNL     1      -2.894  39.714  21.871  0.00  0.00    +0.220 A 
ATOM      9  N   UNL     1      -3.638  39.192  20.824  0.00  0.00    -0.283 N 
ATOM     36  H   UNL     1      -3.522  39.571  19.885  0.00  0.00    +0.155 HD
ATOM     37  N   UNL     1      -2.021  40.705  21.596  0.00  0.00    -0.214 NA
BRANCH   4   3
ATOM      1  C   UNL     1       1.211  43.465  20.450  0.00  0.00    +0.020 A 
ATOM      2  C   UNL     1       0.318  42.391  20.821  0.00  0.00    +0.013 A 
ATOM      3  C   UNL     1      -0.303  42.360  22.139  0.00  0.00    +0.019 A 
ATOM     38  C   UNL     1       0.002  43.439  23.066  0.00  0.00    +0.120 A 
ATOM     39  N   UNL     1       0.867  44.459  22.682  0.00  0.00    -0.263 NA
ATOM     40  C   UNL     1       1.472  44.499  21.417  0.00  0.00    +0.111 A 
ENDBRANCH   4   3
ENDBRANCH  10   9
BRANCH  12  13
ATOM     13  N   UNL     1      -4.558  34.313  21.145  0.00  0.00    -0.281 N 
ATOM     14  C   UNL     1      -3.871  33.597  22.112  0.00  0.00    +0.248 C 
ATOM     30  O   UNL     1      -3.323  34.097  23.083  0.00  0.00    -0.270 OA
ATOM     31  H   UNL     1      -4.797  33.802  20.294  0.00  0.00    +0.155 HD
BRANCH  14  15
ATOM     15  C   UNL     1      -3.767  32.112  21.973  0.00  0.00    +0.037 A 
ATOM     16  C   UNL     1      -2.581  31.486  21.382  0.00  0.00    +0.013 A 
ATOM     17  C   UNL     1      -2.513  30.053  21.245  0.00  0.00    +0.005 A 
ATOM     18  C   UNL     1      -3.635  29.235  21.701  0.00  0.00    -0.033 A 
ATOM     28  C   UNL     1      -4.796  29.882  22.288  0.00  0.00    +0.005 A 
ATOM     29  C   UNL     1      -4.867  31.287  22.424  0.00  0.00    +0.013 A 
BRANCH  18  19
ATOM     19  C   UNL     1      -3.657  27.701  21.574  0.00  0.00    +0.119 C 
BRANCH  19  20
ATOM     20  N   UNL     1      -3.974  26.917  22.805  0.00  0.00    -0.302 NA
ATOM     21  C   UNL     1      -2.851  25.942  23.170  0.00  0.00    +0.066 C 
ATOM     22  C   UNL     1      -3.189  25.147  24.473  0.00  0.00    -0.064 C 
ATOM     23  N   UNL     1      -4.512  24.404  24.285  0.00  0.00    +0.379 N 
ATOM     24  C   UNL     1      -4.803  23.609  25.488  0.00  0.00    -0.096 C 
ATOM     25  H   UNL     1      -4.384  23.695  23.434  0.00  0.00    -0.082 HD
ATOM     26  C   UNL     1      -5.634  25.366  23.920  0.00  0.00    -0.064 C 
ATOM     27  C   UNL     1      -5.275  26.172  22.640  0.00  0.00    +0.066 C 
ENDBRANCH  19  20
ENDBRANCH  18  19
ENDBRANCH  14  15
ENDBRANCH  12  13
TORSDOF 6
ENDMDL
