MODEL 1
REMARK VINA RESULT:      -9.6      0.000      0.000
REMARK  Name = C:\Users\Docking\Desktop\test protocol\1iep_ligandH.pdb
REMARK  8 active torsions:
REMARK  status: ('A' for Active; 'I' for Inactive)
REMARK    1  A    between atoms: _5  and  _11
REMARK    2  A    between atoms: _19  and  _21
REMARK    3  A    between atoms: _22  and  _66
REMARK    4  A    between atoms: _27  and  _30
REMARK    5  A    between atoms: _32  and  _33
REMARK    6  A    between atoms: _38  and  _43
REMARK    7  A    between atoms: _43  and  _46
REMARK    8  A    between atoms: _53  and  _55
REMARK                            x       y       z     vdW  Elec       q    Type
REMARK                         _______ _______ _______ _____ _____    ______ ____
ROOT
ATOM     10  C   UNL     1      21.487  24.502  19.765  0.00  0.00    +0.038 A 
ATOM     11  C   UNL     1      20.390  23.947  20.473  0.00  0.00    +0.047 A 
ATOM     12  C   UNL     1      20.596  23.140  21.666  0.00  0.00    +0.035 A 
ATOM     32  C   UNL     1      21.932  22.922  22.112  0.00  0.00    +0.024 A 
ATOM     33  C   UNL     1      23.058  23.478  21.404  0.00  0.00    +0.007 A 
ATOM     34  C   UNL     1      22.862  24.272  20.225  0.00  0.00    -0.029 A 
ATOM     35  C   UNL     1      24.106  24.837  19.503  0.00  0.00    +0.045 C 
ENDROOT
BRANCH  10   9
ATOM      4  C   UNL     1      20.510  24.934  15.086  0.00  0.00    +0.077 A 
ATOM      5  C   UNL     1      20.537  23.513  14.889  0.00  0.00    +0.048 A 
ATOM      6  C   UNL     1      20.813  22.707  16.016  0.00  0.00    +0.116 A 
ATOM      7  N   UNL     1      21.043  23.289  17.244  0.00  0.00    -0.223 NA
ATOM      8  C   UNL     1      21.011  24.662  17.399  0.00  0.00    +0.220 A 
ATOM      9  N   UNL     1      21.232  25.269  18.626  0.00  0.00    -0.283 N 
ATOM     36  H   UNL     1      21.207  26.286  18.698  0.00  0.00    +0.155 HD
ATOM     37  N   UNL     1      20.752  25.454  16.338  0.00  0.00    -0.214 NA
BRANCH   4   3
ATOM      1  C   UNL     1      19.683  26.509  11.602  0.00  0.00    +0.020 A 
ATOM      2  C   UNL     1      19.948  25.518  12.620  0.00  0.00    +0.013 A 
ATOM      3  C   UNL     1      20.230  25.918  13.993  0.00  0.00    +0.019 A 
ATOM     38  C   UNL     1      20.236  27.339  14.306  0.00  0.00    +0.120 A 
ATOM     39  N   UNL     1      19.979  28.271  13.304  0.00  0.00    -0.263 NA
ATOM     40  C   UNL     1      19.708  27.898  11.979  0.00  0.00    +0.111 A 
ENDBRANCH   4   3
ENDBRANCH  10   9
BRANCH  12  13
ATOM     13  N   UNL     1      19.522  22.544  22.422  0.00  0.00    -0.281 N 
ATOM     14  C   UNL     1      19.611  21.582  23.414  0.00  0.00    +0.248 C 
ATOM     30  O   UNL     1      20.615  20.929  23.655  0.00  0.00    -0.270 OA
ATOM     31  H   UNL     1      18.582  22.871  22.198  0.00  0.00    +0.155 HD
BRANCH  14  15
ATOM     15  C   UNL     1      18.406  21.292  24.249  0.00  0.00    +0.037 A 
ATOM     16  C   UNL     1      17.543  22.371  24.738  0.00  0.00    +0.013 A 
ATOM     17  C   UNL     1      16.396  22.066  25.557  0.00  0.00    +0.005 A 
ATOM     18  C   UNL     1      16.105  20.674  25.890  0.00  0.00    -0.033 A 
ATOM     28  C   UNL     1      16.974  19.623  25.388  0.00  0.00    +0.005 A 
ATOM     29  C   UNL     1      18.100  19.918  24.586  0.00  0.00    +0.013 A 
BRANCH  18  19
ATOM     19  C   UNL     1      14.915  20.257  26.775  0.00  0.00    +0.119 C 
BRANCH  19  20
ATOM     20  N   UNL     1      15.223  19.794  28.161  0.00  0.00    -0.302 NA
ATOM     21  C   UNL     1      14.160  20.247  29.167  0.00  0.00    +0.066 C 
ATOM     22  C   UNL     1      14.486  19.735  30.608  0.00  0.00    -0.064 C 
ATOM     23  N   UNL     1      15.871  20.234  31.022  0.00  0.00    +0.379 N 
ATOM     24  C   UNL     1      16.156  19.803  32.399  0.00  0.00    -0.096 C 
ATOM     25  H   UNL     1      15.845  21.348  31.015  0.00  0.00    -0.082 HD
ATOM     26  C   UNL     1      16.933  19.791  30.026  0.00  0.00    -0.064 C 
ATOM     27  C   UNL     1      16.585  20.280  28.592  0.00  0.00    +0.066 C 
ENDBRANCH  19  20
ENDBRANCH  18  19
ENDBRANCH  14  15
ENDBRANCH  12  13
TORSDOF 6
ENDMDL
MODEL 2
REMARK VINA RESULT:      -9.3      1.624      2.368
REMARK  Name = C:\Users\Docking\Desktop\test protocol\1iep_ligandH.pdb
REMARK  8 active torsions:
REMARK  status: ('A' for Active; 'I' for Inactive)
REMARK    1  A    between atoms: _5  and  _11
REMARK    2  A    between atoms: _19  and  _21
REMARK    3  A    between atoms: _22  and  _66
REMARK    4  A    between atoms: _27  and  _30
REMARK    5  A    between atoms: _32  and  _33
REMARK    6  A    between atoms: _38  and  _43
REMARK    7  A    between atoms: _43  and  _46
REMARK    8  A    between atoms: _53  and  _55
REMARK                            x       y       z     vdW  Elec       q    Type
REMARK                         _______ _______ _______ _____ _____    ______ ____
ROOT
ATOM     10  C   UNL     1      21.629  24.803  18.001  0.00  0.00    +0.038 A 
ATOM     11  C   UNL     1      20.824  24.181  18.989  0.00  0.00    +0.047 A 
ATOM     12  C   UNL     1      21.360  23.139  19.850  0.00  0.00    +0.035 A 
ATOM     32  C   UNL     1      22.723  22.757  19.680  0.00  0.00    +0.024 A 
ATOM     33  C   UNL     1      23.556  23.378  18.680  0.00  0.00    +0.007 A 
ATOM     34  C   UNL     1      23.031  24.404  17.826  0.00  0.00    -0.029 A 
ATOM     35  C   UNL     1      23.968  25.031  16.767  0.00  0.00    +0.045 C 
ENDROOT
BRANCH  10   9
ATOM      4  C   UNL     1      19.767  26.354  13.858  0.00  0.00    +0.077 A 
ATOM      5  C   UNL     1      19.965  25.082  13.225  0.00  0.00    +0.048 A 
ATOM      6  C   UNL     1      20.555  24.057  13.998  0.00  0.00    +0.116 A 
ATOM      7  N   UNL     1      20.917  24.298  15.305  0.00  0.00    -0.223 NA
ATOM      8  C   UNL     1      20.714  25.537  15.885  0.00  0.00    +0.220 A 
ATOM      9  N   UNL     1      21.063  25.798  17.201  0.00  0.00    -0.283 N 
ATOM     36  H   UNL     1      20.904  26.727  17.590  0.00  0.00    +0.155 HD
ATOM     37  N   UNL     1      20.153  26.532  15.168  0.00  0.00    -0.214 NA
BRANCH   4   3
ATOM      1  C   UNL     1      17.659  28.582  11.431  0.00  0.00    +0.020 A 
ATOM      2  C   UNL     1      18.225  27.410  12.057  0.00  0.00    +0.013 A 
ATOM      3  C   UNL     1      19.153  27.535  13.173  0.00  0.00    +0.019 A 
ATOM     38  C   UNL     1      19.489  28.873  13.637  0.00  0.00    +0.120 A 
ATOM     39  N   UNL     1      18.930  29.984  13.014  0.00  0.00    -0.263 NA
ATOM     40  C   UNL     1      18.037  29.875  11.937  0.00  0.00    +0.111 A 
ENDBRANCH   4   3
ENDBRANCH  10   9
BRANCH  12  13
ATOM     13  N   UNL     1      20.588  22.465  20.865  0.00  0.00    -0.281 N 
ATOM     14  C   UNL     1      20.686  22.602  22.240  0.00  0.00    +0.248 C 
ATOM     30  O   UNL     1      21.604  23.168  22.815  0.00  0.00    -0.270 OA
ATOM     31  H   UNL     1      19.884  21.809  20.529  0.00  0.00    +0.155 HD
BRANCH  14  15
ATOM     15  C   UNL     1      19.618  22.011  23.102  0.00  0.00    +0.037 A 
ATOM     16  C   UNL     1      18.645  21.058  22.561  0.00  0.00    +0.013 A 
ATOM     17  C   UNL     1      17.614  20.516  23.410  0.00  0.00    +0.005 A 
ATOM     18  C   UNL     1      17.552  20.926  24.811  0.00  0.00    -0.033 A 
ATOM     28  C   UNL     1      18.533  21.868  25.323  0.00  0.00    +0.005 A 
ATOM     29  C   UNL     1      19.544  22.402  24.494  0.00  0.00    +0.013 A 
BRANCH  18  19
ATOM     19  C   UNL     1      16.473  20.415  25.785  0.00  0.00    +0.119 C 
BRANCH  19  20
ATOM     20  N   UNL     1      16.890  20.164  27.197  0.00  0.00    -0.302 NA
ATOM     21  C   UNL     1      17.687  18.864  27.338  0.00  0.00    +0.066 C 
ATOM     22  C   UNL     1      18.134  18.628  28.818  0.00  0.00    -0.064 C 
ATOM     23  N   UNL     1      16.901  18.609  29.723  0.00  0.00    +0.379 N 
ATOM     24  C   UNL     1      17.313  18.330  31.107  0.00  0.00    -0.096 C 
ATOM     25  H   UNL     1      16.249  17.769  29.388  0.00  0.00    -0.082 HD
ATOM     26  C   UNL     1      16.102  19.897  29.587  0.00  0.00    -0.064 C 
ATOM     27  C   UNL     1      15.687  20.137  28.108  0.00  0.00    +0.066 C 
ENDBRANCH  19  20
ENDBRANCH  18  19
ENDBRANCH  14  15
ENDBRANCH  12  13
TORSDOF 6
ENDMDL
MODEL 3
REMARK VINA RESULT:      -9.3     25.444     28.447
REMARK  Name = C:\Users\Docking\Desktop\test protocol\1iep_ligandH.pdb
REMARK  8 active torsions:
REMARK  status: ('A' for Active; 'I' for Inactive)
REMARK    1  A    between atoms: _5  and  _11
REMARK    2  A    between atoms: _19  and  _21
REMARK    3  A    between atoms: _22  and  _66
REMARK    4  A    between atoms: _27  and  _30
REMARK    5  A    between atoms: _32  and  _33
REMARK    6  A    between atoms: _38  and  _43
REMARK    7  A    between atoms: _43  and  _46
REMARK    8  A    between atoms: _53  and  _55
REMARK                            x       y       z     vdW  Elec       q    Type
REMARK                         _______ _______ _______ _____ _____    ______ ____
ROOT
ATOM     10  C   UNL     1      -3.745  37.254  24.061  0.00  0.00    +0.038 A 
ATOM     11  C   UNL     1      -2.694  38.110  23.643  0.00  0.00    +0.047 A 
ATOM     12  C   UNL     1      -2.810  39.555  23.758  0.00  0.00    +0.035 A 
ATOM     32  C   UNL     1      -4.009  40.095  24.306  0.00  0.00    +0.024 A 
ATOM     33  C   UNL     1      -5.088  39.240  24.735  0.00  0.00    +0.007 A 
ATOM     34  C   UNL     1      -4.981  37.814  24.622  0.00  0.00    -0.029 A 
ATOM     35  C   UNL     1      -6.171  36.946  25.092  0.00  0.00    +0.045 C 
ENDROOT
BRANCH  10   9
ATOM      4  C   UNL     1      -4.246  33.147  21.628  0.00  0.00    +0.077 A 
ATOM      5  C   UNL     1      -4.916  33.803  20.542  0.00  0.00    +0.048 A 
ATOM      6  C   UNL     1      -5.118  35.197  20.652  0.00  0.00    +0.116 A 
ATOM      7  N   UNL     1      -4.679  35.875  21.769  0.00  0.00    -0.223 NA
ATOM      8  C   UNL     1      -4.038  35.211  22.799  0.00  0.00    +0.220 A 
ATOM      9  N   UNL     1      -3.581  35.873  23.928  0.00  0.00    -0.283 N 
ATOM     36  H   UNL     1      -3.119  35.347  24.669  0.00  0.00    +0.155 HD
ATOM     37  N   UNL     1      -3.834  33.880  22.718  0.00  0.00    -0.214 NA
BRANCH   4   3
ATOM      1  C   UNL     1      -4.505  29.303  22.306  0.00  0.00    +0.020 A 
ATOM      2  C   UNL     1      -4.831  30.711  22.306  0.00  0.00    +0.013 A 
ATOM      3  C   UNL     1      -3.955  31.679  21.657  0.00  0.00    +0.019 A 
ATOM     38  C   UNL     1      -2.748  31.186  21.011  0.00  0.00    +0.120 A 
ATOM     39  N   UNL     1      -2.459  29.825  21.028  0.00  0.00    -0.263 NA
ATOM     40  C   UNL     1      -3.293  28.884  21.651  0.00  0.00    +0.111 A 
ENDBRANCH   4   3
ENDBRANCH  10   9
BRANCH  12  13
ATOM     13  N   UNL     1      -1.779  40.474  23.343  0.00  0.00    -0.281 N 
ATOM     14  C   UNL     1      -1.080  40.486  22.147  0.00  0.00    +0.248 C 
ATOM     30  O   UNL     1      -1.086  39.574  21.334  0.00  0.00    -0.270 OA
ATOM     31  H   UNL     1      -1.535  41.204  24.012  0.00  0.00    +0.155 HD
BRANCH  14  15
ATOM     15  C   UNL     1      -0.242  41.677  21.813  0.00  0.00    +0.037 A 
ATOM     16  C   UNL     1       0.582  41.711  20.602  0.00  0.00    +0.013 A 
ATOM     17  C   UNL     1       1.395  42.866  20.311  0.00  0.00    +0.005 A 
ATOM     18  C   UNL     1       1.385  43.999  21.234  0.00  0.00    -0.033 A 
ATOM     28  C   UNL     1       0.553  43.941  22.425  0.00  0.00    +0.005 A 
ATOM     29  C   UNL     1      -0.243  42.810  22.714  0.00  0.00    +0.013 A 
BRANCH  18  19
ATOM     19  C   UNL     1       2.236  45.263  21.015  0.00  0.00    +0.119 C 
BRANCH  19  20
ATOM     20  N   UNL     1       2.905  45.853  22.213  0.00  0.00    -0.302 NA
ATOM     21  C   UNL     1       3.075  47.370  22.087  0.00  0.00    +0.066 C 
ATOM     22  C   UNL     1       3.756  47.974  23.358  0.00  0.00    -0.064 C 
ATOM     23  N   UNL     1       5.108  47.293  23.581  0.00  0.00    +0.379 N 
ATOM     24  C   UNL     1       5.777  47.899  24.741  0.00  0.00    -0.096 C 
ATOM     25  H   UNL     1       5.739  47.494  22.684  0.00  0.00    -0.082 HD
ATOM     26  C   UNL     1       4.948  45.785  23.704  0.00  0.00    -0.064 C 
ATOM     27  C   UNL     1       4.244  45.199  22.449  0.00  0.00    +0.066 C 
ENDBRANCH  19  20
ENDBRANCH  18  19
ENDBRANCH  14  15
ENDBRANCH  12  13
TORSDOF 6
ENDMDL
MODEL 4
REMARK VINA RESULT:      -9.1      1.270      2.028
REMARK  Name = C:\Users\Docking\Desktop\test protocol\1iep_ligandH.pdb
REMARK  8 active torsions:
REMARK  status: ('A' for Active; 'I' for Inactive)
REMARK    1  A    between atoms: _5  and  _11
REMARK    2  A    between atoms: _19  and  _21
REMARK    3  A    between atoms: _22  and  _66
REMARK    4  A    between atoms: _27  and  _30
REMARK    5  A    between atoms: _32  and  _33
REMARK    6  A    between atoms: _38  and  _43
REMARK    7  A    between atoms: _43  and  _46
REMARK    8  A    between atoms: _53  and  _55
REMARK                            x       y       z     vdW  Elec       q    Type
REMARK                         _______ _______ _______ _____ _____    ______ ____
ROOT
ATOM     10  C   UNL     1      21.576  24.512  19.656  0.00  0.00    +0.038 A 
ATOM     11  C   UNL     1      20.518  24.143  20.527  0.00  0.00    +0.047 A 
ATOM     12  C   UNL     1      20.770  23.361  21.727  0.00  0.00    +0.035 A 
ATOM     32  C   UNL     1      22.111  22.973  22.012  0.00  0.00    +0.024 A 
ATOM     33  C   UNL     1      23.198  23.338  21.137  0.00  0.00    +0.007 A 
ATOM     34  C   UNL     1      22.956  24.107  19.951  0.00  0.00    -0.029 A 
ATOM     35  C   UNL     1      24.158  24.465  19.046  0.00  0.00    +0.045 C 
ENDROOT
BRANCH  10   9
ATOM      4  C   UNL     1      20.443  24.884  15.007  0.00  0.00    +0.077 A 
ATOM      5  C   UNL     1      20.475  23.461  14.824  0.00  0.00    +0.048 A 
ATOM      6  C   UNL     1      20.795  22.670  15.951  0.00  0.00    +0.116 A 
ATOM      7  N   UNL     1      21.060  23.267  17.164  0.00  0.00    -0.223 NA
ATOM      8  C   UNL     1      21.022  24.642  17.305  0.00  0.00    +0.220 A 
ATOM      9  N   UNL     1      21.277  25.264  18.518  0.00  0.00    -0.283 N 
ATOM     36  H   UNL     1      21.246  26.281  18.579  0.00  0.00    +0.155 HD
ATOM     37  N   UNL     1      20.721  25.420  16.244  0.00  0.00    -0.214 NA
BRANCH   4   3
ATOM      1  C   UNL     1      19.518  26.415  11.528  0.00  0.00    +0.020 A 
ATOM      2  C   UNL     1      19.826  25.438  12.547  0.00  0.00    +0.013 A 
ATOM      3  C   UNL     1      20.119  25.853  13.913  0.00  0.00    +0.019 A 
ATOM     38  C   UNL     1      20.092  27.276  14.217  0.00  0.00    +0.120 A 
ATOM     39  N   UNL     1      19.794  28.194  13.215  0.00  0.00    -0.263 NA
ATOM     40  C   UNL     1      19.512  27.806  11.897  0.00  0.00    +0.111 A 
ENDBRANCH   4   3
ENDBRANCH  10   9
BRANCH  12  13
ATOM     13  N   UNL     1      19.735  22.951  22.644  0.00  0.00    -0.281 N 
ATOM     14  C   UNL     1      19.220  21.679  22.832  0.00  0.00    +0.248 C 
ATOM     30  O   UNL     1      19.422  20.734  22.085  0.00  0.00    -0.270 OA
ATOM     31  H   UNL     1      19.335  23.687  23.225  0.00  0.00    +0.155 HD
BRANCH  14  15
ATOM     15  C   UNL     1      18.340  21.424  24.014  0.00  0.00    +0.037 A 
ATOM     16  C   UNL     1      17.315  22.388  24.420  0.00  0.00    +0.013 A 
ATOM     17  C   UNL     1      16.491  22.126  25.573  0.00  0.00    +0.005 A 
ATOM     18  C   UNL     1      16.689  20.891  26.329  0.00  0.00    -0.033 A 
ATOM     28  C   UNL     1      17.711  19.949  25.901  0.00  0.00    +0.005 A 
ATOM     29  C   UNL     1      18.520  20.204  24.771  0.00  0.00    +0.013 A 
BRANCH  18  19
ATOM     19  C   UNL     1      15.871  20.538  27.585  0.00  0.00    +0.119 C 
BRANCH  19  20
ATOM     20  N   UNL     1      14.424  20.224  27.392  0.00  0.00    -0.302 NA
ATOM     21  C   UNL     1      13.695  20.030  28.725  0.00  0.00    +0.066 C 
ATOM     22  C   UNL     1      12.178  19.723  28.505  0.00  0.00    -0.064 C 
ATOM     23  N   UNL     1      12.034  18.482  27.623  0.00  0.00    +0.379 N 
ATOM     24  C   UNL     1      10.609  18.158  27.462  0.00  0.00    -0.096 C 
ATOM     25  H   UNL     1      12.517  17.631  28.156  0.00  0.00    -0.082 HD
ATOM     26  C   UNL     1      12.757  18.666  26.296  0.00  0.00    -0.064 C 
ATOM     27  C   UNL     1      14.258  18.998  26.527  0.00  0.00    +0.066 C 
ENDBRANCH  19  20
ENDBRANCH  18  19
ENDBRANCH  14  15
ENDBRANCH  12  13
TORSDOF 6
ENDMDL
MODEL 5
REMARK VINA RESULT:      -9.0      4.187     13.012
REMARK  Name = C:\Users\Docking\Desktop\test protocol\1iep_ligandH.pdb
REMARK  8 active torsions:
REMARK  status: ('A' for Active; 'I' for Inactive)
REMARK    1  A    between atoms: _5  and  _11
REMARK    2  A    between atoms: _19  and  _21
REMARK    3  A    between atoms: _22  and  _66
REMARK    4  A    between atoms: _27  and  _30
REMARK    5  A    between atoms: _32  and  _33
REMARK    6  A    between atoms: _38  and  _43
REMARK    7  A    between atoms: _43  and  _46
REMARK    8  A    between atoms: _53  and  _55
REMARK                            x       y       z     vdW  Elec       q    Type
REMARK                         _______ _______ _______ _____ _____    ______ ____
ROOT
ATOM     10  C   UNL     1      20.824  23.535  17.468  0.00  0.00    +0.038 A 
ATOM     11  C   UNL     1      20.488  24.816  16.960  0.00  0.00    +0.047 A 
ATOM     12  C   UNL     1      21.133  25.346  15.769  0.00  0.00    +0.035 A 
ATOM     32  C   UNL     1      22.114  24.543  15.118  0.00  0.00    +0.024 A 
ATOM     33  C   UNL     1      22.468  23.239  15.620  0.00  0.00    +0.007 A 
ATOM     34  C   UNL     1      21.837  22.712  16.796  0.00  0.00    -0.029 A 
ATOM     35  C   UNL     1      22.260  21.310  17.294  0.00  0.00    +0.045 C 
ENDROOT
BRANCH  10   9
ATOM      4  C   UNL     1      20.691  22.614  22.176  0.00  0.00    +0.077 A 
ATOM      5  C   UNL     1      22.041  23.062  22.362  0.00  0.00    +0.048 A 
ATOM      6  C   UNL     1      22.737  23.515  21.219  0.00  0.00    +0.116 A 
ATOM      7  N   UNL     1      22.120  23.515  19.987  0.00  0.00    -0.223 NA
ATOM      8  C   UNL     1      20.817  23.076  19.843  0.00  0.00    +0.220 A 
ATOM      9  N   UNL     1      20.173  23.075  18.615  0.00  0.00    -0.283 N 
ATOM     36  H   UNL     1      19.214  22.736  18.549  0.00  0.00    +0.155 HD
ATOM     37  N   UNL     1      20.131  22.637  20.919  0.00  0.00    -0.214 NA
BRANCH   4   3
ATOM      1  C   UNL     1      19.325  20.540  25.199  0.00  0.00    +0.020 A 
ATOM      2  C   UNL     1      20.199  20.988  24.139  0.00  0.00    +0.013 A 
ATOM      3  C   UNL     1      19.823  22.110  23.288  0.00  0.00    +0.019 A 
ATOM     38  C   UNL     1      18.548  22.764  23.539  0.00  0.00    +0.120 A 
ATOM     39  N   UNL     1      17.726  22.310  24.566  0.00  0.00    -0.263 NA
ATOM     40  C   UNL     1      18.076  21.230  25.390  0.00  0.00    +0.111 A 
ENDBRANCH   4   3
ENDBRANCH  10   9
BRANCH  12  13
ATOM     13  N   UNL     1      20.839  26.643  15.212  0.00  0.00    -0.281 N 
ATOM     14  C   UNL     1      20.176  26.933  14.031  0.00  0.00    +0.248 C 
ATOM     30  O   UNL     1      19.921  26.112  13.163  0.00  0.00    -0.270 OA
ATOM     31  H   UNL     1      21.159  27.446  15.755  0.00  0.00    +0.155 HD
BRANCH  14  15
ATOM     15  C   UNL     1      19.747  28.341  13.770  0.00  0.00    +0.037 A 
ATOM     16  C   UNL     1      20.443  29.474  14.385  0.00  0.00    +0.013 A 
ATOM     17  C   UNL     1      19.998  30.821  14.130  0.00  0.00    +0.005 A 
ATOM     18  C   UNL     1      18.851  31.042  13.253  0.00  0.00    -0.033 A 
ATOM     28  C   UNL     1      18.182  29.900  12.652  0.00  0.00    +0.005 A 
ATOM     29  C   UNL     1      18.615  28.578  12.900  0.00  0.00    +0.013 A 
BRANCH  18  19
ATOM     19  C   UNL     1      18.294  32.444  12.942  0.00  0.00    +0.119 C 
BRANCH  19  20
ATOM     20  N   UNL     1      17.787  33.249  14.093  0.00  0.00    -0.302 NA
ATOM     21  C   UNL     1      17.054  32.383  15.121  0.00  0.00    +0.066 C 
ATOM     22  C   UNL     1      16.550  33.238  16.329  0.00  0.00    -0.064 C 
ATOM     23  N   UNL     1      15.641  34.356  15.815  0.00  0.00    +0.379 N 
ATOM     24  C   UNL     1      15.119  35.126  16.954  0.00  0.00    -0.096 C 
ATOM     25  H   UNL     1      14.773  33.877  15.304  0.00  0.00    -0.082 HD
ATOM     26  C   UNL     1      16.361  35.220  14.790  0.00  0.00    -0.064 C 
ATOM     27  C   UNL     1      16.883  34.356  13.608  0.00  0.00    +0.066 C 
ENDBRANCH  19  20
ENDBRANCH  18  19
ENDBRANCH  14  15
ENDBRANCH  12  13
TORSDOF 6
ENDMDL
