MODEL 1
REMARK VINA RESULT:      -9.4      0.000      0.000
REMARK  Name = C:\Users\Docking\Desktop\test protocol\1iep_ligandH.pdb
REMARK  8 active torsions:
REMARK  status: ('A' for Active; 'I' for Inactive)
REMARK    1  A    between atoms: _5  and  _11
REMARK    2  A    between atoms: _19  and  _21
REMARK    3  A    between atoms: _22  and  _66
REMARK    4  A    between atoms: _27  and  _30
REMARK    5  A    between atoms: _32  and  _33
REMARK    6  A    between atoms: _38  and  _43
REMARK    7  A    between atoms: _43  and  _46
REMARK    8  A    between atoms: _53  and  _55
REMARK                            x       y       z     vdW  Elec       q    Type
REMARK                         _______ _______ _______ _____ _____    ______ ____
ROOT
ATOM     10  C   UNL     1      27.836  16.086 194.778  0.00  0.00    +0.038 A 
ATOM     11  C   UNL     1      27.688  15.940 193.375  0.00  0.00    +0.047 A 
ATOM     12  C   UNL     1      28.264  16.907 192.453  0.00  0.00    +0.035 A 
ATOM     32  C   UNL     1      28.987  18.009 192.995  0.00  0.00    +0.024 A 
ATOM     33  C   UNL     1      29.146  18.173 194.419  0.00  0.00    +0.007 A 
ATOM     34  C   UNL     1      28.578  17.224 195.333  0.00  0.00    -0.029 A 
ATOM     35  C   UNL     1      28.774  17.454 196.849  0.00  0.00    +0.045 C 
ENDROOT
BRANCH  10   9
ATOM      4  C   UNL     1      24.034  13.870 196.694  0.00  0.00    +0.077 A 
ATOM      5  C   UNL     1      23.112  14.709 195.984  0.00  0.00    +0.048 A 
ATOM      6  C   UNL     1      23.658  15.704 195.141  0.00  0.00    +0.116 A 
ATOM      7  N   UNL     1      25.024  15.840 195.025  0.00  0.00    -0.223 NA
ATOM      8  C   UNL     1      25.885  15.014 195.725  0.00  0.00    +0.220 A 
ATOM      9  N   UNL     1      27.262  15.127 195.617  0.00  0.00    -0.283 N 
ATOM     36  H   UNL     1      27.863  14.504 196.155  0.00  0.00    +0.155 HD
ATOM     37  N   UNL     1      25.389  14.058 196.537  0.00  0.00    -0.214 NA
BRANCH   4   3
ATOM      1  C   UNL     1      21.997  11.712 199.242  0.00  0.00    +0.020 A 
ATOM      2  C   UNL     1      22.357  12.799 198.362  0.00  0.00    +0.013 A 
ATOM      3  C   UNL     1      23.611  12.771 197.619  0.00  0.00    +0.019 A 
ATOM     38  C   UNL     1      24.484  11.620 197.791  0.00  0.00    +0.120 A 
ATOM     39  N   UNL     1      24.111  10.589 198.648  0.00  0.00    -0.263 NA
ATOM     40  C   UNL     1      22.908  10.605 199.369  0.00  0.00    +0.111 A 
ENDBRANCH   4   3
ENDBRANCH  10   9
BRANCH  12  13
ATOM     13  N   UNL     1      28.140  16.815 191.019  0.00  0.00    -0.281 N 
ATOM     14  C   UNL     1      27.143  16.190 190.289  0.00  0.00    +0.248 C 
ATOM     30  O   UNL     1      26.315  15.426 190.763  0.00  0.00    -0.270 OA
ATOM     31  H   UNL     1      28.877  17.266 190.477  0.00  0.00    +0.155 HD
BRANCH  14  15
ATOM     15  C   UNL     1      27.063  16.437 188.817  0.00  0.00    +0.037 A 
ATOM     16  C   UNL     1      27.938  17.412 188.162  0.00  0.00    +0.013 A 
ATOM     17  C   UNL     1      27.828  17.644 186.743  0.00  0.00    +0.005 A 
ATOM     18  C   UNL     1      26.840  16.896 185.970  0.00  0.00    -0.033 A 
ATOM     28  C   UNL     1      25.988  15.930 186.645  0.00  0.00    +0.005 A 
ATOM     29  C   UNL     1      26.092  15.702 188.035  0.00  0.00    +0.013 A 
BRANCH  18  19
ATOM     19  C   UNL     1      26.639  17.093 184.456  0.00  0.00    +0.119 C 
BRANCH  19  20
ATOM     20  N   UNL     1      27.765  16.697 183.559  0.00  0.00    -0.302 NA
ATOM     21  C   UNL     1      28.777  17.831 183.371  0.00  0.00    +0.066 C 
ATOM     22  C   UNL     1      29.960  17.391 182.448  0.00  0.00    -0.064 C 
ATOM     23  N   UNL     1      29.407  16.930 181.099  0.00  0.00    +0.379 N 
ATOM     24  C   UNL     1      30.520  16.570 180.209  0.00  0.00    -0.096 C 
ATOM     25  H   UNL     1      28.872  17.793 180.640  0.00  0.00    -0.082 HD
ATOM     26  C   UNL     1      28.398  15.804 181.277  0.00  0.00    -0.064 C 
ATOM     27  C   UNL     1      27.242  16.241 182.219  0.00  0.00    +0.066 C 
ENDBRANCH  19  20
ENDBRANCH  18  19
ENDBRANCH  14  15
ENDBRANCH  12  13
TORSDOF 6
ENDMDL
MODEL 2
REMARK VINA RESULT:      -9.1     11.956     19.724
REMARK  Name = C:\Users\Docking\Desktop\test protocol\1iep_ligandH.pdb
REMARK  8 active torsions:
REMARK  status: ('A' for Active; 'I' for Inactive)
REMARK    1  A    between atoms: _5  and  _11
REMARK    2  A    between atoms: _19  and  _21
REMARK    3  A    between atoms: _22  and  _66
REMARK    4  A    between atoms: _27  and  _30
REMARK    5  A    between atoms: _32  and  _33
REMARK    6  A    between atoms: _38  and  _43
REMARK    7  A    between atoms: _43  and  _46
REMARK    8  A    between atoms: _53  and  _55
REMARK                            x       y       z     vdW  Elec       q    Type
REMARK                         _______ _______ _______ _____ _____    ______ ____
ROOT
ATOM     10  C   UNL     1      30.451  17.784 174.041  0.00  0.00    +0.038 A 
ATOM     11  C   UNL     1      30.395  19.149 173.660  0.00  0.00    +0.047 A 
ATOM     12  C   UNL     1      30.998  19.610 172.419  0.00  0.00    +0.035 A 
ATOM     32  C   UNL     1      31.648  18.651 171.588  0.00  0.00    +0.024 A 
ATOM     33  C   UNL     1      31.715  17.260 171.960  0.00  0.00    +0.007 A 
ATOM     34  C   UNL     1      31.125  16.801 173.185  0.00  0.00    -0.029 A 
ATOM     35  C   UNL     1      31.232  15.299 173.537  0.00  0.00    +0.045 C 
ENDROOT
BRANCH  10   9
ATOM      4  C   UNL     1      30.591  17.001 178.775  0.00  0.00    +0.077 A 
ATOM      5  C   UNL     1      31.976  17.368 178.854  0.00  0.00    +0.048 A 
ATOM      6  C   UNL     1      32.617  17.745 177.653  0.00  0.00    +0.116 A 
ATOM      7  N   UNL     1      31.916  17.752 176.466  0.00  0.00    -0.223 NA
ATOM      8  C   UNL     1      30.582  17.391 176.425  0.00  0.00    +0.220 A 
ATOM      9  N   UNL     1      29.855  17.398 175.244  0.00  0.00    -0.283 N 
ATOM     36  H   UNL     1      28.875  17.118 175.254  0.00  0.00    +0.155 HD
ATOM     37  N   UNL     1      29.947  17.025 177.558  0.00  0.00    -0.214 NA
BRANCH   4   3
ATOM      1  C   UNL     1      29.493  16.069 182.411  0.00  0.00    +0.020 A 
ATOM      2  C   UNL     1      30.325  16.477 181.303  0.00  0.00    +0.013 A 
ATOM      3  C   UNL     1      29.775  16.583 179.958  0.00  0.00    +0.019 A 
ATOM     38  C   UNL     1      28.367  16.267 179.766  0.00  0.00    +0.120 A 
ATOM     39  N   UNL     1      27.591  15.875 180.852  0.00  0.00    -0.263 NA
ATOM     40  C   UNL     1      28.110  15.768 182.151  0.00  0.00    +0.111 A 
ENDBRANCH   4   3
ENDBRANCH  10   9
BRANCH  12  13
ATOM     13  N   UNL     1      30.980  20.984 171.984  0.00  0.00    -0.281 N 
ATOM     14  C   UNL     1      30.177  21.559 171.013  0.00  0.00    +0.248 C 
ATOM     30  O   UNL     1      29.496  20.930 170.217  0.00  0.00    -0.270 OA
ATOM     31  H   UNL     1      31.639  21.609 172.448  0.00  0.00    +0.155 HD
BRANCH  14  15
ATOM     15  C   UNL     1      30.135  23.049 170.900  0.00  0.00    +0.037 A 
ATOM     16  C   UNL     1      29.006  23.820 171.429  0.00  0.00    +0.013 A 
ATOM     17  C   UNL     1      28.983  25.254 171.292  0.00  0.00    +0.005 A 
ATOM     18  C   UNL     1      30.093  25.928 170.624  0.00  0.00    -0.033 A 
ATOM     28  C   UNL     1      31.202  25.140 170.113  0.00  0.00    +0.005 A 
ATOM     29  C   UNL     1      31.228  23.734 170.245  0.00  0.00    +0.013 A 
BRANCH  18  19
ATOM     19  C   UNL     1      30.142  27.454 170.414  0.00  0.00    +0.119 C 
BRANCH  19  20
ATOM     20  N   UNL     1      31.106  27.974 169.400  0.00  0.00    -0.302 NA
ATOM     21  C   UNL     1      31.731  29.304 169.831  0.00  0.00    +0.066 C 
ATOM     22  C   UNL     1      32.754  29.823 168.768  0.00  0.00    -0.064 C 
ATOM     23  N   UNL     1      32.052  29.966 167.416  0.00  0.00    +0.379 N 
ATOM     24  C   UNL     1      32.997  30.509 166.429  0.00  0.00    -0.096 C 
ATOM     25  H   UNL     1      31.229  30.708 167.540  0.00  0.00    -0.082 HD
ATOM     26  C   UNL     1      31.426  28.649 166.982  0.00  0.00    -0.064 C 
ATOM     27  C   UNL     1      30.433  28.127 168.058  0.00  0.00    +0.066 C 
ENDBRANCH  19  20
ENDBRANCH  18  19
ENDBRANCH  14  15
ENDBRANCH  12  13
TORSDOF 6
ENDMDL
MODEL 3
REMARK VINA RESULT:      -9.0     28.454     32.503
REMARK  Name = C:\Users\Docking\Desktop\test protocol\1iep_ligandH.pdb
REMARK  8 active torsions:
REMARK  status: ('A' for Active; 'I' for Inactive)
REMARK    1  A    between atoms: _5  and  _11
REMARK    2  A    between atoms: _19  and  _21
REMARK    3  A    between atoms: _22  and  _66
REMARK    4  A    between atoms: _27  and  _30
REMARK    5  A    between atoms: _32  and  _33
REMARK    6  A    between atoms: _38  and  _43
REMARK    7  A    between atoms: _43  and  _46
REMARK    8  A    between atoms: _53  and  _55
REMARK                            x       y       z     vdW  Elec       q    Type
REMARK                         _______ _______ _______ _____ _____    ______ ____
ROOT
ATOM     10  C   UNL     1      25.468  42.524 211.038  0.00  0.00    +0.038 A 
ATOM     11  C   UNL     1      24.253  41.850 210.753  0.00  0.00    +0.047 A 
ATOM     12  C   UNL     1      23.641  41.926 209.436  0.00  0.00    +0.035 A 
ATOM     32  C   UNL     1      24.295  42.696 208.430  0.00  0.00    +0.024 A 
ATOM     33  C   UNL     1      25.530  43.388 208.703  0.00  0.00    +0.007 A 
ATOM     34  C   UNL     1      26.137  43.319 210.002  0.00  0.00    -0.029 A 
ATOM     35  C   UNL     1      27.458  44.087 210.239  0.00  0.00    +0.045 C 
ENDROOT
BRANCH  10   9
ATOM      4  C   UNL     1      27.243  39.952 214.681  0.00  0.00    +0.077 A 
ATOM      5  C   UNL     1      27.047  38.715 213.981  0.00  0.00    +0.048 A 
ATOM      6  C   UNL     1      26.480  38.784 212.688  0.00  0.00    +0.116 A 
ATOM      7  N   UNL     1      26.139  40.004 212.146  0.00  0.00    -0.223 NA
ATOM      8  C   UNL     1      26.339  41.178 212.849  0.00  0.00    +0.220 A 
ATOM      9  N   UNL     1      26.011  42.417 212.320  0.00  0.00    -0.283 N 
ATOM     36  H   UNL     1      26.168  43.259 212.874  0.00  0.00    +0.155 HD
ATOM     37  N   UNL     1      26.878  41.139 214.086  0.00  0.00    -0.214 NA
BRANCH   4   3
ATOM      1  C   UNL     1      28.710  41.347 218.028  0.00  0.00    +0.020 A 
ATOM      2  C   UNL     1      28.140  41.313 216.701  0.00  0.00    +0.013 A 
ATOM      3  C   UNL     1      27.834  40.044 216.053  0.00  0.00    +0.019 A 
ATOM     38  C   UNL     1      28.119  38.817 216.782  0.00  0.00    +0.120 A 
ATOM     39  N   UNL     1      28.670  38.880 218.058  0.00  0.00    -0.263 NA
ATOM     40  C   UNL     1      28.970  40.096 218.691  0.00  0.00    +0.111 A 
ENDBRANCH   4   3
ENDBRANCH  10   9
BRANCH  12  13
ATOM     13  N   UNL     1      22.404  41.270 209.091  0.00  0.00    -0.281 N 
ATOM     14  C   UNL     1      22.085  39.929 209.226  0.00  0.00    +0.248 C 
ATOM     30  O   UNL     1      22.896  39.047 209.468  0.00  0.00    -0.270 OA
ATOM     31  H   UNL     1      21.676  41.867 208.699  0.00  0.00    +0.155 HD
BRANCH  14  15
ATOM     15  C   UNL     1      20.663  39.504 209.053  0.00  0.00    +0.037 A 
ATOM     16  C   UNL     1      19.973  38.723 210.083  0.00  0.00    +0.013 A 
ATOM     17  C   UNL     1      18.606  38.312 209.884  0.00  0.00    +0.005 A 
ATOM     18  C   UNL     1      17.919  38.682 208.649  0.00  0.00    -0.033 A 
ATOM     28  C   UNL     1      18.626  39.460 207.646  0.00  0.00    +0.005 A 
ATOM     29  C   UNL     1      19.966  39.865 207.837  0.00  0.00    +0.013 A 
BRANCH  18  19
ATOM     19  C   UNL     1      16.468  38.268 208.342  0.00  0.00    +0.119 C 
BRANCH  19  20
ATOM     20  N   UNL     1      16.025  36.924 208.820  0.00  0.00    -0.302 NA
ATOM     21  C   UNL     1      16.635  35.790 207.992  0.00  0.00    +0.066 C 
ATOM     22  C   UNL     1      16.179  34.390 208.520  0.00  0.00    -0.064 C 
ATOM     23  N   UNL     1      14.651  34.314 208.500  0.00  0.00    +0.379 N 
ATOM     24  C   UNL     1      14.221  32.979 208.940  0.00  0.00    -0.096 C 
ATOM     25  H   UNL     1      14.320  34.445 207.443  0.00  0.00    -0.082 HD
ATOM     26  C   UNL     1      14.036  35.440 209.319  0.00  0.00    -0.064 C 
ATOM     27  C   UNL     1      14.519  36.825 208.805  0.00  0.00    +0.066 C 
ENDBRANCH  19  20
ENDBRANCH  18  19
ENDBRANCH  14  15
ENDBRANCH  12  13
TORSDOF 6
ENDMDL
MODEL 4
REMARK VINA RESULT:      -8.7     33.205     37.346
REMARK  Name = C:\Users\Docking\Desktop\test protocol\1iep_ligandH.pdb
REMARK  8 active torsions:
REMARK  status: ('A' for Active; 'I' for Inactive)
REMARK    1  A    between atoms: _5  and  _11
REMARK    2  A    between atoms: _19  and  _21
REMARK    3  A    between atoms: _22  and  _66
REMARK    4  A    between atoms: _27  and  _30
REMARK    5  A    between atoms: _32  and  _33
REMARK    6  A    between atoms: _38  and  _43
REMARK    7  A    between atoms: _43  and  _46
REMARK    8  A    between atoms: _53  and  _55
REMARK                            x       y       z     vdW  Elec       q    Type
REMARK                         _______ _______ _______ _____ _____    ______ ____
ROOT
ATOM     10  C   UNL     1      30.330  47.155 177.441  0.00  0.00    +0.038 A 
ATOM     11  C   UNL     1      31.566  47.797 177.707  0.00  0.00    +0.047 A 
ATOM     12  C   UNL     1      32.077  48.839 176.829  0.00  0.00    +0.035 A 
ATOM     32  C   UNL     1      31.301  49.204 175.691  0.00  0.00    +0.024 A 
ATOM     33  C   UNL     1      30.042  48.561 175.405  0.00  0.00    +0.007 A 
ATOM     34  C   UNL     1      29.535  47.531 176.266  0.00  0.00    -0.029 A 
ATOM     35  C   UNL     1      28.182  46.872 175.907  0.00  0.00    +0.045 C 
ENDROOT
BRANCH  10   9
ATOM      4  C   UNL     1      27.491  45.592 180.981  0.00  0.00    +0.077 A 
ATOM      5  C   UNL     1      26.855  46.871 181.116  0.00  0.00    +0.048 A 
ATOM      6  C   UNL     1      27.292  47.906 180.260  0.00  0.00    +0.116 A 
ATOM      7  N   UNL     1      28.292  47.669 179.341  0.00  0.00    -0.223 NA
ATOM      8  C   UNL     1      28.885  46.424 179.239  0.00  0.00    +0.220 A 
ATOM      9  N   UNL     1      29.887  46.161 178.317  0.00  0.00    -0.283 N 
ATOM     36  H   UNL     1      30.305  45.232 178.278  0.00  0.00    +0.155 HD
ATOM     37  N   UNL     1      28.487  45.419 180.046  0.00  0.00    -0.214 NA
BRANCH   4   3
ATOM      1  C   UNL     1      26.491  43.301 183.990  0.00  0.00    +0.020 A 
ATOM      2  C   UNL     1      26.828  44.485 183.234  0.00  0.00    +0.013 A 
ATOM      3  C   UNL     1      27.137  44.398 181.812  0.00  0.00    +0.019 A 
ATOM     38  C   UNL     1      27.095  43.087 181.181  0.00  0.00    +0.120 A 
ATOM     39  N   UNL     1      26.769  41.964 181.935  0.00  0.00    -0.263 NA
ATOM     40  C   UNL     1      26.472  42.036 183.304  0.00  0.00    +0.111 A 
ENDBRANCH   4   3
ENDBRANCH  10   9
BRANCH  12  13
ATOM     13  N   UNL     1      33.330  49.520 177.044  0.00  0.00    -0.281 N 
ATOM     14  C   UNL     1      34.242  49.944 176.092  0.00  0.00    +0.248 C 
ATOM     30  O   UNL     1      34.221  49.610 174.916  0.00  0.00    -0.270 OA
ATOM     31  H   UNL     1      33.573  49.713 178.015  0.00  0.00    +0.155 HD
BRANCH  14  15
ATOM     15  C   UNL     1      35.347  50.860 176.508  0.00  0.00    +0.037 A 
ATOM     16  C   UNL     1      35.643  52.084 175.759  0.00  0.00    +0.013 A 
ATOM     17  C   UNL     1      36.726  52.941 176.173  0.00  0.00    +0.005 A 
ATOM     18  C   UNL     1      37.520  52.578 177.344  0.00  0.00    -0.033 A 
ATOM     28  C   UNL     1      37.201  51.361 178.072  0.00  0.00    +0.005 A 
ATOM     29  C   UNL     1      36.142  50.517 177.669  0.00  0.00    +0.013 A 
BRANCH  18  19
ATOM     19  C   UNL     1      38.707  53.422 177.845  0.00  0.00    +0.119 C 
BRANCH  19  20
ATOM     20  N   UNL     1      39.088  54.615 177.031  0.00  0.00    -0.302 NA
ATOM     21  C   UNL     1      40.221  54.303 176.050  0.00  0.00    +0.066 C 
ATOM     22  C   UNL     1      40.593  55.556 175.191  0.00  0.00    -0.064 C 
ATOM     23  N   UNL     1      40.982  56.708 176.118  0.00  0.00    +0.379 N 
ATOM     24  C   UNL     1      41.387  57.870 175.313  0.00  0.00    -0.096 C 
ATOM     25  H   UNL     1      41.868  56.381 176.711  0.00  0.00    -0.082 HD
ATOM     26  C   UNL     1      39.861  57.024 177.100  0.00  0.00    -0.064 C 
ATOM     27  C   UNL     1      39.480  55.765 177.927  0.00  0.00    +0.066 C 
ENDBRANCH  19  20
ENDBRANCH  18  19
ENDBRANCH  14  15
ENDBRANCH  12  13
TORSDOF 6
ENDMDL
MODEL 5
REMARK VINA RESULT:      -8.7      6.047      7.865
REMARK  Name = C:\Users\Docking\Desktop\test protocol\1iep_ligandH.pdb
REMARK  8 active torsions:
REMARK  status: ('A' for Active; 'I' for Inactive)
REMARK    1  A    between atoms: _5  and  _11
REMARK    2  A    between atoms: _19  and  _21
REMARK    3  A    between atoms: _22  and  _66
REMARK    4  A    between atoms: _27  and  _30
REMARK    5  A    between atoms: _32  and  _33
REMARK    6  A    between atoms: _38  and  _43
REMARK    7  A    between atoms: _43  and  _46
REMARK    8  A    between atoms: _53  and  _55
REMARK                            x       y       z     vdW  Elec       q    Type
REMARK                         _______ _______ _______ _____ _____    ______ ____
ROOT
ATOM     10  C   UNL     1      31.255  18.399 196.942  0.00  0.00    +0.038 A 
ATOM     11  C   UNL     1      32.151  18.173 195.865  0.00  0.00    +0.047 A 
ATOM     12  C   UNL     1      33.585  18.355 196.028  0.00  0.00    +0.035 A 
ATOM     32  C   UNL     1      34.073  18.765 197.303  0.00  0.00    +0.024 A 
ATOM     33  C   UNL     1      33.177  19.000 198.408  0.00  0.00    +0.007 A 
ATOM     34  C   UNL     1      31.761  18.825 198.252  0.00  0.00    -0.029 A 
ATOM     35  C   UNL     1      30.847  19.097 199.469  0.00  0.00    +0.045 C 
ENDROOT
BRANCH  10   9
ATOM      4  C   UNL     1      27.422  15.581 196.308  0.00  0.00    +0.077 A 
ATOM      5  C   UNL     1      28.214  14.387 196.380  0.00  0.00    +0.048 A 
ATOM      6  C   UNL     1      29.605  14.542 196.573  0.00  0.00    +0.116 A 
ATOM      7  N   UNL     1      30.152  15.801 196.686  0.00  0.00    -0.223 NA
ATOM      8  C   UNL     1      29.360  16.932 196.610  0.00  0.00    +0.220 A 
ATOM      9  N   UNL     1      29.888  18.209 196.729  0.00  0.00    -0.283 N 
ATOM     36  H   UNL     1      29.271  19.018 196.660  0.00  0.00    +0.155 HD
ATOM     37  N   UNL     1      28.029  16.811 196.424  0.00  0.00    -0.214 NA
BRANCH   4   3
ATOM      1  C   UNL     1      23.570  15.352 196.948  0.00  0.00    +0.020 A 
ATOM      2  C   UNL     1      24.994  15.340 197.193  0.00  0.00    +0.013 A 
ATOM      3  C   UNL     1      25.938  15.581 196.109  0.00  0.00    +0.019 A 
ATOM     38  C   UNL     1      25.405  15.834 194.779  0.00  0.00    +0.120 A 
ATOM     39  N   UNL     1      24.028  15.838 194.573  0.00  0.00    -0.263 NA
ATOM     40  C   UNL     1      23.110  15.606 195.608  0.00  0.00    +0.111 A 
ENDBRANCH   4   3
ENDBRANCH  10   9
BRANCH  12  13
ATOM     13  N   UNL     1      34.542  18.148 194.970  0.00  0.00    -0.281 N 
ATOM     14  C   UNL     1      34.866  16.960 194.335  0.00  0.00    +0.248 C 
ATOM     30  O   UNL     1      34.535  15.852 194.730  0.00  0.00    -0.270 OA
ATOM     31  H   UNL     1      35.040  18.978 194.649  0.00  0.00    +0.155 HD
BRANCH  14  15
ATOM     15  C   UNL     1      35.690  17.009 193.089  0.00  0.00    +0.037 A 
ATOM     16  C   UNL     1      35.453  16.077 191.984  0.00  0.00    +0.013 A 
ATOM     17  C   UNL     1      36.274  16.135 190.800  0.00  0.00    +0.005 A 
ATOM     18  C   UNL     1      37.339  17.130 190.715  0.00  0.00    -0.033 A 
ATOM     28  C   UNL     1      37.550  18.046 191.824  0.00  0.00    +0.005 A 
ATOM     29  C   UNL     1      36.748  17.992 192.987  0.00  0.00    +0.013 A 
BRANCH  18  19
ATOM     19  C   UNL     1      38.277  17.250 189.500  0.00  0.00    +0.119 C 
BRANCH  19  20
ATOM     20  N   UNL     1      37.845  18.150 188.389  0.00  0.00    -0.302 NA
ATOM     21  C   UNL     1      37.203  19.439 188.910  0.00  0.00    +0.066 C 
ATOM     22  C   UNL     1      36.777  20.378 187.735  0.00  0.00    -0.064 C 
ATOM     23  N   UNL     1      35.816  19.630 186.810  0.00  0.00    +0.379 N 
ATOM     24  C   UNL     1      35.368  20.529 185.736  0.00  0.00    -0.096 C 
ATOM     25  H   UNL     1      34.920  19.348 187.411  0.00  0.00    -0.082 HD
ATOM     26  C   UNL     1      36.446  18.346 186.289  0.00  0.00    -0.064 C 
ATOM     27  C   UNL     1      36.892  17.432 187.465  0.00  0.00    +0.066 C 
ENDBRANCH  19  20
ENDBRANCH  18  19
ENDBRANCH  14  15
ENDBRANCH  12  13
TORSDOF 6
ENDMDL
