MODEL 1
REMARK VINA RESULT:      -8.5      0.000      0.000
REMARK  Name = C:\Users\Docking\Desktop\test protocol\1iep_ligandH.pdb
REMARK  8 active torsions:
REMARK  status: ('A' for Active; 'I' for Inactive)
REMARK    1  A    between atoms: _5  and  _11
REMARK    2  A    between atoms: _19  and  _21
REMARK    3  A    between atoms: _22  and  _66
REMARK    4  A    between atoms: _27  and  _30
REMARK    5  A    between atoms: _32  and  _33
REMARK    6  A    between atoms: _38  and  _43
REMARK    7  A    between atoms: _43  and  _46
REMARK    8  A    between atoms: _53  and  _55
REMARK                            x       y       z     vdW  Elec       q    Type
REMARK                         _______ _______ _______ _____ _____    ______ ____
ROOT
ATOM     10  C   UNL     1      21.508  24.533  25.635  0.00  0.00    +0.038 A 
ATOM     11  C   UNL     1      21.430  24.511  24.219  0.00  0.00    +0.047 A 
ATOM     12  C   UNL     1      22.602  24.230  23.405  0.00  0.00    +0.035 A 
ATOM     32  C   UNL     1      23.838  23.973  24.067  0.00  0.00    +0.024 A 
ATOM     33  C   UNL     1      23.936  23.993  25.505  0.00  0.00    +0.007 A 
ATOM     34  C   UNL     1      22.783  24.272  26.313  0.00  0.00    -0.029 A 
ATOM     35  C   UNL     1      22.947  24.286  27.851  0.00  0.00    +0.045 C 
ENDROOT
BRANCH  10   9
ATOM      4  C   UNL     1      17.664  23.151  28.155  0.00  0.00    +0.077 A 
ATOM      5  C   UNL     1      17.972  21.761  27.975  0.00  0.00    +0.048 A 
ATOM      6  C   UNL     1      19.125  21.445  27.222  0.00  0.00    +0.116 A 
ATOM      7  N   UNL     1      19.904  22.451  26.693  0.00  0.00    -0.223 NA
ATOM      8  C   UNL     1      19.577  23.781  26.884  0.00  0.00    +0.220 A 
ATOM      9  N   UNL     1      20.351  24.809  26.367  0.00  0.00    -0.283 N 
ATOM     36  H   UNL     1      20.072  25.777  26.524  0.00  0.00    +0.155 HD
ATOM     37  N   UNL     1      18.481  24.109  27.598  0.00  0.00    -0.214 NA
BRANCH   4   3
ATOM      1  C   UNL     1      14.748  23.421  30.748  0.00  0.00    +0.020 A 
ATOM      2  C   UNL     1      15.889  22.898  30.033  0.00  0.00    +0.013 A 
ATOM      3  C   UNL     1      16.482  23.645  28.930  0.00  0.00    +0.019 A 
ATOM     38  C   UNL     1      15.891  24.926  28.574  0.00  0.00    +0.120 A 
ATOM     39  N   UNL     1      14.792  25.403  29.280  0.00  0.00    -0.263 NA
ATOM     40  C   UNL     1      14.212  24.693  30.342  0.00  0.00    +0.111 A 
ENDBRANCH   4   3
ENDBRANCH  10   9
BRANCH  12  13
ATOM     13  N   UNL     1      22.585  24.202  21.964  0.00  0.00    -0.281 N 
ATOM     14  C   UNL     1      22.143  23.183  21.137  0.00  0.00    +0.248 C 
ATOM     30  O   UNL     1      21.891  22.048  21.513  0.00  0.00    -0.270 OA
ATOM     31  H   UNL     1      22.943  25.036  21.496  0.00  0.00    +0.155 HD
BRANCH  14  15
ATOM     15  C   UNL     1      21.969  23.460  19.678  0.00  0.00    +0.037 A 
ATOM     16  C   UNL     1      21.903  22.371  18.700  0.00  0.00    +0.013 A 
ATOM     17  C   UNL     1      21.752  22.667  17.298  0.00  0.00    +0.005 A 
ATOM     18  C   UNL     1      21.665  24.059  16.865  0.00  0.00    -0.033 A 
ATOM     28  C   UNL     1      21.729  25.120  17.856  0.00  0.00    +0.005 A 
ATOM     29  C   UNL     1      21.878  24.834  19.232  0.00  0.00    +0.013 A 
BRANCH  18  19
ATOM     19  C   UNL     1      21.525  24.468  15.386  0.00  0.00    +0.119 C 
BRANCH  19  20
ATOM     20  N   UNL     1      20.168  24.879  14.917  0.00  0.00    -0.302 NA
ATOM     21  C   UNL     1      19.969  26.395  14.992  0.00  0.00    +0.066 C 
ATOM     22  C   UNL     1      18.552  26.810  14.476  0.00  0.00    -0.064 C 
ATOM     23  N   UNL     1      17.482  26.082  15.291  0.00  0.00    +0.379 N 
ATOM     24  C   UNL     1      16.149  26.513  14.847  0.00  0.00    -0.096 C 
ATOM     25  H   UNL     1      17.600  26.390  16.356  0.00  0.00    -0.082 HD
ATOM     26  C   UNL     1      17.675  24.573  15.224  0.00  0.00    -0.064 C 
ATOM     27  C   UNL     1      19.096  24.175  15.711  0.00  0.00    +0.066 C 
ENDBRANCH  19  20
ENDBRANCH  18  19
ENDBRANCH  14  15
ENDBRANCH  12  13
TORSDOF 6
ENDMDL
MODEL 2
REMARK VINA RESULT:      -8.5     11.911     16.498
REMARK  Name = C:\Users\Docking\Desktop\test protocol\1iep_ligandH.pdb
REMARK  8 active torsions:
REMARK  status: ('A' for Active; 'I' for Inactive)
REMARK    1  A    between atoms: _5  and  _11
REMARK    2  A    between atoms: _19  and  _21
REMARK    3  A    between atoms: _22  and  _66
REMARK    4  A    between atoms: _27  and  _30
REMARK    5  A    between atoms: _32  and  _33
REMARK    6  A    between atoms: _38  and  _43
REMARK    7  A    between atoms: _43  and  _46
REMARK    8  A    between atoms: _53  and  _55
REMARK                            x       y       z     vdW  Elec       q    Type
REMARK                         _______ _______ _______ _____ _____    ______ ____
ROOT
ATOM     10  C   UNL     1      23.756  18.515  34.727  0.00  0.00    +0.038 A 
ATOM     11  C   UNL     1      22.346  18.659  34.667  0.00  0.00    +0.047 A 
ATOM     12  C   UNL     1      21.616  19.359  35.713  0.00  0.00    +0.035 A 
ATOM     32  C   UNL     1      22.354  19.902  36.805  0.00  0.00    +0.024 A 
ATOM     33  C   UNL     1      23.787  19.763  36.882  0.00  0.00    +0.007 A 
ATOM     34  C   UNL     1      24.513  19.072  35.855  0.00  0.00    -0.029 A 
ATOM     35  C   UNL     1      26.048  18.948  35.994  0.00  0.00    +0.045 C 
ENDROOT
BRANCH  10   9
ATOM      4  C   UNL     1      26.261  18.426  30.634  0.00  0.00    +0.077 A 
ATOM      5  C   UNL     1      26.251  19.856  30.528  0.00  0.00    +0.048 A 
ATOM      6  C   UNL     1      25.584  20.578  31.543  0.00  0.00    +0.116 A 
ATOM      7  N   UNL     1      24.976  19.908  32.583  0.00  0.00    -0.223 NA
ATOM      8  C   UNL     1      25.003  18.528  32.655  0.00  0.00    +0.220 A 
ATOM      9  N   UNL     1      24.406  17.834  33.696  0.00  0.00    -0.283 N 
ATOM     36  H   UNL     1      24.442  16.815  33.709  0.00  0.00    +0.155 HD
ATOM     37  N   UNL     1      25.632  17.816  31.697  0.00  0.00    -0.214 NA
BRANCH   4   3
ATOM      1  C   UNL     1      26.876  15.805  27.796  0.00  0.00    +0.020 A 
ATOM      2  C   UNL     1      26.185  16.656  28.737  0.00  0.00    +0.013 A 
ATOM      3  C   UNL     1      26.927  17.525  29.641  0.00  0.00    +0.019 A 
ATOM     38  C   UNL     1      28.380  17.509  29.568  0.00  0.00    +0.120 A 
ATOM     39  N   UNL     1      29.019  16.678  28.653  0.00  0.00    -0.263 NA
ATOM     40  C   UNL     1      28.315  15.837  27.779  0.00  0.00    +0.111 A 
ENDBRANCH   4   3
ENDBRANCH  10   9
BRANCH  12  13
ATOM     13  N   UNL     1      20.184  19.530  35.710  0.00  0.00    -0.281 N 
ATOM     14  C   UNL     1      19.436  20.435  34.975  0.00  0.00    +0.248 C 
ATOM     30  O   UNL     1      19.905  21.384  34.364  0.00  0.00    -0.270 OA
ATOM     31  H   UNL     1      19.659  18.908  36.324  0.00  0.00    +0.155 HD
BRANCH  14  15
ATOM     15  C   UNL     1      17.952  20.270  34.922  0.00  0.00    +0.037 A 
ATOM     16  C   UNL     1      17.130  21.072  34.012  0.00  0.00    +0.013 A 
ATOM     17  C   UNL     1      15.698  20.905  33.993  0.00  0.00    +0.005 A 
ATOM     18  C   UNL     1      15.079  19.930  34.887  0.00  0.00    -0.033 A 
ATOM     28  C   UNL     1      15.919  19.143  35.776  0.00  0.00    +0.005 A 
ATOM     29  C   UNL     1      17.322  19.305  35.798  0.00  0.00    +0.013 A 
BRANCH  18  19
ATOM     19  C   UNL     1      13.558  19.700  34.950  0.00  0.00    +0.119 C 
BRANCH  19  20
ATOM     20  N   UNL     1      13.028  18.944  36.124  0.00  0.00    -0.302 NA
ATOM     21  C   UNL     1      12.781  17.469  35.794  0.00  0.00    +0.066 C 
ATOM     22  C   UNL     1      12.249  16.689  37.040  0.00  0.00    -0.064 C 
ATOM     23  N   UNL     1      10.966  17.353  37.544  0.00  0.00    +0.379 N 
ATOM     24  C   UNL     1      10.431  16.587  38.679  0.00  0.00    -0.096 C 
ATOM     25  H   UNL     1      10.216  17.306  36.720  0.00  0.00    -0.082 HD
ATOM     26  C   UNL     1      11.201  18.820  37.871  0.00  0.00    -0.064 C 
ATOM     27  C   UNL     1      11.759  19.580  36.635  0.00  0.00    +0.066 C 
ENDBRANCH  19  20
ENDBRANCH  18  19
ENDBRANCH  14  15
ENDBRANCH  12  13
TORSDOF 6
ENDMDL
MODEL 3
REMARK VINA RESULT:      -8.4      2.461     12.614
REMARK  Name = C:\Users\Docking\Desktop\test protocol\1iep_ligandH.pdb
REMARK  8 active torsions:
REMARK  status: ('A' for Active; 'I' for Inactive)
REMARK    1  A    between atoms: _5  and  _11
REMARK    2  A    between atoms: _19  and  _21
REMARK    3  A    between atoms: _22  and  _66
REMARK    4  A    between atoms: _27  and  _30
REMARK    5  A    between atoms: _32  and  _33
REMARK    6  A    between atoms: _38  and  _43
REMARK    7  A    between atoms: _43  and  _46
REMARK    8  A    between atoms: _53  and  _55
REMARK                            x       y       z     vdW  Elec       q    Type
REMARK                         _______ _______ _______ _____ _____    ______ ____
ROOT
ATOM     10  C   UNL     1      21.331  23.329  23.437  0.00  0.00    +0.038 A 
ATOM     11  C   UNL     1      20.105  23.480  24.134  0.00  0.00    +0.047 A 
ATOM     12  C   UNL     1      20.067  23.541  25.587  0.00  0.00    +0.035 A 
ATOM     32  C   UNL     1      21.298  23.446  26.299  0.00  0.00    +0.024 A 
ATOM     33  C   UNL     1      22.554  23.291  25.607  0.00  0.00    +0.007 A 
ATOM     34  C   UNL     1      22.597  23.229  24.174  0.00  0.00    -0.029 A 
ATOM     35  C   UNL     1      23.970  23.055  23.485  0.00  0.00    +0.045 C 
ENDROOT
BRANCH  10   9
ATOM      4  C   UNL     1      21.963  25.322  19.117  0.00  0.00    +0.077 A 
ATOM      5  C   UNL     1      22.344  26.581  19.688  0.00  0.00    +0.048 A 
ATOM      6  C   UNL     1      22.358  26.677  21.098  0.00  0.00    +0.116 A 
ATOM      7  N   UNL     1      22.015  25.587  21.869  0.00  0.00    -0.223 NA
ATOM      8  C   UNL     1      21.650  24.388  21.286  0.00  0.00    +0.220 A 
ATOM      9  N   UNL     1      21.309  23.277  22.042  0.00  0.00    -0.283 N 
ATOM     36  H   UNL     1      21.038  22.412  21.574  0.00  0.00    +0.155 HD
ATOM     37  N   UNL     1      21.628  24.271  19.942  0.00  0.00    -0.214 NA
BRANCH   4   3
ATOM      1  C   UNL     1      21.503  23.570  15.650  0.00  0.00    +0.020 A 
ATOM      2  C   UNL     1      21.546  23.767  17.080  0.00  0.00    +0.013 A 
ATOM      3  C   UNL     1      21.903  25.063  17.643  0.00  0.00    +0.019 A 
ATOM     38  C   UNL     1      22.213  26.148  16.724  0.00  0.00    +0.120 A 
ATOM     39  N   UNL     1      22.164  25.928  15.351  0.00  0.00    -0.263 NA
ATOM     40  C   UNL     1      21.823  24.685  14.798  0.00  0.00    +0.111 A 
ENDBRANCH   4   3
ENDBRANCH  10   9
BRANCH  12  13
ATOM     13  N   UNL     1      18.852  23.685  26.349  0.00  0.00    -0.281 N 
ATOM     14  C   UNL     1      18.181  22.714  27.075  0.00  0.00    +0.248 C 
ATOM     30  O   UNL     1      18.412  21.516  27.005  0.00  0.00    -0.270 OA
ATOM     31  H   UNL     1      18.435  24.616  26.354  0.00  0.00    +0.155 HD
BRANCH  14  15
ATOM     15  C   UNL     1      17.087  23.134  28.003  0.00  0.00    +0.037 A 
ATOM     16  C   UNL     1      16.344  22.150  28.795  0.00  0.00    +0.013 A 
ATOM     17  C   UNL     1      15.282  22.580  29.670  0.00  0.00    +0.005 A 
ATOM     18  C   UNL     1      14.958  24.002  29.759  0.00  0.00    -0.033 A 
ATOM     28  C   UNL     1      15.715  24.957  28.966  0.00  0.00    +0.005 A 
ATOM     29  C   UNL     1      16.756  24.539  28.107  0.00  0.00    +0.013 A 
BRANCH  18  19
ATOM     19  C   UNL     1      13.827  24.548  30.650  0.00  0.00    +0.119 C 
BRANCH  19  20
ATOM     20  N   UNL     1      13.379  23.691  31.788  0.00  0.00    -0.302 NA
ATOM     21  C   UNL     1      11.935  23.992  32.199  0.00  0.00    +0.066 C 
ATOM     22  C   UNL     1      11.475  23.071  33.376  0.00  0.00    -0.064 C 
ATOM     23  N   UNL     1      12.424  23.251  34.562  0.00  0.00    +0.379 N 
ATOM     24  C   UNL     1      11.961  22.430  35.690  0.00  0.00    -0.096 C 
ATOM     25  H   UNL     1      12.373  24.319  34.876  0.00  0.00    -0.082 HD
ATOM     26  C   UNL     1      13.863  22.957  34.161  0.00  0.00    -0.064 C 
ATOM     27  C   UNL     1      14.300  23.857  32.971  0.00  0.00    +0.066 C 
ENDBRANCH  19  20
ENDBRANCH  18  19
ENDBRANCH  14  15
ENDBRANCH  12  13
TORSDOF 6
ENDMDL
MODEL 4
REMARK VINA RESULT:      -8.3      4.941     12.280
REMARK  Name = C:\Users\Docking\Desktop\test protocol\1iep_ligandH.pdb
REMARK  8 active torsions:
REMARK  status: ('A' for Active; 'I' for Inactive)
REMARK    1  A    between atoms: _5  and  _11
REMARK    2  A    between atoms: _19  and  _21
REMARK    3  A    between atoms: _22  and  _66
REMARK    4  A    between atoms: _27  and  _30
REMARK    5  A    between atoms: _32  and  _33
REMARK    6  A    between atoms: _38  and  _43
REMARK    7  A    between atoms: _43  and  _46
REMARK    8  A    between atoms: _53  and  _55
REMARK                            x       y       z     vdW  Elec       q    Type
REMARK                         _______ _______ _______ _____ _____    ______ ____
ROOT
ATOM     10  C   UNL     1      20.297  24.779  24.366  0.00  0.00    +0.038 A 
ATOM     11  C   UNL     1      20.989  23.851  25.187  0.00  0.00    +0.047 A 
ATOM     12  C   UNL     1      21.141  24.079  26.616  0.00  0.00    +0.035 A 
ATOM     32  C   UNL     1      20.574  25.260  27.176  0.00  0.00    +0.024 A 
ATOM     33  C   UNL     1      19.868  26.214  26.356  0.00  0.00    +0.007 A 
ATOM     34  C   UNL     1      19.717  25.996  24.946  0.00  0.00    -0.029 A 
ATOM     35  C   UNL     1      18.957  27.055  24.114  0.00  0.00    +0.045 C 
ENDROOT
BRANCH  10   9
ATOM      4  C   UNL     1      21.687  25.346  19.807  0.00  0.00    +0.077 A 
ATOM      5  C   UNL     1      22.715  26.277  20.175  0.00  0.00    +0.048 A 
ATOM      6  C   UNL     1      22.848  26.589  21.546  0.00  0.00    +0.116 A 
ATOM      7  N   UNL     1      22.011  26.006  22.473  0.00  0.00    -0.223 NA
ATOM      8  C   UNL     1      21.029  25.114  22.085  0.00  0.00    +0.220 A 
ATOM      9  N   UNL     1      20.181  24.510  23.001  0.00  0.00    -0.283 N 
ATOM     36  H   UNL     1      19.464  23.863  22.673  0.00  0.00    +0.155 HD
ATOM     37  N   UNL     1      20.880  24.801  20.781  0.00  0.00    -0.214 NA
BRANCH   4   3
ATOM      1  C   UNL     1      21.361  23.182  16.565  0.00  0.00    +0.020 A 
ATOM      2  C   UNL     1      21.631  23.547  17.937  0.00  0.00    +0.013 A 
ATOM      3  C   UNL     1      21.424  24.914  18.398  0.00  0.00    +0.019 A 
ATOM     38  C   UNL     1      20.938  25.895  17.439  0.00  0.00    +0.120 A 
ATOM     39  N   UNL     1      20.689  25.515  16.124  0.00  0.00    -0.263 NA
ATOM     40  C   UNL     1      20.886  24.203  15.669  0.00  0.00    +0.111 A 
ENDBRANCH   4   3
ENDBRANCH  10   9
BRANCH  12  13
ATOM     13  N   UNL     1      21.839  23.177  27.498  0.00  0.00    -0.281 N 
ATOM     14  C   UNL     1      21.320  22.106  28.207  0.00  0.00    +0.248 C 
ATOM     30  O   UNL     1      20.127  21.890  28.357  0.00  0.00    -0.270 OA
ATOM     31  H   UNL     1      22.838  23.349  27.614  0.00  0.00    +0.155 HD
BRANCH  14  15
ATOM     15  C   UNL     1      22.262  21.144  28.854  0.00  0.00    +0.037 A 
ATOM     16  C   UNL     1      22.188  20.857  30.289  0.00  0.00    +0.013 A 
ATOM     17  C   UNL     1      23.120  19.937  30.892  0.00  0.00    +0.005 A 
ATOM     18  C   UNL     1      24.135  19.296  30.059  0.00  0.00    -0.033 A 
ATOM     28  C   UNL     1      24.182  19.595  28.637  0.00  0.00    +0.005 A 
ATOM     29  C   UNL     1      23.271  20.497  28.043  0.00  0.00    +0.013 A 
BRANCH  18  19
ATOM     19  C   UNL     1      25.183  18.318  30.621  0.00  0.00    +0.119 C 
BRANCH  19  20
ATOM     20  N   UNL     1      26.335  17.969  29.737  0.00  0.00    -0.302 NA
ATOM     21  C   UNL     1      26.154  16.603  29.070  0.00  0.00    +0.066 C 
ATOM     22  C   UNL     1      27.358  16.263  28.132  0.00  0.00    -0.064 C 
ATOM     23  N   UNL     1      28.657  16.304  28.938  0.00  0.00    +0.379 N 
ATOM     24  C   UNL     1      29.784  15.928  28.072  0.00  0.00    -0.096 C 
ATOM     25  H   UNL     1      28.578  15.537  29.744  0.00  0.00    -0.082 HD
ATOM     26  C   UNL     1      28.844  17.658  29.607  0.00  0.00    -0.064 C 
ATOM     27  C   UNL     1      27.628  17.999  30.514  0.00  0.00    +0.066 C 
ENDBRANCH  19  20
ENDBRANCH  18  19
ENDBRANCH  14  15
ENDBRANCH  12  13
TORSDOF 6
ENDMDL
MODEL 5
REMARK VINA RESULT:      -8.3      1.687      2.415
REMARK  Name = C:\Users\Docking\Desktop\test protocol\1iep_ligandH.pdb
REMARK  8 active torsions:
REMARK  status: ('A' for Active; 'I' for Inactive)
REMARK    1  A    between atoms: _5  and  _11
REMARK    2  A    between atoms: _19  and  _21
REMARK    3  A    between atoms: _22  and  _66
REMARK    4  A    between atoms: _27  and  _30
REMARK    5  A    between atoms: _32  and  _33
REMARK    6  A    between atoms: _38  and  _43
REMARK    7  A    between atoms: _43  and  _46
REMARK    8  A    between atoms: _53  and  _55
REMARK                            x       y       z     vdW  Elec       q    Type
REMARK                         _______ _______ _______ _____ _____    ______ ____
ROOT
ATOM     10  C   UNL     1      20.502  23.269  27.509  0.00  0.00    +0.038 A 
ATOM     11  C   UNL     1      20.389  23.567  26.127  0.00  0.00    +0.047 A 
ATOM     12  C   UNL     1      21.405  23.138  25.179  0.00  0.00    +0.035 A 
ATOM     32  C   UNL     1      22.523  22.405  25.673  0.00  0.00    +0.024 A 
ATOM     33  C   UNL     1      22.655  22.094  27.075  0.00  0.00    +0.007 A 
ATOM     34  C   UNL     1      21.656  22.517  28.015  0.00  0.00    -0.029 A 
ATOM     35  C   UNL     1      21.853  22.161  29.507  0.00  0.00    +0.045 C 
ENDROOT
BRANCH  10   9
ATOM      4  C   UNL     1      16.304  22.679  29.760  0.00  0.00    +0.077 A 
ATOM      5  C   UNL     1      16.082  21.406  29.138  0.00  0.00    +0.048 A 
ATOM      6  C   UNL     1      17.069  20.942  28.239  0.00  0.00    +0.116 A 
ATOM      7  N   UNL     1      18.190  21.703  27.990  0.00  0.00    -0.223 NA
ATOM      8  C   UNL     1      18.373  22.927  28.605  0.00  0.00    +0.220 A 
ATOM      9  N   UNL     1      19.497  23.706  28.375  0.00  0.00    -0.283 N 
ATOM     36  H   UNL     1      19.591  24.607  28.843  0.00  0.00    +0.155 HD
ATOM     37  N   UNL     1      17.444  23.393  29.466  0.00  0.00    -0.214 NA
BRANCH   4   3
ATOM      1  C   UNL     1      13.343  24.715  31.307  0.00  0.00    +0.020 A 
ATOM      2  C   UNL     1      14.231  24.136  30.325  0.00  0.00    +0.013 A 
ATOM      3  C   UNL     1      15.355  23.303  30.735  0.00  0.00    +0.019 A 
ATOM     38  C   UNL     1      15.553  23.072  32.158  0.00  0.00    +0.120 A 
ATOM     39  N   UNL     1      14.682  23.644  33.081  0.00  0.00    -0.263 NA
ATOM     40  C   UNL     1      13.599  24.448  32.698  0.00  0.00    +0.111 A 
ENDBRANCH   4   3
ENDBRANCH  10   9
BRANCH  12  13
ATOM     13  N   UNL     1      21.348  23.419  23.766  0.00  0.00    -0.281 N 
ATOM     14  C   UNL     1      22.376  23.843  22.939  0.00  0.00    +0.248 C 
ATOM     30  O   UNL     1      23.457  24.253  23.336  0.00  0.00    -0.270 OA
ATOM     31  H   UNL     1      20.439  23.289  23.321  0.00  0.00    +0.155 HD
BRANCH  14  15
ATOM     15  C   UNL     1      22.168  23.822  21.460  0.00  0.00    +0.037 A 
ATOM     16  C   UNL     1      22.170  22.563  20.709  0.00  0.00    +0.013 A 
ATOM     17  C   UNL     1      21.984  22.573  19.280  0.00  0.00    +0.005 A 
ATOM     18  C   UNL     1      21.792  23.847  18.591  0.00  0.00    -0.033 A 
ATOM     28  C   UNL     1      21.788  25.080  19.361  0.00  0.00    +0.005 A 
ATOM     29  C   UNL     1      21.972  25.075  20.762  0.00  0.00    +0.013 A 
BRANCH  18  19
ATOM     19  C   UNL     1      21.607  23.954  17.066  0.00  0.00    +0.119 C 
BRANCH  19  20
ATOM     20  N   UNL     1      20.639  24.974  16.564  0.00  0.00    -0.302 NA
ATOM     21  C   UNL     1      19.249  24.379  16.324  0.00  0.00    +0.066 C 
ATOM     22  C   UNL     1      18.244  25.465  15.821  0.00  0.00    -0.064 C 
ATOM     23  N   UNL     1      18.787  26.106  14.542  0.00  0.00    +0.379 N 
ATOM     24  C   UNL     1      17.817  27.086  14.035  0.00  0.00    -0.096 C 
ATOM     25  H   UNL     1      18.886  25.301  13.777  0.00  0.00    -0.082 HD
ATOM     26  C   UNL     1      20.170  26.698  14.772  0.00  0.00    -0.064 C 
ATOM     27  C   UNL     1      21.154  25.617  15.300  0.00  0.00    +0.066 C 
ENDBRANCH  19  20
ENDBRANCH  18  19
ENDBRANCH  14  15
ENDBRANCH  12  13
TORSDOF 6
ENDMDL
