MODEL 1
REMARK VINA RESULT:      -8.4      0.000      0.000
REMARK  Name = C:\Users\Docking\Desktop\test protocol\1iep_ligandH.pdb
REMARK  8 active torsions:
REMARK  status: ('A' for Active; 'I' for Inactive)
REMARK    1  A    between atoms: _5  and  _11
REMARK    2  A    between atoms: _19  and  _21
REMARK    3  A    between atoms: _22  and  _66
REMARK    4  A    between atoms: _27  and  _30
REMARK    5  A    between atoms: _32  and  _33
REMARK    6  A    between atoms: _38  and  _43
REMARK    7  A    between atoms: _43  and  _46
REMARK    8  A    between atoms: _53  and  _55
REMARK                            x       y       z     vdW  Elec       q    Type
REMARK                         _______ _______ _______ _____ _____    ______ ____
ROOT
ATOM     10  C   UNL     1     -17.692  32.314  30.276  0.00  0.00    +0.038 A 
ATOM     11  C   UNL     1     -16.661  31.550  29.671  0.00  0.00    +0.047 A 
ATOM     12  C   UNL     1     -16.561  30.115  29.889  0.00  0.00    +0.035 A 
ATOM     32  C   UNL     1     -17.529  29.490  30.728  0.00  0.00    +0.024 A 
ATOM     33  C   UNL     1     -18.582  30.252  31.352  0.00  0.00    +0.007 A 
ATOM     34  C   UNL     1     -18.685  31.668  31.142  0.00  0.00    -0.029 A 
ATOM     35  C   UNL     1     -19.831  32.435  31.842  0.00  0.00    +0.045 C 
ENDROOT
BRANCH  10   9
ATOM      4  C   UNL     1     -16.361  36.829  31.212  0.00  0.00    +0.077 A 
ATOM      5  C   UNL     1     -15.517  36.418  32.297  0.00  0.00    +0.048 A 
ATOM      6  C   UNL     1     -15.459  35.036  32.587  0.00  0.00    +0.116 A 
ATOM      7  N   UNL     1     -16.194  34.141  31.840  0.00  0.00    -0.223 NA
ATOM      8  C   UNL     1     -16.999  34.571  30.801  0.00  0.00    +0.220 A 
ATOM      9  N   UNL     1     -17.741  33.688  30.032  0.00  0.00    -0.283 N 
ATOM     36  H   UNL     1     -18.328  34.046  29.279  0.00  0.00    +0.155 HD
ATOM     37  N   UNL     1     -17.073  35.886  30.506  0.00  0.00    -0.214 NA
BRANCH   4   3
ATOM      1  C   UNL     1     -15.792  40.667  30.713  0.00  0.00    +0.020 A 
ATOM      2  C   UNL     1     -15.588  39.306  31.155  0.00  0.00    +0.013 A 
ATOM      3  C   UNL     1     -16.525  38.254  30.783  0.00  0.00    +0.019 A 
ATOM     38  C   UNL     1     -17.667  38.614  29.956  0.00  0.00    +0.120 A 
ATOM     39  N   UNL     1     -17.838  39.933  29.547  0.00  0.00    -0.263 NA
ATOM     40  C   UNL     1     -16.944  40.954  29.900  0.00  0.00    +0.111 A 
ENDBRANCH   4   3
ENDBRANCH  10   9
BRANCH  12  13
ATOM     13  N   UNL     1     -15.532  29.289  29.308  0.00  0.00    -0.281 N 
ATOM     14  C   UNL     1     -14.933  29.423  28.066  0.00  0.00    +0.248 C 
ATOM     30  O   UNL     1     -15.344  30.150  27.175  0.00  0.00    -0.270 OA
ATOM     31  H   UNL     1     -15.206  28.511  29.882  0.00  0.00    +0.155 HD
BRANCH  14  15
ATOM     15  C   UNL     1     -13.707  28.621  27.765  0.00  0.00    +0.037 A 
ATOM     16  C   UNL     1     -12.752  29.049  26.740  0.00  0.00    +0.013 A 
ATOM     17  C   UNL     1     -11.587  28.248  26.458  0.00  0.00    +0.005 A 
ATOM     18  C   UNL     1     -11.370  27.011  27.205  0.00  0.00    -0.033 A 
ATOM     28  C   UNL     1     -12.331  26.614  28.221  0.00  0.00    +0.005 A 
ATOM     29  C   UNL     1     -13.475  27.395  28.499  0.00  0.00    +0.013 A 
BRANCH  18  19
ATOM     19  C   UNL     1     -10.166  26.084  26.956  0.00  0.00    +0.119 C 
BRANCH  19  20
ATOM     20  N   UNL     1     -10.419  24.823  26.198  0.00  0.00    -0.302 NA
ATOM     21  C   UNL     1      -9.856  23.596  26.920  0.00  0.00    +0.066 C 
ATOM     22  C   UNL     1     -10.149  22.282  26.125  0.00  0.00    -0.064 C 
ATOM     23  N   UNL     1      -9.562  22.400  24.717  0.00  0.00    +0.379 N 
ATOM     24  C   UNL     1      -9.786  21.144  23.986  0.00  0.00    -0.096 C 
ATOM     25  H   UNL     1      -8.461  22.539  24.821  0.00  0.00    -0.082 HD
ATOM     26  C   UNL     1     -10.115  23.619  23.993  0.00  0.00    -0.064 C 
ATOM     27  C   UNL     1      -9.843  24.915  24.806  0.00  0.00    +0.066 C 
ENDBRANCH  19  20
ENDBRANCH  18  19
ENDBRANCH  14  15
ENDBRANCH  12  13
TORSDOF 6
ENDMDL
MODEL 2
REMARK VINA RESULT:      -8.1      5.384     12.983
REMARK  Name = C:\Users\Docking\Desktop\test protocol\1iep_ligandH.pdb
REMARK  8 active torsions:
REMARK  status: ('A' for Active; 'I' for Inactive)
REMARK    1  A    between atoms: _5  and  _11
REMARK    2  A    between atoms: _19  and  _21
REMARK    3  A    between atoms: _22  and  _66
REMARK    4  A    between atoms: _27  and  _30
REMARK    5  A    between atoms: _32  and  _33
REMARK    6  A    between atoms: _38  and  _43
REMARK    7  A    between atoms: _43  and  _46
REMARK    8  A    between atoms: _53  and  _55
REMARK                            x       y       z     vdW  Elec       q    Type
REMARK                         _______ _______ _______ _____ _____    ______ ____
ROOT
ATOM     10  C   UNL     1     -16.261  34.125  30.066  0.00  0.00    +0.038 A 
ATOM     11  C   UNL     1     -17.184  34.850  29.269  0.00  0.00    +0.047 A 
ATOM     12  C   UNL     1     -18.037  35.875  29.849  0.00  0.00    +0.035 A 
ATOM     32  C   UNL     1     -17.921  36.139  31.245  0.00  0.00    +0.024 A 
ATOM     33  C   UNL     1     -16.989  35.412  32.070  0.00  0.00    +0.007 A 
ATOM     34  C   UNL     1     -16.147  34.397  31.504  0.00  0.00    -0.029 A 
ATOM     35  C   UNL     1     -15.171  33.644  32.437  0.00  0.00    +0.045 C 
ENDROOT
BRANCH  10   9
ATOM      4  C   UNL     1     -15.283  29.567  28.924  0.00  0.00    +0.077 A 
ATOM      5  C   UNL     1     -16.437  29.082  29.625  0.00  0.00    +0.048 A 
ATOM      6  C   UNL     1     -17.253  30.037  30.272  0.00  0.00    +0.116 A 
ATOM      7  N   UNL     1     -16.929  31.376  30.215  0.00  0.00    -0.223 NA
ATOM      8  C   UNL     1     -15.807  31.810  29.532  0.00  0.00    +0.220 A 
ATOM      9  N   UNL     1     -15.467  33.151  29.456  0.00  0.00    -0.283 N 
ATOM     36  H   UNL     1     -14.628  33.431  28.949  0.00  0.00    +0.155 HD
ATOM     37  N   UNL     1     -15.012  30.917  28.908  0.00  0.00    -0.214 NA
BRANCH   4   3
ATOM      1  C   UNL     1     -12.826  26.660  28.024  0.00  0.00    +0.020 A 
ATOM      2  C   UNL     1     -13.745  27.481  28.778  0.00  0.00    +0.013 A 
ATOM      3  C   UNL     1     -14.326  28.681  28.189  0.00  0.00    +0.019 A 
ATOM     38  C   UNL     1     -13.953  29.025  26.825  0.00  0.00    +0.120 A 
ATOM     39  N   UNL     1     -13.064  28.216  26.124  0.00  0.00    -0.263 NA
ATOM     40  C   UNL     1     -12.498  27.059  26.681  0.00  0.00    +0.111 A 
ENDBRANCH   4   3
ENDBRANCH  10   9
BRANCH  12  13
ATOM     13  N   UNL     1     -18.998  36.638  29.092  0.00  0.00    -0.281 N 
ATOM     14  C   UNL     1     -18.896  37.951  28.662  0.00  0.00    +0.248 C 
ATOM     30  O   UNL     1     -18.047  38.741  29.050  0.00  0.00    -0.270 OA
ATOM     31  H   UNL     1     -19.859  36.150  28.842  0.00  0.00    +0.155 HD
BRANCH  14  15
ATOM     15  C   UNL     1     -19.887  38.465  27.669  0.00  0.00    +0.037 A 
ATOM     16  C   UNL     1     -19.709  39.767  27.021  0.00  0.00    +0.013 A 
ATOM     17  C   UNL     1     -20.689  40.246  26.079  0.00  0.00    +0.005 A 
ATOM     18  C   UNL     1     -21.857  39.422  25.779  0.00  0.00    -0.033 A 
ATOM     28  C   UNL     1     -22.007  38.132  26.432  0.00  0.00    +0.005 A 
ATOM     29  C   UNL     1     -21.048  37.659  27.356  0.00  0.00    +0.013 A 
BRANCH  18  19
ATOM     19  C   UNL     1     -22.964  39.864  24.803  0.00  0.00    +0.119 C 
BRANCH  19  20
ATOM     20  N   UNL     1     -23.015  39.184  23.475  0.00  0.00    -0.302 NA
ATOM     21  C   UNL     1     -23.321  40.165  22.339  0.00  0.00    +0.066 C 
ATOM     22  C   UNL     1     -23.348  39.441  20.954  0.00  0.00    -0.064 C 
ATOM     23  N   UNL     1     -24.384  38.315  20.990  0.00  0.00    +0.379 N 
ATOM     24  C   UNL     1     -24.454  37.670  19.671  0.00  0.00    -0.096 C 
ATOM     25  H   UNL     1     -25.378  38.777  21.194  0.00  0.00    -0.082 HD
ATOM     26  C   UNL     1     -24.089  37.337  22.118  0.00  0.00    -0.064 C 
ATOM     27  C   UNL     1     -24.035  38.071  23.487  0.00  0.00    +0.066 C 
ENDBRANCH  19  20
ENDBRANCH  18  19
ENDBRANCH  14  15
ENDBRANCH  12  13
TORSDOF 6
ENDMDL
MODEL 3
REMARK VINA RESULT:      -8.1      7.397     12.856
REMARK  Name = C:\Users\Docking\Desktop\test protocol\1iep_ligandH.pdb
REMARK  8 active torsions:
REMARK  status: ('A' for Active; 'I' for Inactive)
REMARK    1  A    between atoms: _5  and  _11
REMARK    2  A    between atoms: _19  and  _21
REMARK    3  A    between atoms: _22  and  _66
REMARK    4  A    between atoms: _27  and  _30
REMARK    5  A    between atoms: _32  and  _33
REMARK    6  A    between atoms: _38  and  _43
REMARK    7  A    between atoms: _43  and  _46
REMARK    8  A    between atoms: _53  and  _55
REMARK                            x       y       z     vdW  Elec       q    Type
REMARK                         _______ _______ _______ _____ _____    ______ ____
ROOT
ATOM     10  C   UNL     1     -22.840  42.145  24.991  0.00  0.00    +0.038 A 
ATOM     11  C   UNL     1     -21.997  41.451  25.896  0.00  0.00    +0.047 A 
ATOM     12  C   UNL     1     -21.284  40.249  25.491  0.00  0.00    +0.035 A 
ATOM     32  C   UNL     1     -21.452  39.783  24.154  0.00  0.00    +0.024 A 
ATOM     33  C   UNL     1     -22.306  40.476  23.221  0.00  0.00    +0.007 A 
ATOM     34  C   UNL     1     -23.013  41.660  23.617  0.00  0.00    -0.029 A 
ATOM     35  C   UNL     1     -23.920  42.358  22.577  0.00  0.00    +0.045 C 
ENDROOT
BRANCH  10   9
ATOM      4  C   UNL     1     -23.175  46.907  25.490  0.00  0.00    +0.077 A 
ATOM      5  C   UNL     1     -21.916  47.123  24.836  0.00  0.00    +0.048 A 
ATOM      6  C   UNL     1     -21.210  45.982  24.394  0.00  0.00    +0.116 A 
ATOM      7  N   UNL     1     -21.734  44.723  24.594  0.00  0.00    -0.223 NA
ATOM      8  C   UNL     1     -22.950  44.550  25.229  0.00  0.00    +0.220 A 
ATOM      9  N   UNL     1     -23.499  43.294  25.434  0.00  0.00    -0.283 N 
ATOM     36  H   UNL     1     -24.395  43.207  25.913  0.00  0.00    +0.155 HD
ATOM     37  N   UNL     1     -23.643  45.624  25.663  0.00  0.00    -0.214 NA
BRANCH   4   3
ATOM      1  C   UNL     1     -26.236  49.241  26.184  0.00  0.00    +0.020 A 
ATOM      2  C   UNL     1     -25.445  48.155  25.652  0.00  0.00    +0.013 A 
ATOM      3  C   UNL     1     -24.040  48.012  26.011  0.00  0.00    +0.019 A 
ATOM     38  C   UNL     1     -23.461  48.992  26.918  0.00  0.00    +0.120 A 
ATOM     39  N   UNL     1     -24.247  50.028  27.413  0.00  0.00    -0.263 NA
ATOM     40  C   UNL     1     -25.600  50.176  27.073  0.00  0.00    +0.111 A 
ENDBRANCH   4   3
ENDBRANCH  10   9
BRANCH  12  13
ATOM     13  N   UNL     1     -20.421  39.498  26.368  0.00  0.00    -0.281 N 
ATOM     14  C   UNL     1     -19.385  39.974  27.155  0.00  0.00    +0.248 C 
ATOM     30  O   UNL     1     -18.902  41.093  27.060  0.00  0.00    -0.270 OA
ATOM     31  H   UNL     1     -20.595  38.494  26.415  0.00  0.00    +0.155 HD
BRANCH  14  15
ATOM     15  C   UNL     1     -18.788  39.071  28.186  0.00  0.00    +0.037 A 
ATOM     16  C   UNL     1     -17.978  39.603  29.285  0.00  0.00    +0.013 A 
ATOM     17  C   UNL     1     -17.401  38.709  30.257  0.00  0.00    +0.005 A 
ATOM     18  C   UNL     1     -17.632  37.272  30.134  0.00  0.00    -0.033 A 
ATOM     28  C   UNL     1     -18.444  36.771  29.037  0.00  0.00    +0.005 A 
ATOM     29  C   UNL     1     -19.011  37.645  28.082  0.00  0.00    +0.013 A 
BRANCH  18  19
ATOM     19  C   UNL     1     -17.037  36.242  31.113  0.00  0.00    +0.119 C 
BRANCH  19  20
ATOM     20  N   UNL     1     -17.118  34.802  30.723  0.00  0.00    -0.302 NA
ATOM     21  C   UNL     1     -17.376  33.895  31.929  0.00  0.00    +0.066 C 
ATOM     22  C   UNL     1     -17.480  32.395  31.501  0.00  0.00    -0.064 C 
ATOM     23  N   UNL     1     -16.196  31.983  30.778  0.00  0.00    +0.379 N 
ATOM     24  C   UNL     1     -16.267  30.558  30.425  0.00  0.00    -0.096 C 
ATOM     25  H   UNL     1     -15.350  32.114  31.492  0.00  0.00    -0.082 HD
ATOM     26  C   UNL     1     -15.931  32.883  29.579  0.00  0.00    -0.064 C 
ATOM     27  C   UNL     1     -15.859  34.374  30.011  0.00  0.00    +0.066 C 
ENDBRANCH  19  20
ENDBRANCH  18  19
ENDBRANCH  14  15
ENDBRANCH  12  13
TORSDOF 6
ENDMDL
MODEL 4
REMARK VINA RESULT:      -8.1      4.759     14.407
REMARK  Name = C:\Users\Docking\Desktop\test protocol\1iep_ligandH.pdb
REMARK  8 active torsions:
REMARK  status: ('A' for Active; 'I' for Inactive)
REMARK    1  A    between atoms: _5  and  _11
REMARK    2  A    between atoms: _19  and  _21
REMARK    3  A    between atoms: _22  and  _66
REMARK    4  A    between atoms: _27  and  _30
REMARK    5  A    between atoms: _32  and  _33
REMARK    6  A    between atoms: _38  and  _43
REMARK    7  A    between atoms: _43  and  _46
REMARK    8  A    between atoms: _53  and  _55
REMARK                            x       y       z     vdW  Elec       q    Type
REMARK                         _______ _______ _______ _____ _____    ______ ____
ROOT
ATOM     10  C   UNL     1     -16.167  34.573  30.055  0.00  0.00    +0.038 A 
ATOM     11  C   UNL     1     -16.995  35.418  29.272  0.00  0.00    +0.047 A 
ATOM     12  C   UNL     1     -17.770  36.488  29.882  0.00  0.00    +0.035 A 
ATOM     32  C   UNL     1     -17.675  36.670  31.293  0.00  0.00    +0.024 A 
ATOM     33  C   UNL     1     -16.840  35.820  32.104  0.00  0.00    +0.007 A 
ATOM     34  C   UNL     1     -16.075  34.762  31.507  0.00  0.00    -0.029 A 
ATOM     35  C   UNL     1     -15.201  33.876  32.426  0.00  0.00    +0.045 C 
ENDROOT
BRANCH  10   9
ATOM      4  C   UNL     1     -15.443  29.971  28.902  0.00  0.00    +0.077 A 
ATOM      5  C   UNL     1     -16.585  29.541  29.657  0.00  0.00    +0.048 A 
ATOM      6  C   UNL     1     -17.327  30.534  30.334  0.00  0.00    +0.116 A 
ATOM      7  N   UNL     1     -16.948  31.857  30.253  0.00  0.00    -0.223 NA
ATOM      8  C   UNL     1     -15.841  32.237  29.517  0.00  0.00    +0.220 A 
ATOM      9  N   UNL     1     -15.445  33.562  29.416  0.00  0.00    -0.283 N 
ATOM     36  H   UNL     1     -14.619  33.802  28.870  0.00  0.00    +0.155 HD
ATOM     37  N   UNL     1     -15.114  31.307  28.864  0.00  0.00    -0.214 NA
BRANCH   4   3
ATOM      1  C   UNL     1     -13.319  28.350  26.045  0.00  0.00    +0.020 A 
ATOM      2  C   UNL     1     -14.174  29.280  26.746  0.00  0.00    +0.013 A 
ATOM      3  C   UNL     1     -14.561  29.040  28.130  0.00  0.00    +0.019 A 
ATOM     38  C   UNL     1     -14.060  27.840  28.783  0.00  0.00    +0.120 A 
ATOM     39  N   UNL     1     -13.239  26.961  28.083  0.00  0.00    -0.263 NA
ATOM     40  C   UNL     1     -12.862  27.181  26.750  0.00  0.00    +0.111 A 
ENDBRANCH   4   3
ENDBRANCH  10   9
BRANCH  12  13
ATOM     13  N   UNL     1     -18.634  37.372  29.140  0.00  0.00    -0.281 N 
ATOM     14  C   UNL     1     -18.439  38.714  28.859  0.00  0.00    +0.248 C 
ATOM     30  O   UNL     1     -17.590  39.416  29.388  0.00  0.00    -0.270 OA
ATOM     31  H   UNL     1     -19.493  36.958  28.778  0.00  0.00    +0.155 HD
BRANCH  14  15
ATOM     15  C   UNL     1     -19.326  39.377  27.855  0.00  0.00    +0.037 A 
ATOM     16  C   UNL     1     -20.330  38.616  27.107  0.00  0.00    +0.013 A 
ATOM     17  C   UNL     1     -21.161  39.277  26.132  0.00  0.00    +0.005 A 
ATOM     18  C   UNL     1     -20.991  40.709  25.900  0.00  0.00    -0.033 A 
ATOM     28  C   UNL     1     -19.992  41.442  26.660  0.00  0.00    +0.005 A 
ATOM     29  C   UNL     1     -19.175  40.797  27.616  0.00  0.00    +0.013 A 
BRANCH  18  19
ATOM     19  C   UNL     1     -21.819  41.492  24.864  0.00  0.00    +0.119 C 
BRANCH  19  20
ATOM     20  N   UNL     1     -22.128  42.920  25.174  0.00  0.00    -0.302 NA
ATOM     21  C   UNL     1     -23.289  43.055  26.164  0.00  0.00    +0.066 C 
ATOM     22  C   UNL     1     -23.584  44.555  26.494  0.00  0.00    -0.064 C 
ATOM     23  N   UNL     1     -23.887  45.309  25.198  0.00  0.00    +0.379 N 
ATOM     24  C   UNL     1     -24.221  46.706  25.511  0.00  0.00    -0.096 C 
ATOM     25  H   UNL     1     -24.787  44.841  24.737  0.00  0.00    -0.082 HD
ATOM     26  C   UNL     1     -22.739  45.178  24.207  0.00  0.00    -0.064 C 
ATOM     27  C   UNL     1     -22.435  43.683  23.909  0.00  0.00    +0.066 C 
ENDBRANCH  19  20
ENDBRANCH  18  19
ENDBRANCH  14  15
ENDBRANCH  12  13
TORSDOF 6
ENDMDL
MODEL 5
REMARK VINA RESULT:      -8.0     12.193     13.980
REMARK  Name = C:\Users\Docking\Desktop\test protocol\1iep_ligandH.pdb
REMARK  8 active torsions:
REMARK  status: ('A' for Active; 'I' for Inactive)
REMARK    1  A    between atoms: _5  and  _11
REMARK    2  A    between atoms: _19  and  _21
REMARK    3  A    between atoms: _22  and  _66
REMARK    4  A    between atoms: _27  and  _30
REMARK    5  A    between atoms: _32  and  _33
REMARK    6  A    between atoms: _38  and  _43
REMARK    7  A    between atoms: _43  and  _46
REMARK    8  A    between atoms: _53  and  _55
REMARK                            x       y       z     vdW  Elec       q    Type
REMARK                         _______ _______ _______ _____ _____    ______ ____
ROOT
ATOM     10  C   UNL     1     -19.719  41.797  29.039  0.00  0.00    +0.038 A 
ATOM     11  C   UNL     1     -18.303  41.843  29.115  0.00  0.00    +0.047 A 
ATOM     12  C   UNL     1     -17.630  42.665  30.109  0.00  0.00    +0.035 A 
ATOM     32  C   UNL     1     -18.430  43.425  31.012  0.00  0.00    +0.024 A 
ATOM     33  C   UNL     1     -19.869  43.390  30.948  0.00  0.00    +0.007 A 
ATOM     34  C   UNL     1     -20.539  42.583  29.968  0.00  0.00    -0.029 A 
ATOM     35  C   UNL     1     -22.085  42.590  29.941  0.00  0.00    +0.045 C 
ENDROOT
BRANCH  10   9
ATOM      4  C   UNL     1     -21.415  41.065  24.609  0.00  0.00    +0.077 A 
ATOM      5  C   UNL     1     -21.117  42.409  24.209  0.00  0.00    +0.048 A 
ATOM      6  C   UNL     1     -20.534  43.260  25.175  0.00  0.00    +0.116 A 
ATOM      7  N   UNL     1     -20.273  42.790  26.444  0.00  0.00    -0.223 NA
ATOM      8  C   UNL     1     -20.574  41.487  26.797  0.00  0.00    +0.220 A 
ATOM      9  N   UNL     1     -20.313  40.991  28.065  0.00  0.00    -0.283 N 
ATOM     36  H   UNL     1     -20.557  40.027  28.289  0.00  0.00    +0.155 HD
ATOM     37  N   UNL     1     -21.132  40.656  25.893  0.00  0.00    -0.214 NA
BRANCH   4   3
ATOM      1  C   UNL     1     -22.103  38.716  21.558  0.00  0.00    +0.020 A 
ATOM      2  C   UNL     1     -21.472  39.708  22.397  0.00  0.00    +0.013 A 
ATOM      3  C   UNL     1     -22.029  40.045  23.701  0.00  0.00    +0.019 A 
ATOM     38  C   UNL     1     -23.235  39.354  24.130  0.00  0.00    +0.120 A 
ATOM     39  N   UNL     1     -23.822  38.404  23.300  0.00  0.00    -0.263 NA
ATOM     40  C   UNL     1     -23.296  38.072  22.043  0.00  0.00    +0.111 A 
ENDBRANCH   4   3
ENDBRANCH  10   9
BRANCH  12  13
ATOM     13  N   UNL     1     -16.196  42.758  30.229  0.00  0.00    -0.281 N 
ATOM     14  C   UNL     1     -15.310  41.775  30.639  0.00  0.00    +0.248 C 
ATOM     30  O   UNL     1     -15.639  40.726  31.171  0.00  0.00    -0.270 OA
ATOM     31  H   UNL     1     -15.784  43.658  29.982  0.00  0.00    +0.155 HD
BRANCH  14  15
ATOM     15  C   UNL     1     -13.845  41.996  30.441  0.00  0.00    +0.037 A 
ATOM     16  C   UNL     1     -13.218  43.278  30.773  0.00  0.00    +0.013 A 
ATOM     17  C   UNL     1     -11.806  43.470  30.557  0.00  0.00    +0.005 A 
ATOM     18  C   UNL     1     -11.010  42.376  30.007  0.00  0.00    -0.033 A 
ATOM     28  C   UNL     1     -11.657  41.113  29.691  0.00  0.00    +0.005 A 
ATOM     29  C   UNL     1     -13.041  40.921  29.900  0.00  0.00    +0.013 A 
BRANCH  18  19
ATOM     19  C   UNL     1      -9.501  42.499  29.723  0.00  0.00    +0.119 C 
BRANCH  19  20
ATOM     20  N   UNL     1      -9.093  43.290  28.524  0.00  0.00    -0.302 NA
ATOM     21  C   UNL     1     -10.013  43.035  27.327  0.00  0.00    +0.066 C 
ATOM     22  C   UNL     1      -9.585  43.887  26.088  0.00  0.00    -0.064 C 
ATOM     23  N   UNL     1      -8.132  43.569  25.732  0.00  0.00    +0.379 N 
ATOM     24  C   UNL     1      -7.745  44.326  24.532  0.00  0.00    -0.096 C 
ATOM     25  H   UNL     1      -8.075  42.485  25.481  0.00  0.00    -0.082 HD
ATOM     26  C   UNL     1      -7.210  43.818  26.917  0.00  0.00    -0.064 C 
ATOM     27  C   UNL     1      -7.662  42.988  28.152  0.00  0.00    +0.066 C 
ENDBRANCH  19  20
ENDBRANCH  18  19
ENDBRANCH  14  15
ENDBRANCH  12  13
TORSDOF 6
ENDMDL
