MODEL 1
REMARK VINA RESULT:      -8.9      0.000      0.000
REMARK  Name = C:\Users\Docking\Desktop\test protocol\1iep_ligandH.pdb
REMARK  8 active torsions:
REMARK  status: ('A' for Active; 'I' for Inactive)
REMARK    1  A    between atoms: _5  and  _11
REMARK    2  A    between atoms: _19  and  _21
REMARK    3  A    between atoms: _22  and  _66
REMARK    4  A    between atoms: _27  and  _30
REMARK    5  A    between atoms: _32  and  _33
REMARK    6  A    between atoms: _38  and  _43
REMARK    7  A    between atoms: _43  and  _46
REMARK    8  A    between atoms: _53  and  _55
REMARK                            x       y       z     vdW  Elec       q    Type
REMARK                         _______ _______ _______ _____ _____    ______ ____
ROOT
ATOM     10  C   UNL     1      91.616  12.678  36.593  0.00  0.00    +0.038 A 
ATOM     11  C   UNL     1      93.003  12.972  36.639  0.00  0.00    +0.047 A 
ATOM     12  C   UNL     1      93.539  13.923  37.600  0.00  0.00    +0.035 A 
ATOM     32  C   UNL     1      92.633  14.555  38.502  0.00  0.00    +0.024 A 
ATOM     33  C   UNL     1      91.221  14.268  38.468  0.00  0.00    +0.007 A 
ATOM     34  C   UNL     1      90.686  13.333  37.520  0.00  0.00    -0.029 A 
ATOM     35  C   UNL     1      89.163  13.069  37.525  0.00  0.00    +0.045 C 
ENDROOT
BRANCH  10   9
ATOM      4  C   UNL     1      91.894  10.487  32.331  0.00  0.00    +0.077 A 
ATOM      5  C   UNL     1      93.036  11.262  31.941  0.00  0.00    +0.048 A 
ATOM      6  C   UNL     1      93.517  12.219  32.862  0.00  0.00    +0.116 A 
ATOM      7  N   UNL     1      92.894  12.380  34.081  0.00  0.00    -0.223 NA
ATOM      8  C   UNL     1      91.794  11.617  34.426  0.00  0.00    +0.220 A 
ATOM      9  N   UNL     1      91.157  11.756  35.649  0.00  0.00    -0.283 N 
ATOM     36  H   UNL     1      90.343  11.180  35.863  0.00  0.00    +0.155 HD
ATOM     37  N   UNL     1      91.315  10.697  33.563  0.00  0.00    -0.214 NA
BRANCH   4   3
ATOM      1  C   UNL     1      91.222   7.965  29.418  0.00  0.00    +0.020 A 
ATOM      2  C   UNL     1      91.864   8.985  30.214  0.00  0.00    +0.013 A 
ATOM      3  C   UNL     1      91.272   9.434  31.468  0.00  0.00    +0.019 A 
ATOM     38  C   UNL     1      90.021   8.824  31.892  0.00  0.00    +0.120 A 
ATOM     39  N   UNL     1      89.425   7.844  31.104  0.00  0.00    -0.263 NA
ATOM     40  C   UNL     1      89.984   7.406  29.894  0.00  0.00    +0.111 A 
ENDBRANCH   4   3
ENDBRANCH  10   9
BRANCH  12  13
ATOM     13  N   UNL     1      94.936  14.268  37.689  0.00  0.00    -0.281 N 
ATOM     14  C   UNL     1      95.598  15.310  37.060  0.00  0.00    +0.248 C 
ATOM     30  O   UNL     1      95.128  15.979  36.152  0.00  0.00    -0.270 OA
ATOM     31  H   UNL     1      95.507  13.671  38.288  0.00  0.00    +0.155 HD
BRANCH  14  15
ATOM     15  C   UNL     1      96.988  15.648  37.492  0.00  0.00    +0.037 A 
ATOM     16  C   UNL     1      97.536  16.994  37.307  0.00  0.00    +0.013 A 
ATOM     17  C   UNL     1      98.886  17.288  37.717  0.00  0.00    +0.005 A 
ATOM     18  C   UNL     1      99.698  16.233  38.318  0.00  0.00    -0.033 A 
ATOM     28  C   UNL     1      99.128  14.908  38.495  0.00  0.00    +0.005 A 
ATOM     29  C   UNL     1      97.806  14.615  38.093  0.00  0.00    +0.013 A 
BRANCH  18  19
ATOM     19  C   UNL     1     101.155  16.452  38.766  0.00  0.00    +0.119 C 
BRANCH  19  20
ATOM     20  N   UNL     1     102.230  15.885  37.897  0.00  0.00    -0.302 NA
ATOM     21  C   UNL     1     103.457  15.457  38.707  0.00  0.00    +0.066 C 
ATOM     22  C   UNL     1     104.562  14.846  37.785  0.00  0.00    -0.064 C 
ATOM     23  N   UNL     1     104.949  15.866  36.712  0.00  0.00    +0.379 N 
ATOM     24  C   UNL     1     106.029  15.316  35.880  0.00  0.00    -0.096 C 
ATOM     25  H   UNL     1     105.349  16.767  37.232  0.00  0.00    -0.082 HD
ATOM     26  C   UNL     1     103.734  16.299  35.904  0.00  0.00    -0.064 C 
ATOM     27  C   UNL     1     102.631  16.877  36.833  0.00  0.00    +0.066 C 
ENDBRANCH  19  20
ENDBRANCH  18  19
ENDBRANCH  14  15
ENDBRANCH  12  13
TORSDOF 6
ENDMDL
MODEL 2
REMARK VINA RESULT:      -8.6     16.278     19.117
REMARK  Name = C:\Users\Docking\Desktop\test protocol\1iep_ligandH.pdb
REMARK  8 active torsions:
REMARK  status: ('A' for Active; 'I' for Inactive)
REMARK    1  A    between atoms: _5  and  _11
REMARK    2  A    between atoms: _19  and  _21
REMARK    3  A    between atoms: _22  and  _66
REMARK    4  A    between atoms: _27  and  _30
REMARK    5  A    between atoms: _32  and  _33
REMARK    6  A    between atoms: _38  and  _43
REMARK    7  A    between atoms: _43  and  _46
REMARK    8  A    between atoms: _53  and  _55
REMARK                            x       y       z     vdW  Elec       q    Type
REMARK                         _______ _______ _______ _____ _____    ______ ____
ROOT
ATOM     10  C   UNL     1     104.732  15.435  20.946  0.00  0.00    +0.038 A 
ATOM     11  C   UNL     1     104.734  14.107  21.444  0.00  0.00    +0.047 A 
ATOM     12  C   UNL     1     105.959  13.482  21.918  0.00  0.00    +0.035 A 
ATOM     32  C   UNL     1     107.165  14.241  21.874  0.00  0.00    +0.024 A 
ATOM     33  C   UNL     1     107.182  15.592  21.371  0.00  0.00    +0.007 A 
ATOM     34  C   UNL     1     105.977  16.212  20.899  0.00  0.00    -0.029 A 
ATOM     35  C   UNL     1     106.055  17.661  20.364  0.00  0.00    +0.045 C 
ENDROOT
BRANCH  10   9
ATOM      4  C   UNL     1     101.375  16.124  17.586  0.00  0.00    +0.077 A 
ATOM      5  C   UNL     1     102.096  15.343  16.622  0.00  0.00    +0.048 A 
ATOM      6  C   UNL     1     103.330  14.788  17.028  0.00  0.00    +0.116 A 
ATOM      7  N   UNL     1     103.798  15.003  18.306  0.00  0.00    -0.223 NA
ATOM      8  C   UNL     1     103.079  15.762  19.211  0.00  0.00    +0.220 A 
ATOM      9  N   UNL     1     103.527  15.985  20.504  0.00  0.00    -0.283 N 
ATOM     36  H   UNL     1     102.971  16.557  21.139  0.00  0.00    +0.155 HD
ATOM     37  N   UNL     1     101.899  16.305  18.847  0.00  0.00    -0.214 NA
BRANCH   4   3
ATOM      1  C   UNL     1      98.602  18.474  16.142  0.00  0.00    +0.020 A 
ATOM      2  C   UNL     1      99.899  17.882  16.375  0.00  0.00    +0.013 A 
ATOM      3  C   UNL     1     100.055  16.773  17.308  0.00  0.00    +0.019 A 
ATOM     38  C   UNL     1      98.870  16.281  17.993  0.00  0.00    +0.120 A 
ATOM     39  N   UNL     1      97.633  16.872  17.749  0.00  0.00    -0.263 NA
ATOM     40  C   UNL     1      97.471  17.941  16.856  0.00  0.00    +0.111 A 
ENDBRANCH   4   3
ENDBRANCH  10   9
BRANCH  12  13
ATOM     13  N   UNL     1     106.023  12.134  22.426  0.00  0.00    -0.281 N 
ATOM     14  C   UNL     1     105.529  11.653  23.628  0.00  0.00    +0.248 C 
ATOM     30  O   UNL     1     105.144  12.357  24.549  0.00  0.00    -0.270 OA
ATOM     31  H   UNL     1     106.488  11.452  21.827  0.00  0.00    +0.155 HD
BRANCH  14  15
ATOM     15  C   UNL     1     105.469  10.175  23.843  0.00  0.00    +0.037 A 
ATOM     16  C   UNL     1     104.443   9.573  24.699  0.00  0.00    +0.013 A 
ATOM     17  C   UNL     1     104.418   8.146  24.903  0.00  0.00    +0.005 A 
ATOM     18  C   UNL     1     105.423   7.311  24.249  0.00  0.00    -0.033 A 
ATOM     28  C   UNL     1     106.425   7.934  23.401  0.00  0.00    +0.005 A 
ATOM     29  C   UNL     1     106.454   9.332  23.199  0.00  0.00    +0.013 A 
BRANCH  18  19
ATOM     19  C   UNL     1     105.484   5.782  24.427  0.00  0.00    +0.119 C 
BRANCH  19  20
ATOM     20  N   UNL     1     104.995   4.941  23.294  0.00  0.00    -0.302 NA
ATOM     21  C   UNL     1     103.466   4.896  23.231  0.00  0.00    +0.066 C 
ATOM     22  C   UNL     1     102.972   4.030  22.027  0.00  0.00    -0.064 C 
ATOM     23  N   UNL     1     103.551   2.619  22.144  0.00  0.00    +0.379 N 
ATOM     24  C   UNL     1     103.042   1.787  21.045  0.00  0.00    -0.096 C 
ATOM     25  H   UNL     1     103.182   2.181  23.100  0.00  0.00    -0.082 HD
ATOM     26  C   UNL     1     105.072   2.656  22.211  0.00  0.00    -0.064 C 
ATOM     27  C   UNL     1     105.552   3.542  23.393  0.00  0.00    +0.066 C 
ENDBRANCH  19  20
ENDBRANCH  18  19
ENDBRANCH  14  15
ENDBRANCH  12  13
TORSDOF 6
ENDMDL
MODEL 3
REMARK VINA RESULT:      -8.5      8.477     13.190
REMARK  Name = C:\Users\Docking\Desktop\test protocol\1iep_ligandH.pdb
REMARK  8 active torsions:
REMARK  status: ('A' for Active; 'I' for Inactive)
REMARK    1  A    between atoms: _5  and  _11
REMARK    2  A    between atoms: _19  and  _21
REMARK    3  A    between atoms: _22  and  _66
REMARK    4  A    between atoms: _27  and  _30
REMARK    5  A    between atoms: _32  and  _33
REMARK    6  A    between atoms: _38  and  _43
REMARK    7  A    between atoms: _43  and  _46
REMARK    8  A    between atoms: _53  and  _55
REMARK                            x       y       z     vdW  Elec       q    Type
REMARK                         _______ _______ _______ _____ _____    ______ ____
ROOT
ATOM     10  C   UNL     1     101.306  16.022  27.779  0.00  0.00    +0.038 A 
ATOM     11  C   UNL     1     100.255  15.284  28.383  0.00  0.00    +0.047 A 
ATOM     12  C   UNL     1      99.851  15.538  29.757  0.00  0.00    +0.035 A 
ATOM     32  C   UNL     1     100.537  16.552  30.487  0.00  0.00    +0.024 A 
ATOM     33  C   UNL     1     101.608  17.310  29.890  0.00  0.00    +0.007 A 
ATOM     34  C   UNL     1     102.013  17.063  28.535  0.00  0.00    -0.029 A 
ATOM     35  C   UNL     1     103.172  17.902  27.948  0.00  0.00    +0.045 C 
ENDROOT
BRANCH  10   9
ATOM      4  C   UNL     1     104.134  13.959  24.495  0.00  0.00    +0.077 A 
ATOM      5  C   UNL     1     105.010  13.425  25.499  0.00  0.00    +0.048 A 
ATOM      6  C   UNL     1     104.701  13.711  26.848  0.00  0.00    +0.116 A 
ATOM      7  N   UNL     1     103.597  14.474  27.158  0.00  0.00    -0.223 NA
ATOM      8  C   UNL     1     102.773  14.974  26.166  0.00  0.00    +0.220 A 
ATOM      9  N   UNL     1     101.653  15.737  26.457  0.00  0.00    -0.283 N 
ATOM     36  H   UNL     1     101.075  16.094  25.696  0.00  0.00    +0.155 HD
ATOM     37  N   UNL     1     103.047  14.717  24.871  0.00  0.00    -0.214 NA
BRANCH   4   3
ATOM      1  C   UNL     1     104.349  12.286  20.966  0.00  0.00    +0.020 A 
ATOM      2  C   UNL     1     104.153  12.442  22.389  0.00  0.00    +0.013 A 
ATOM      3  C   UNL     1     104.325  13.742  23.026  0.00  0.00    +0.019 A 
ATOM     38  C   UNL     1     104.698  14.872  22.189  0.00  0.00    +0.120 A 
ATOM     39  N   UNL     1     104.882  14.691  20.822  0.00  0.00    -0.263 NA
ATOM     40  C   UNL     1     104.721  13.445  20.197  0.00  0.00    +0.111 A 
ENDBRANCH   4   3
ENDBRANCH  10   9
BRANCH  12  13
ATOM     13  N   UNL     1      98.797  14.815  30.425  0.00  0.00    -0.281 N 
ATOM     14  C   UNL     1      97.612  15.318  30.937  0.00  0.00    +0.248 C 
ATOM     30  O   UNL     1      97.373  16.507  31.087  0.00  0.00    -0.270 OA
ATOM     31  H   UNL     1      98.943  13.812  30.535  0.00  0.00    +0.155 HD
BRANCH  14  15
ATOM     15  C   UNL     1      96.543  14.361  31.355  0.00  0.00    +0.037 A 
ATOM     16  C   UNL     1      96.770  12.914  31.341  0.00  0.00    +0.013 A 
ATOM     17  C   UNL     1      95.716  12.012  31.733  0.00  0.00    +0.005 A 
ATOM     18  C   UNL     1      94.424  12.557  32.143  0.00  0.00    -0.033 A 
ATOM     28  C   UNL     1      94.227  13.997  32.153  0.00  0.00    +0.005 A 
ATOM     29  C   UNL     1      95.258  14.883  31.768  0.00  0.00    +0.013 A 
BRANCH  18  19
ATOM     19  C   UNL     1      93.236  11.668  32.557  0.00  0.00    +0.119 C 
BRANCH  19  20
ATOM     20  N   UNL     1      92.267  12.237  33.542  0.00  0.00    -0.302 NA
ATOM     21  C   UNL     1      92.819  12.211  34.970  0.00  0.00    +0.066 C 
ATOM     22  C   UNL     1      91.802  12.830  35.984  0.00  0.00    -0.064 C 
ATOM     23  N   UNL     1      90.477  12.070  35.901  0.00  0.00    +0.379 N 
ATOM     24  C   UNL     1      89.538  12.612  36.894  0.00  0.00    -0.096 C 
ATOM     25  H   UNL     1      90.679  11.008  36.171  0.00  0.00    -0.082 HD
ATOM     26  C   UNL     1      89.923  12.089  34.484  0.00  0.00    -0.064 C 
ATOM     27  C   UNL     1      90.953  11.499  33.480  0.00  0.00    +0.066 C 
ENDBRANCH  19  20
ENDBRANCH  18  19
ENDBRANCH  14  15
ENDBRANCH  12  13
TORSDOF 6
ENDMDL
MODEL 4
REMARK VINA RESULT:      -8.4      1.814      3.015
REMARK  Name = C:\Users\Docking\Desktop\test protocol\1iep_ligandH.pdb
REMARK  8 active torsions:
REMARK  status: ('A' for Active; 'I' for Inactive)
REMARK    1  A    between atoms: _5  and  _11
REMARK    2  A    between atoms: _19  and  _21
REMARK    3  A    between atoms: _22  and  _66
REMARK    4  A    between atoms: _27  and  _30
REMARK    5  A    between atoms: _32  and  _33
REMARK    6  A    between atoms: _38  and  _43
REMARK    7  A    between atoms: _43  and  _46
REMARK    8  A    between atoms: _53  and  _55
REMARK                            x       y       z     vdW  Elec       q    Type
REMARK                         _______ _______ _______ _____ _____    ______ ____
ROOT
ATOM     10  C   UNL     1      91.571  12.623  36.507  0.00  0.00    +0.038 A 
ATOM     11  C   UNL     1      92.951  12.948  36.515  0.00  0.00    +0.047 A 
ATOM     12  C   UNL     1      93.495  13.900  37.472  0.00  0.00    +0.035 A 
ATOM     32  C   UNL     1      92.603  14.500  38.408  0.00  0.00    +0.024 A 
ATOM     33  C   UNL     1      91.197  14.182  38.414  0.00  0.00    +0.007 A 
ATOM     34  C   UNL     1      90.655  13.245  37.471  0.00  0.00    -0.029 A 
ATOM     35  C   UNL     1      89.138  12.947  37.518  0.00  0.00    +0.045 C 
ENDROOT
BRANCH  10   9
ATOM      4  C   UNL     1      91.835  10.410  32.256  0.00  0.00    +0.077 A 
ATOM      5  C   UNL     1      92.987  11.171  31.865  0.00  0.00    +0.048 A 
ATOM      6  C   UNL     1      93.475  12.127  32.784  0.00  0.00    +0.116 A 
ATOM      7  N   UNL     1      92.851  12.300  34.000  0.00  0.00    -0.223 NA
ATOM      8  C   UNL     1      91.742  11.550  34.346  0.00  0.00    +0.220 A 
ATOM      9  N   UNL     1      91.103  11.702  35.567  0.00  0.00    -0.283 N 
ATOM     36  H   UNL     1      90.283  11.136  35.781  0.00  0.00    +0.155 HD
ATOM     37  N   UNL     1      91.255  10.632  33.485  0.00  0.00    -0.214 NA
BRANCH   4   3
ATOM      1  C   UNL     1      91.180   7.826  29.394  0.00  0.00    +0.020 A 
ATOM      2  C   UNL     1      91.833   8.840  30.189  0.00  0.00    +0.013 A 
ATOM      3  C   UNL     1      91.203   9.360  31.396  0.00  0.00    +0.019 A 
ATOM     38  C   UNL     1      89.903   8.828  31.774  0.00  0.00    +0.120 A 
ATOM     39  N   UNL     1      89.297   7.852  30.988  0.00  0.00    -0.263 NA
ATOM     40  C   UNL     1      89.893   7.346  29.823  0.00  0.00    +0.111 A 
ENDBRANCH   4   3
ENDBRANCH  10   9
BRANCH  12  13
ATOM     13  N   UNL     1      94.886  14.275  37.523  0.00  0.00    -0.281 N 
ATOM     14  C   UNL     1      95.499  15.358  36.914  0.00  0.00    +0.248 C 
ATOM     30  O   UNL     1      94.978  16.053  36.054  0.00  0.00    -0.270 OA
ATOM     31  H   UNL     1      95.493  13.668  38.074  0.00  0.00    +0.155 HD
BRANCH  14  15
ATOM     15  C   UNL     1      96.896  15.712  37.308  0.00  0.00    +0.037 A 
ATOM     16  C   UNL     1      97.824  14.696  37.812  0.00  0.00    +0.013 A 
ATOM     17  C   UNL     1      99.162  15.068  38.201  0.00  0.00    +0.005 A 
ATOM     18  C   UNL     1      99.580  16.463  38.084  0.00  0.00    -0.033 A 
ATOM     28  C   UNL     1      98.641  17.449  37.575  0.00  0.00    +0.005 A 
ATOM     29  C   UNL     1      97.329  17.089  37.195  0.00  0.00    +0.013 A 
BRANCH  18  19
ATOM     19  C   UNL     1     100.981  16.953  38.495  0.00  0.00    +0.119 C 
BRANCH  19  20
ATOM     20  N   UNL     1     101.115  17.595  39.837  0.00  0.00    -0.302 NA
ATOM     21  C   UNL     1     100.074  17.071  40.831  0.00  0.00    +0.066 C 
ATOM     22  C   UNL     1     100.242  17.737  42.235  0.00  0.00    -0.064 C 
ATOM     23  N   UNL     1     100.138  19.256  42.092  0.00  0.00    +0.379 N 
ATOM     24  C   UNL     1     100.238  19.882  43.418  0.00  0.00    -0.096 C 
ATOM     25  H   UNL     1      99.127  19.489  41.683  0.00  0.00    -0.082 HD
ATOM     26  C   UNL     1     101.168  19.785  41.103  0.00  0.00    -0.064 C 
ATOM     27  C   UNL     1     101.010  19.095  39.719  0.00  0.00    +0.066 C 
ENDBRANCH  19  20
ENDBRANCH  18  19
ENDBRANCH  14  15
ENDBRANCH  12  13
TORSDOF 6
ENDMDL
MODEL 5
REMARK VINA RESULT:      -8.2     12.460     15.237
REMARK  Name = C:\Users\Docking\Desktop\test protocol\1iep_ligandH.pdb
REMARK  8 active torsions:
REMARK  status: ('A' for Active; 'I' for Inactive)
REMARK    1  A    between atoms: _5  and  _11
REMARK    2  A    between atoms: _19  and  _21
REMARK    3  A    between atoms: _22  and  _66
REMARK    4  A    between atoms: _27  and  _30
REMARK    5  A    between atoms: _32  and  _33
REMARK    6  A    between atoms: _38  and  _43
REMARK    7  A    between atoms: _43  and  _46
REMARK    8  A    between atoms: _53  and  _55
REMARK                            x       y       z     vdW  Elec       q    Type
REMARK                         _______ _______ _______ _____ _____    ______ ____
ROOT
ATOM     10  C   UNL     1     101.283  14.484  28.208  0.00  0.00    +0.038 A 
ATOM     11  C   UNL     1     101.154  14.838  26.841  0.00  0.00    +0.047 A 
ATOM     12  C   UNL     1     102.310  15.240  26.055  0.00  0.00    +0.035 A 
ATOM     32  C   UNL     1     103.584  15.269  26.694  0.00  0.00    +0.024 A 
ATOM     33  C   UNL     1     103.733  14.914  28.084  0.00  0.00    +0.007 A 
ATOM     34  C   UNL     1     102.596  14.518  28.864  0.00  0.00    -0.029 A 
ATOM     35  C   UNL     1     102.813  14.154  30.351  0.00  0.00    +0.045 C 
ENDROOT
BRANCH  10   9
ATOM      4  C   UNL     1      97.615  15.441  31.153  0.00  0.00    +0.077 A 
ATOM      5  C   UNL     1      98.028  16.805  31.319  0.00  0.00    +0.048 A 
ATOM      6  C   UNL     1      99.193  17.219  30.635  0.00  0.00    +0.116 A 
ATOM      7  N   UNL     1      99.886  16.326  29.846  0.00  0.00    -0.223 NA
ATOM      8  C   UNL     1      99.462  15.017  29.709  0.00  0.00    +0.220 A 
ATOM      9  N   UNL     1     100.139  14.105  28.915  0.00  0.00    -0.283 N 
ATOM     36  H   UNL     1      99.798  13.146  28.845  0.00  0.00    +0.155 HD
ATOM     37  N   UNL     1      98.353  14.597  30.353  0.00  0.00    -0.214 NA
BRANCH   4   3
ATOM      1  C   UNL     1      95.018  14.271  33.834  0.00  0.00    +0.020 A 
ATOM      2  C   UNL     1      96.207  14.849  33.252  0.00  0.00    +0.013 A 
ATOM      3  C   UNL     1      96.403  14.855  31.807  0.00  0.00    +0.019 A 
ATOM     38  C   UNL     1      95.368  14.264  30.973  0.00  0.00    +0.120 A 
ATOM     39  N   UNL     1      94.234  13.713  31.562  0.00  0.00    -0.263 NA
ATOM     40  C   UNL     1      94.035  13.700  32.951  0.00  0.00    +0.111 A 
ENDBRANCH   4   3
ENDBRANCH  10   9
BRANCH  12  13
ATOM     13  N   UNL     1     102.239  15.618  24.666  0.00  0.00    -0.281 N 
ATOM     14  C   UNL     1     102.599  16.827  24.092  0.00  0.00    +0.248 C 
ATOM     30  O   UNL     1     102.838  17.846  24.722  0.00  0.00    -0.270 OA
ATOM     31  H   UNL     1     101.880  14.908  24.027  0.00  0.00    +0.155 HD
BRANCH  14  15
ATOM     15  C   UNL     1     102.693  16.920  22.603  0.00  0.00    +0.037 A 
ATOM     16  C   UNL     1     103.400  15.902  21.821  0.00  0.00    +0.013 A 
ATOM     17  C   UNL     1     103.490  16.025  20.388  0.00  0.00    +0.005 A 
ATOM     18  C   UNL     1     102.870  17.171  19.727  0.00  0.00    -0.033 A 
ATOM     28  C   UNL     1     102.170  18.163  20.527  0.00  0.00    +0.005 A 
ATOM     29  C   UNL     1     102.081  18.047  21.932  0.00  0.00    +0.013 A 
BRANCH  18  19
ATOM     19  C   UNL     1     102.934  17.394  18.204  0.00  0.00    +0.119 C 
BRANCH  19  20
ATOM     20  N   UNL     1     103.052  16.182  17.340  0.00  0.00    -0.302 NA
ATOM     21  C   UNL     1     103.790  16.479  16.032  0.00  0.00    +0.066 C 
ATOM     22  C   UNL     1     103.924  15.195  15.150  0.00  0.00    -0.064 C 
ATOM     23  N   UNL     1     102.532  14.625  14.869  0.00  0.00    +0.379 N 
ATOM     24  C   UNL     1     102.651  13.451  13.992  0.00  0.00    -0.096 C 
ATOM     25  H   UNL     1     101.954  15.402  14.318  0.00  0.00    -0.082 HD
ATOM     26  C   UNL     1     101.790  14.330  16.165  0.00  0.00    -0.064 C 
ATOM     27  C   UNL     1     101.689  15.605  17.047  0.00  0.00    +0.066 C 
ENDBRANCH  19  20
ENDBRANCH  18  19
ENDBRANCH  14  15
ENDBRANCH  12  13
TORSDOF 6
ENDMDL
