MODEL 1
REMARK VINA RESULT:      -7.6      0.000      0.000
REMARK  Name = C:\Users\Docking\Desktop\test protocol\1iep_ligandH.pdb
REMARK  8 active torsions:
REMARK  status: ('A' for Active; 'I' for Inactive)
REMARK    1  A    between atoms: _5  and  _11
REMARK    2  A    between atoms: _19  and  _21
REMARK    3  A    between atoms: _22  and  _66
REMARK    4  A    between atoms: _27  and  _30
REMARK    5  A    between atoms: _32  and  _33
REMARK    6  A    between atoms: _38  and  _43
REMARK    7  A    between atoms: _43  and  _46
REMARK    8  A    between atoms: _53  and  _55
REMARK                            x       y       z     vdW  Elec       q    Type
REMARK                         _______ _______ _______ _____ _____    ______ ____
ROOT
ATOM     10  C   UNL     1      12.056   4.139  -2.986  0.00  0.00    +0.038 A 
ATOM     11  C   UNL     1      12.731   5.376  -3.147  0.00  0.00    +0.047 A 
ATOM     12  C   UNL     1      12.079   6.513  -3.777  0.00  0.00    +0.035 A 
ATOM     32  C   UNL     1      10.736   6.357  -4.228  0.00  0.00    +0.024 A 
ATOM     33  C   UNL     1      10.034   5.106  -4.073  0.00  0.00    +0.007 A 
ATOM     34  C   UNL     1      10.674   3.980  -3.455  0.00  0.00    -0.029 A 
ATOM     35  C   UNL     1       9.876   2.662  -3.321  0.00  0.00    +0.045 C 
ENDROOT
BRANCH  10   9
ATOM      4  C   UNL     1      15.199   0.512  -3.066  0.00  0.00    +0.077 A 
ATOM      5  C   UNL     1      15.503   0.729  -4.452  0.00  0.00    +0.048 A 
ATOM      6  C   UNL     1      14.824   1.779  -5.109  0.00  0.00    +0.116 A 
ATOM      7  N   UNL     1      13.910   2.550  -4.422  0.00  0.00    -0.223 NA
ATOM      8  C   UNL     1      13.639   2.313  -3.087  0.00  0.00    +0.220 A 
ATOM      9  N   UNL     1      12.730   3.080  -2.374  0.00  0.00    -0.283 N 
ATOM     36  H   UNL     1      12.552   2.869  -1.393  0.00  0.00    +0.155 HD
ATOM     37  N   UNL     1      14.273   1.315  -2.437  0.00  0.00    -0.214 NA
BRANCH   4   3
ATOM      1  C   UNL     1      17.842  -1.819  -1.371  0.00  0.00    +0.020 A 
ATOM      2  C   UNL     1      17.277  -0.773  -2.192  0.00  0.00    +0.013 A 
ATOM      3  C   UNL     1      15.836  -0.556  -2.234  0.00  0.00    +0.019 A 
ATOM     38  C   UNL     1      14.989  -1.421  -1.427  0.00  0.00    +0.120 A 
ATOM     39  N   UNL     1      15.561  -2.421  -0.648  0.00  0.00    -0.263 NA
ATOM     40  C   UNL     1      16.946  -2.641  -0.600  0.00  0.00    +0.111 A 
ENDBRANCH   4   3
ENDBRANCH  10   9
BRANCH  12  13
ATOM     13  N   UNL     1      12.717   7.791  -3.975  0.00  0.00    -0.281 N 
ATOM     14  C   UNL     1      13.381   8.245  -5.102  0.00  0.00    +0.248 C 
ATOM     30  O   UNL     1      13.714   7.536  -6.041  0.00  0.00    -0.270 OA
ATOM     31  H   UNL     1      12.673   8.439  -3.188  0.00  0.00    +0.155 HD
BRANCH  14  15
ATOM     15  C   UNL     1      13.741   9.693  -5.194  0.00  0.00    +0.037 A 
ATOM     16  C   UNL     1      13.827  10.532  -3.996  0.00  0.00    +0.013 A 
ATOM     17  C   UNL     1      14.159  11.930  -4.115  0.00  0.00    +0.005 A 
ATOM     18  C   UNL     1      14.409  12.496  -5.438  0.00  0.00    -0.033 A 
ATOM     28  C   UNL     1      14.323  11.640  -6.609  0.00  0.00    +0.005 A 
ATOM     29  C   UNL     1      13.996  10.270  -6.497  0.00  0.00    +0.013 A 
BRANCH  18  19
ATOM     19  C   UNL     1      14.749  13.982  -5.661  0.00  0.00    +0.119 C 
BRANCH  19  20
ATOM     20  N   UNL     1      13.781  14.991  -5.136  0.00  0.00    -0.302 NA
ATOM     21  C   UNL     1      12.345  14.693  -5.576  0.00  0.00    +0.066 C 
ATOM     22  C   UNL     1      11.343  15.745  -5.000  0.00  0.00    -0.064 C 
ATOM     23  N   UNL     1      11.766  17.146  -5.446  0.00  0.00    +0.379 N 
ATOM     24  C   UNL     1      10.793  18.132  -4.954  0.00  0.00    -0.096 C 
ATOM     25  H   UNL     1      11.738  17.169  -6.560  0.00  0.00    -0.082 HD
ATOM     26  C   UNL     1      13.194  17.450  -5.014  0.00  0.00    -0.064 C 
ATOM     27  C   UNL     1      14.178  16.381  -5.568  0.00  0.00    +0.066 C 
ENDBRANCH  19  20
ENDBRANCH  18  19
ENDBRANCH  14  15
ENDBRANCH  12  13
TORSDOF 6
ENDMDL
MODEL 2
REMARK VINA RESULT:      -7.2     20.938     22.597
REMARK  Name = C:\Users\Docking\Desktop\test protocol\1iep_ligandH.pdb
REMARK  8 active torsions:
REMARK  status: ('A' for Active; 'I' for Inactive)
REMARK    1  A    between atoms: _5  and  _11
REMARK    2  A    between atoms: _19  and  _21
REMARK    3  A    between atoms: _22  and  _66
REMARK    4  A    between atoms: _27  and  _30
REMARK    5  A    between atoms: _32  and  _33
REMARK    6  A    between atoms: _38  and  _43
REMARK    7  A    between atoms: _43  and  _46
REMARK    8  A    between atoms: _53  and  _55
REMARK                            x       y       z     vdW  Elec       q    Type
REMARK                         _______ _______ _______ _____ _____    ______ ____
ROOT
ATOM     10  C   UNL     1      19.213  12.329  11.676  0.00  0.00    +0.038 A 
ATOM     11  C   UNL     1      19.783  13.061  12.748  0.00  0.00    +0.047 A 
ATOM     12  C   UNL     1      21.012  13.819  12.573  0.00  0.00    +0.035 A 
ATOM     32  C   UNL     1      21.633  13.812  11.290  0.00  0.00    +0.024 A 
ATOM     33  C   UNL     1      21.068  13.073  10.189  0.00  0.00    +0.007 A 
ATOM     34  C   UNL     1      19.857  12.321  10.357  0.00  0.00    -0.029 A 
ATOM     35  C   UNL     1      19.300  11.541   9.143  0.00  0.00    +0.045 C 
ENDROOT
BRANCH  10   9
ATOM      4  C   UNL     1      14.426  11.995  11.757  0.00  0.00    +0.077 A 
ATOM      5  C   UNL     1      14.265  13.359  11.342  0.00  0.00    +0.048 A 
ATOM      6  C   UNL     1      15.439  14.114  11.126  0.00  0.00    +0.116 A 
ATOM      7  N   UNL     1      16.677  13.538  11.312  0.00  0.00    -0.223 NA
ATOM      8  C   UNL     1      16.797  12.221  11.714  0.00  0.00    +0.220 A 
ATOM      9  N   UNL     1      18.032  11.619  11.900  0.00  0.00    -0.283 N 
ATOM     36  H   UNL     1      18.078  10.647  12.204  0.00  0.00    +0.155 HD
ATOM     37  N   UNL     1      15.691  11.478  11.929  0.00  0.00    -0.214 NA
BRANCH   4   3
ATOM      1  C   UNL     1      10.826  10.487  12.018  0.00  0.00    +0.020 A 
ATOM      2  C   UNL     1      11.895  11.420  11.744  0.00  0.00    +0.013 A 
ATOM      3  C   UNL     1      13.281  11.067  12.022  0.00  0.00    +0.019 A 
ATOM     38  C   UNL     1      13.554   9.752  12.582  0.00  0.00    +0.120 A 
ATOM     39  N   UNL     1      12.505   8.875  12.837  0.00  0.00    -0.263 NA
ATOM     40  C   UNL     1      11.166   9.204  12.575  0.00  0.00    +0.111 A 
ENDBRANCH   4   3
ENDBRANCH  10   9
BRANCH  12  13
ATOM     13  N   UNL     1      21.642  14.575  13.627  0.00  0.00    -0.281 N 
ATOM     14  C   UNL     1      22.659  14.169  14.476  0.00  0.00    +0.248 C 
ATOM     30  O   UNL     1      23.038  13.013  14.597  0.00  0.00    -0.270 OA
ATOM     31  H   UNL     1      21.296  15.525  13.765  0.00  0.00    +0.155 HD
BRANCH  14  15
ATOM     15  C   UNL     1      23.345  15.192  15.322  0.00  0.00    +0.037 A 
ATOM     16  C   UNL     1      23.442  15.034  16.776  0.00  0.00    +0.013 A 
ATOM     17  C   UNL     1      24.094  16.045  17.571  0.00  0.00    +0.005 A 
ATOM     18  C   UNL     1      24.656  17.221  16.912  0.00  0.00    -0.033 A 
ATOM     28  C   UNL     1      24.551  17.350  15.468  0.00  0.00    +0.005 A 
ATOM     29  C   UNL     1      23.911  16.362  14.686  0.00  0.00    +0.013 A 
BRANCH  18  19
ATOM     19  C   UNL     1      25.351  18.359  17.684  0.00  0.00    +0.119 C 
BRANCH  19  20
ATOM     20  N   UNL     1      25.509  18.188  19.159  0.00  0.00    -0.302 NA
ATOM     21  C   UNL     1      24.242  18.584  19.922  0.00  0.00    +0.066 C 
ATOM     22  C   UNL     1      24.417  18.378  21.462  0.00  0.00    -0.064 C 
ATOM     23  N   UNL     1      25.618  19.189  21.949  0.00  0.00    +0.379 N 
ATOM     24  C   UNL     1      25.750  19.044  23.406  0.00  0.00    -0.096 C 
ATOM     25  H   UNL     1      25.410  20.263  21.734  0.00  0.00    -0.082 HD
ATOM     26  C   UNL     1      26.882  18.804  21.194  0.00  0.00    -0.064 C 
ATOM     27  C   UNL     1      26.687  18.985  19.662  0.00  0.00    +0.066 C 
ENDBRANCH  19  20
ENDBRANCH  18  19
ENDBRANCH  14  15
ENDBRANCH  12  13
TORSDOF 6
ENDMDL
MODEL 3
REMARK VINA RESULT:      -7.2     17.408     25.901
REMARK  Name = C:\Users\Docking\Desktop\test protocol\1iep_ligandH.pdb
REMARK  8 active torsions:
REMARK  status: ('A' for Active; 'I' for Inactive)
REMARK    1  A    between atoms: _5  and  _11
REMARK    2  A    between atoms: _19  and  _21
REMARK    3  A    between atoms: _22  and  _66
REMARK    4  A    between atoms: _27  and  _30
REMARK    5  A    between atoms: _32  and  _33
REMARK    6  A    between atoms: _38  and  _43
REMARK    7  A    between atoms: _43  and  _46
REMARK    8  A    between atoms: _53  and  _55
REMARK                            x       y       z     vdW  Elec       q    Type
REMARK                         _______ _______ _______ _____ _____    ______ ____
ROOT
ATOM     10  C   UNL     1      19.085  -8.969   5.896  0.00  0.00    +0.038 A 
ATOM     11  C   UNL     1      19.659  -9.732   6.945  0.00  0.00    +0.047 A 
ATOM     12  C   UNL     1      18.921 -10.813   7.579  0.00  0.00    +0.035 A 
ATOM     32  C   UNL     1      17.601 -11.092   7.117  0.00  0.00    +0.024 A 
ATOM     33  C   UNL     1      17.003 -10.326   6.053  0.00  0.00    +0.007 A 
ATOM     34  C   UNL     1      17.725  -9.257   5.425  0.00  0.00    -0.029 A 
ATOM     35  C   UNL     1      17.031  -8.464   4.293  0.00  0.00    +0.045 C 
ENDROOT
BRANCH  10   9
ATOM      4  C   UNL     1      22.082  -7.279   2.549  0.00  0.00    +0.077 A 
ATOM      5  C   UNL     1      22.176  -8.556   1.903  0.00  0.00    +0.048 A 
ATOM      6  C   UNL     1      21.443  -9.624   2.468  0.00  0.00    +0.116 A 
ATOM      7  N   UNL     1      20.677  -9.418   3.595  0.00  0.00    -0.223 NA
ATOM      8  C   UNL     1      20.610  -8.174   4.194  0.00  0.00    +0.220 A 
ATOM      9  N   UNL     1      19.839  -7.942   5.323  0.00  0.00    -0.283 N 
ATOM     36  H   UNL     1      19.822  -7.011   5.739  0.00  0.00    +0.155 HD
ATOM     37  N   UNL     1      21.301  -7.138   3.675  0.00  0.00    -0.214 NA
BRANCH   4   3
ATOM      1  C   UNL     1      23.286  -3.579   2.143  0.00  0.00    +0.020 A 
ATOM      2  C   UNL     1      22.570  -4.731   2.642  0.00  0.00    +0.013 A 
ATOM      3  C   UNL     1      22.796  -6.052   2.070  0.00  0.00    +0.019 A 
ATOM     38  C   UNL     1      23.759  -6.175   0.987  0.00  0.00    +0.120 A 
ATOM     39  N   UNL     1      24.432  -5.048   0.526  0.00  0.00    -0.263 NA
ATOM     40  C   UNL     1      24.222  -3.771   1.067  0.00  0.00    +0.111 A 
ENDBRANCH   4   3
ENDBRANCH  10   9
BRANCH  12  13
ATOM     13  N   UNL     1      19.448 -11.616   8.654  0.00  0.00    -0.281 N 
ATOM     14  C   UNL     1      19.134 -11.547  10.002  0.00  0.00    +0.248 C 
ATOM     30  O   UNL     1      18.507 -10.635  10.519  0.00  0.00    -0.270 OA
ATOM     31  H   UNL     1      20.136 -12.322   8.389  0.00  0.00    +0.155 HD
BRANCH  14  15
ATOM     15  C   UNL     1      19.597 -12.643  10.908  0.00  0.00    +0.037 A 
ATOM     16  C   UNL     1      19.175 -12.698  12.309  0.00  0.00    +0.013 A 
ATOM     17  C   UNL     1      19.649 -13.756  13.166  0.00  0.00    +0.005 A 
ATOM     18  C   UNL     1      20.551 -14.769  12.622  0.00  0.00    -0.033 A 
ATOM     28  C   UNL     1      20.949 -14.692  11.226  0.00  0.00    +0.005 A 
ATOM     29  C   UNL     1      20.487 -13.657  10.384  0.00  0.00    +0.013 A 
BRANCH  18  19
ATOM     19  C   UNL     1      21.123 -15.921  13.468  0.00  0.00    +0.119 C 
BRANCH  19  20
ATOM     20  N   UNL     1      20.376 -17.214  13.457  0.00  0.00    -0.302 NA
ATOM     21  C   UNL     1      18.880 -17.016  13.718  0.00  0.00    +0.066 C 
ATOM     22  C   UNL     1      18.110 -18.376  13.681  0.00  0.00    -0.064 C 
ATOM     23  N   UNL     1      18.718 -19.331  14.709  0.00  0.00    +0.379 N 
ATOM     24  C   UNL     1      17.959 -20.591  14.717  0.00  0.00    -0.096 C 
ATOM     25  H   UNL     1      18.605 -18.862  15.714  0.00  0.00    -0.082 HD
ATOM     26  C   UNL     1      20.206 -19.532  14.459  0.00  0.00    -0.064 C 
ATOM     27  C   UNL     1      20.956 -18.171  14.469  0.00  0.00    +0.066 C 
ENDBRANCH  19  20
ENDBRANCH  18  19
ENDBRANCH  14  15
ENDBRANCH  12  13
TORSDOF 6
ENDMDL
MODEL 4
REMARK VINA RESULT:      -7.1     11.152     14.280
REMARK  Name = C:\Users\Docking\Desktop\test protocol\1iep_ligandH.pdb
REMARK  8 active torsions:
REMARK  status: ('A' for Active; 'I' for Inactive)
REMARK    1  A    between atoms: _5  and  _11
REMARK    2  A    between atoms: _19  and  _21
REMARK    3  A    between atoms: _22  and  _66
REMARK    4  A    between atoms: _27  and  _30
REMARK    5  A    between atoms: _32  and  _33
REMARK    6  A    between atoms: _38  and  _43
REMARK    7  A    between atoms: _43  and  _46
REMARK    8  A    between atoms: _53  and  _55
REMARK                            x       y       z     vdW  Elec       q    Type
REMARK                         _______ _______ _______ _____ _____    ______ ____
ROOT
ATOM     10  C   UNL     1      21.923  -3.692   1.174  0.00  0.00    +0.038 A 
ATOM     11  C   UNL     1      22.326  -2.953   0.032  0.00  0.00    +0.047 A 
ATOM     12  C   UNL     1      21.402  -2.060  -0.650  0.00  0.00    +0.035 A 
ATOM     32  C   UNL     1      20.076  -1.942  -0.142  0.00  0.00    +0.024 A 
ATOM     33  C   UNL     1      19.650  -2.687   1.017  0.00  0.00    +0.007 A 
ATOM     34  C   UNL     1      20.555  -3.571   1.693  0.00  0.00    -0.029 A 
ATOM     35  C   UNL     1      20.042  -4.349   2.927  0.00  0.00    +0.045 C 
ENDROOT
BRANCH  10   9
ATOM      4  C   UNL     1      25.902  -4.440   3.752  0.00  0.00    +0.077 A 
ATOM      5  C   UNL     1      26.169  -3.034   3.857  0.00  0.00    +0.048 A 
ATOM      6  C   UNL     1      25.262  -2.152   3.227  0.00  0.00    +0.116 A 
ATOM      7  N   UNL     1      24.172  -2.650   2.547  0.00  0.00    -0.223 NA
ATOM      8  C   UNL     1      23.945  -4.012   2.463  0.00  0.00    +0.220 A 
ATOM      9  N   UNL     1      22.851  -4.534   1.791  0.00  0.00    -0.283 N 
ATOM     36  H   UNL     1      22.722  -5.545   1.746  0.00  0.00    +0.155 HD
ATOM     37  N   UNL     1      24.797  -4.875   3.055  0.00  0.00    -0.214 NA
BRANCH   4   3
ATOM      1  C   UNL     1      28.473  -6.293   6.045  0.00  0.00    +0.020 A 
ATOM      2  C   UNL     1      27.659  -5.236   5.488  0.00  0.00    +0.013 A 
ATOM      3  C   UNL     1      26.766  -5.497   4.367  0.00  0.00    +0.019 A 
ATOM     38  C   UNL     1      26.717  -6.848   3.829  0.00  0.00    +0.120 A 
ATOM     39  N   UNL     1      27.513  -7.845   4.385  0.00  0.00    -0.263 NA
ATOM     40  C   UNL     1      28.378  -7.605   5.463  0.00  0.00    +0.111 A 
ENDBRANCH   4   3
ENDBRANCH  10   9
BRANCH  12  13
ATOM     13  N   UNL     1      21.752  -1.291  -1.819  0.00  0.00    -0.281 N 
ATOM     14  C   UNL     1      21.435  -1.557  -3.140  0.00  0.00    +0.248 C 
ATOM     30  O   UNL     1      20.982  -2.619  -3.542  0.00  0.00    -0.270 OA
ATOM     31  H   UNL     1      22.300  -0.447  -1.651  0.00  0.00    +0.155 HD
BRANCH  14  15
ATOM     15  C   UNL     1      21.670  -0.497  -4.167  0.00  0.00    +0.037 A 
ATOM     16  C   UNL     1      22.369  -0.794  -5.420  0.00  0.00    +0.013 A 
ATOM     17  C   UNL     1      22.597   0.251  -6.386  0.00  0.00    +0.005 A 
ATOM     18  C   UNL     1      22.123   1.604  -6.103  0.00  0.00    -0.033 A 
ATOM     28  C   UNL     1      21.428   1.870  -4.855  0.00  0.00    +0.005 A 
ATOM     29  C   UNL     1      21.204   0.848  -3.905  0.00  0.00    +0.013 A 
BRANCH  18  19
ATOM     19  C   UNL     1      22.341   2.786  -7.067  0.00  0.00    +0.119 C 
BRANCH  19  20
ATOM     20  N   UNL     1      23.664   3.476  -7.014  0.00  0.00    -0.302 NA
ATOM     21  C   UNL     1      23.521   4.968  -6.699  0.00  0.00    +0.066 C 
ATOM     22  C   UNL     1      24.916   5.670  -6.626  0.00  0.00    -0.064 C 
ATOM     23  N   UNL     1      25.658   5.464  -7.948  0.00  0.00    +0.379 N 
ATOM     24  C   UNL     1      26.946   6.172  -7.903  0.00  0.00    -0.096 C 
ATOM     25  H   UNL     1      25.045   5.928  -8.755  0.00  0.00    -0.082 HD
ATOM     26  C   UNL     1      25.802   3.983  -8.270  0.00  0.00    -0.064 C 
ATOM     27  C   UNL     1      24.412   3.289  -8.311  0.00  0.00    +0.066 C 
ENDBRANCH  19  20
ENDBRANCH  18  19
ENDBRANCH  14  15
ENDBRANCH  12  13
TORSDOF 6
ENDMDL
MODEL 5
REMARK VINA RESULT:      -7.0     22.068     30.172
REMARK  Name = C:\Users\Docking\Desktop\test protocol\1iep_ligandH.pdb
REMARK  8 active torsions:
REMARK  status: ('A' for Active; 'I' for Inactive)
REMARK    1  A    between atoms: _5  and  _11
REMARK    2  A    between atoms: _19  and  _21
REMARK    3  A    between atoms: _22  and  _66
REMARK    4  A    between atoms: _27  and  _30
REMARK    5  A    between atoms: _32  and  _33
REMARK    6  A    between atoms: _38  and  _43
REMARK    7  A    between atoms: _43  and  _46
REMARK    8  A    between atoms: _53  and  _55
REMARK                            x       y       z     vdW  Elec       q    Type
REMARK                         _______ _______ _______ _____ _____    ______ ____
ROOT
ATOM     10  C   UNL     1       7.522 -15.446  10.183  0.00  0.00    +0.038 A 
ATOM     11  C   UNL     1       7.291 -14.818  11.433  0.00  0.00    +0.047 A 
ATOM     12  C   UNL     1       6.806 -15.573  12.578  0.00  0.00    +0.035 A 
ATOM     32  C   UNL     1       6.569 -16.969  12.414  0.00  0.00    +0.024 A 
ATOM     33  C   UNL     1       6.798 -17.624  11.150  0.00  0.00    +0.007 A 
ATOM     34  C   UNL     1       7.274 -16.883  10.017  0.00  0.00    -0.029 A 
ATOM     35  C   UNL     1       7.495 -17.636   8.684  0.00  0.00    +0.045 C 
ENDROOT
BRANCH  10   9
ATOM      4  C   UNL     1       6.802 -12.702   6.312  0.00  0.00    +0.077 A 
ATOM      5  C   UNL     1       5.377 -12.843   6.404  0.00  0.00    +0.048 A 
ATOM      6  C   UNL     1       4.870 -13.637   7.457  0.00  0.00    +0.116 A 
ATOM      7  N   UNL     1       5.733 -14.239   8.347  0.00  0.00    -0.223 NA
ATOM      8  C   UNL     1       7.102 -14.083   8.230  0.00  0.00    +0.220 A 
ATOM      9  N   UNL     1       7.988 -14.672   9.118  0.00  0.00    -0.283 N 
ATOM     36  H   UNL     1       8.991 -14.539   8.993  0.00  0.00    +0.155 HD
ATOM     37  N   UNL     1       7.611 -13.331   7.231  0.00  0.00    -0.214 NA
BRANCH   4   3
ATOM      1  C   UNL     1       9.538 -11.163   3.978  0.00  0.00    +0.020 A 
ATOM      2  C   UNL     1       8.924 -11.966   5.010  0.00  0.00    +0.013 A 
ATOM      3  C   UNL     1       7.489 -11.893   5.256  0.00  0.00    +0.019 A 
ATOM     38  C   UNL     1       6.697 -10.991   4.432  0.00  0.00    +0.120 A 
ATOM     39  N   UNL     1       7.317 -10.230   3.446  0.00  0.00    -0.263 NA
ATOM     40  C   UNL     1       8.697 -10.290   3.202  0.00  0.00    +0.111 A 
ENDBRANCH   4   3
ENDBRANCH  10   9
BRANCH  12  13
ATOM     13  N   UNL     1       6.545 -14.988  13.869  0.00  0.00    -0.281 N 
ATOM     14  C   UNL     1       5.317 -14.713  14.447  0.00  0.00    +0.248 C 
ATOM     30  O   UNL     1       4.252 -14.732  13.849  0.00  0.00    -0.270 OA
ATOM     31  H   UNL     1       7.366 -14.747  14.425  0.00  0.00    +0.155 HD
BRANCH  14  15
ATOM     15  C   UNL     1       5.266 -14.349  15.896  0.00  0.00    +0.037 A 
ATOM     16  C   UNL     1       6.487 -14.039  16.645  0.00  0.00    +0.013 A 
ATOM     17  C   UNL     1       6.411 -13.708  18.046  0.00  0.00    +0.005 A 
ATOM     18  C   UNL     1       5.108 -13.683  18.707  0.00  0.00    -0.033 A 
ATOM     28  C   UNL     1       3.913 -13.990  17.938  0.00  0.00    +0.005 A 
ATOM     29  C   UNL     1       3.983 -14.316  16.566  0.00  0.00    +0.013 A 
BRANCH  18  19
ATOM     19  C   UNL     1       4.935 -13.361  20.203  0.00  0.00    +0.119 C 
BRANCH  19  20
ATOM     20  N   UNL     1       5.382 -14.397  21.182  0.00  0.00    -0.302 NA
ATOM     21  C   UNL     1       5.385 -15.801  20.571  0.00  0.00    +0.066 C 
ATOM     22  C   UNL     1       5.876 -16.869  21.601  0.00  0.00    -0.064 C 
ATOM     23  N   UNL     1       4.988 -16.821  22.845  0.00  0.00    +0.379 N 
ATOM     24  C   UNL     1       5.411 -17.863  23.792  0.00  0.00    -0.096 C 
ATOM     25  H   UNL     1       3.946 -17.057  22.526  0.00  0.00    -0.082 HD
ATOM     26  C   UNL     1       4.977 -15.427  23.457  0.00  0.00    -0.064 C 
ATOM     27  C   UNL     1       4.515 -14.370  22.416  0.00  0.00    +0.066 C 
ENDBRANCH  19  20
ENDBRANCH  18  19
ENDBRANCH  14  15
ENDBRANCH  12  13
TORSDOF 6
ENDMDL
