MODEL 1
REMARK VINA RESULT:      -9.9      0.000      0.000
REMARK  Name = C:\Users\Docking\Desktop\test protocol\1iep_ligandH.pdb
REMARK  8 active torsions:
REMARK  status: ('A' for Active; 'I' for Inactive)
REMARK    1  A    between atoms: _5  and  _11
REMARK    2  A    between atoms: _19  and  _21
REMARK    3  A    between atoms: _22  and  _66
REMARK    4  A    between atoms: _27  and  _30
REMARK    5  A    between atoms: _32  and  _33
REMARK    6  A    between atoms: _38  and  _43
REMARK    7  A    between atoms: _43  and  _46
REMARK    8  A    between atoms: _53  and  _55
REMARK                            x       y       z     vdW  Elec       q    Type
REMARK                         _______ _______ _______ _____ _____    ______ ____
ROOT
ATOM     10  C   UNL     1      32.827  62.160 143.192  0.00  0.00    +0.038 A 
ATOM     11  C   UNL     1      32.798  61.958 144.596  0.00  0.00    +0.047 A 
ATOM     12  C   UNL     1      33.894  62.403 145.442  0.00  0.00    +0.035 A 
ATOM     32  C   UNL     1      35.003  63.053 144.826  0.00  0.00    +0.024 A 
ATOM     33  C   UNL     1      35.049  63.265 143.400  0.00  0.00    +0.007 A 
ATOM     34  C   UNL     1      33.972  62.826 142.560  0.00  0.00    -0.029 A 
ATOM     35  C   UNL     1      34.077  63.074 141.037  0.00  0.00    +0.045 C 
ENDROOT
BRANCH  10   9
ATOM      4  C   UNL     1      28.593  62.847 141.037  0.00  0.00    +0.077 A 
ATOM      5  C   UNL     1      28.513  64.204 141.496  0.00  0.00    +0.048 A 
ATOM      6  C   UNL     1      29.578  64.685 142.290  0.00  0.00    +0.116 A 
ATOM      7  N   UNL     1      30.640  63.861 142.596  0.00  0.00    -0.223 NA
ATOM      8  C   UNL     1      30.685  62.557 142.139  0.00  0.00    +0.220 A 
ATOM      9  N   UNL     1      31.747  61.713 142.427  0.00  0.00    -0.283 N 
ATOM     36  H   UNL     1      31.739  60.755 142.077  0.00  0.00    +0.155 HD
ATOM     37  N   UNL     1      29.680  62.074 141.380  0.00  0.00    -0.214 NA
BRANCH   4   3
ATOM      1  C   UNL     1      25.207  61.348 139.778  0.00  0.00    +0.020 A 
ATOM      2  C   UNL     1      26.179  61.981 140.639  0.00  0.00    +0.013 A 
ATOM      3  C   UNL     1      27.547  62.196 140.186  0.00  0.00    +0.019 A 
ATOM     38  C   UNL     1      27.903  61.756 138.846  0.00  0.00    +0.120 A 
ATOM     39  N   UNL     1      26.946  61.148 138.039  0.00  0.00    -0.263 NA
ATOM     40  C   UNL     1      25.626  60.934 138.465  0.00  0.00    +0.111 A 
ENDBRANCH   4   3
ENDBRANCH  10   9
BRANCH  12  13
ATOM     13  N   UNL     1      33.925  62.219 146.872  0.00  0.00    -0.281 N 
ATOM     14  C   UNL     1      34.643  61.280 147.594  0.00  0.00    +0.248 C 
ATOM     30  O   UNL     1      35.206  60.313 147.103  0.00  0.00    -0.270 OA
ATOM     31  H   UNL     1      33.347  62.858 147.418  0.00  0.00    +0.155 HD
BRANCH  14  15
ATOM     15  C   UNL     1      34.737  61.428 149.078  0.00  0.00    +0.037 A 
ATOM     16  C   UNL     1      34.087  60.474 149.980  0.00  0.00    +0.013 A 
ATOM     17  C   UNL     1      34.179  60.651 151.408  0.00  0.00    +0.005 A 
ATOM     18  C   UNL     1      34.926  61.786 151.943  0.00  0.00    -0.033 A 
ATOM     28  C   UNL     1      35.566  62.715 151.025  0.00  0.00    +0.005 A 
ATOM     29  C   UNL     1      35.477  62.546 149.625  0.00  0.00    +0.013 A 
BRANCH  18  19
ATOM     19  C   UNL     1      35.059  62.064 153.452  0.00  0.00    +0.119 C 
BRANCH  19  20
ATOM     20  N   UNL     1      34.004  62.909 154.087  0.00  0.00    -0.302 NA
ATOM     21  C   UNL     1      34.571  64.224 154.630  0.00  0.00    +0.066 C 
ATOM     22  C   UNL     1      33.450  65.105 155.271  0.00  0.00    -0.064 C 
ATOM     23  N   UNL     1      32.756  64.315 156.381  0.00  0.00    +0.379 N 
ATOM     24  C   UNL     1      31.740  65.161 157.025  0.00  0.00    -0.096 C 
ATOM     25  H   UNL     1      33.524  64.065 157.150  0.00  0.00    -0.082 HD
ATOM     26  C   UNL     1      32.192  63.005 155.850  0.00  0.00    -0.064 C 
ATOM     27  C   UNL     1      33.308  62.149 155.189  0.00  0.00    +0.066 C 
ENDBRANCH  19  20
ENDBRANCH  18  19
ENDBRANCH  14  15
ENDBRANCH  12  13
TORSDOF 6
ENDMDL
MODEL 2
REMARK VINA RESULT:      -9.5      2.032     12.661
REMARK  Name = C:\Users\Docking\Desktop\test protocol\1iep_ligandH.pdb
REMARK  8 active torsions:
REMARK  status: ('A' for Active; 'I' for Inactive)
REMARK    1  A    between atoms: _5  and  _11
REMARK    2  A    between atoms: _19  and  _21
REMARK    3  A    between atoms: _22  and  _66
REMARK    4  A    between atoms: _27  and  _30
REMARK    5  A    between atoms: _32  and  _33
REMARK    6  A    between atoms: _38  and  _43
REMARK    7  A    between atoms: _43  and  _46
REMARK    8  A    between atoms: _53  and  _55
REMARK                            x       y       z     vdW  Elec       q    Type
REMARK                         _______ _______ _______ _____ _____    ______ ____
ROOT
ATOM     10  C   UNL     1      34.951  60.181 148.301  0.00  0.00    +0.038 A 
ATOM     11  C   UNL     1      33.959  60.741 147.457  0.00  0.00    +0.047 A 
ATOM     12  C   UNL     1      34.138  60.791 146.014  0.00  0.00    +0.035 A 
ATOM     32  C   UNL     1      35.340  60.258 145.464  0.00  0.00    +0.024 A 
ATOM     33  C   UNL     1      36.360  59.685 146.307  0.00  0.00    +0.007 A 
ATOM     34  C   UNL     1      36.190  59.636 147.731  0.00  0.00    -0.029 A 
ATOM     35  C   UNL     1      37.319  59.016 148.587  0.00  0.00    +0.045 C 
ENDROOT
BRANCH  10   9
ATOM      4  C   UNL     1      34.896  62.286 152.613  0.00  0.00    +0.077 A 
ATOM      5  C   UNL     1      35.381  63.527 152.080  0.00  0.00    +0.048 A 
ATOM      6  C   UNL     1      35.639  63.579 150.691  0.00  0.00    +0.116 A 
ATOM      7  N   UNL     1      35.424  62.468 149.905  0.00  0.00    -0.223 NA
ATOM      8  C   UNL     1      34.958  61.287 150.452  0.00  0.00    +0.220 A 
ATOM      9  N   UNL     1      34.727  60.159 149.679  0.00  0.00    -0.283 N 
ATOM     36  H   UNL     1      34.390  59.305 150.121  0.00  0.00    +0.155 HD
ATOM     37  N   UNL     1      34.705  61.211 151.775  0.00  0.00    -0.214 NA
BRANCH   4   3
ATOM      1  C   UNL     1      33.121  61.188 155.921  0.00  0.00    +0.020 A 
ATOM      2  C   UNL     1      33.385  61.365 154.512  0.00  0.00    +0.013 A 
ATOM      3  C   UNL     1      34.575  62.075 154.060  0.00  0.00    +0.019 A 
ATOM     38  C   UNL     1      35.485  62.597 155.068  0.00  0.00    +0.120 A 
ATOM     39  N   UNL     1      35.204  62.413 156.419  0.00  0.00    -0.263 NA
ATOM     40  C   UNL     1      34.061  61.732 156.865  0.00  0.00    +0.111 A 
ENDBRANCH   4   3
ENDBRANCH  10   9
BRANCH  12  13
ATOM     13  N   UNL     1      33.168  61.355 145.108  0.00  0.00    -0.281 N 
ATOM     14  C   UNL     1      33.068  62.668 144.677  0.00  0.00    +0.248 C 
ATOM     30  O   UNL     1      33.672  63.607 145.176  0.00  0.00    -0.270 OA
ATOM     31  H   UNL     1      32.471  60.708 144.739  0.00  0.00    +0.155 HD
BRANCH  14  15
ATOM     15  C   UNL     1      32.155  62.986 143.538  0.00  0.00    +0.037 A 
ATOM     16  C   UNL     1      31.825  64.372 143.193  0.00  0.00    +0.013 A 
ATOM     17  C   UNL     1      30.928  64.651 142.100  0.00  0.00    +0.005 A 
ATOM     18  C   UNL     1      30.355  63.540 141.342  0.00  0.00    -0.033 A 
ATOM     28  C   UNL     1      30.704  62.176 141.703  0.00  0.00    +0.005 A 
ATOM     29  C   UNL     1      31.582  61.899 142.774  0.00  0.00    +0.013 A 
BRANCH  18  19
ATOM     19  C   UNL     1      29.372  63.744 140.174  0.00  0.00    +0.119 C 
BRANCH  19  20
ATOM     20  N   UNL     1      28.440  62.620 139.861  0.00  0.00    -0.302 NA
ATOM     21  C   UNL     1      28.133  62.529 138.363  0.00  0.00    +0.066 C 
ATOM     22  C   UNL     1      27.174  61.334 138.051  0.00  0.00    -0.064 C 
ATOM     23  N   UNL     1      25.886  61.492 138.859  0.00  0.00    +0.379 N 
ATOM     24  C   UNL     1      24.959  60.401 138.524  0.00  0.00    -0.096 C 
ATOM     25  H   UNL     1      25.407  62.450 138.549  0.00  0.00    -0.082 HD
ATOM     26  C   UNL     1      26.183  61.586 140.349  0.00  0.00    -0.064 C 
ATOM     27  C   UNL     1      27.159  62.758 140.646  0.00  0.00    +0.066 C 
ENDBRANCH  19  20
ENDBRANCH  18  19
ENDBRANCH  14  15
ENDBRANCH  12  13
TORSDOF 6
ENDMDL
MODEL 3
REMARK VINA RESULT:      -8.8      1.829      2.520
REMARK  Name = C:\Users\Docking\Desktop\test protocol\1iep_ligandH.pdb
REMARK  8 active torsions:
REMARK  status: ('A' for Active; 'I' for Inactive)
REMARK    1  A    between atoms: _5  and  _11
REMARK    2  A    between atoms: _19  and  _21
REMARK    3  A    between atoms: _22  and  _66
REMARK    4  A    between atoms: _27  and  _30
REMARK    5  A    between atoms: _32  and  _33
REMARK    6  A    between atoms: _38  and  _43
REMARK    7  A    between atoms: _43  and  _46
REMARK    8  A    between atoms: _53  and  _55
REMARK                            x       y       z     vdW  Elec       q    Type
REMARK                         _______ _______ _______ _____ _____    ______ ____
ROOT
ATOM     10  C   UNL     1      33.054  63.903 143.560  0.00  0.00    +0.038 A 
ATOM     11  C   UNL     1      33.020  63.842 144.976  0.00  0.00    +0.047 A 
ATOM     12  C   UNL     1      34.026  63.102 145.722  0.00  0.00    +0.035 A 
ATOM     32  C   UNL     1      35.055  62.437 144.992  0.00  0.00    +0.024 A 
ATOM     33  C   UNL     1      35.104  62.488 143.552  0.00  0.00    +0.007 A 
ATOM     34  C   UNL     1      34.112  63.215 142.811  0.00  0.00    -0.029 A 
ATOM     35  C   UNL     1      34.210  63.230 141.268  0.00  0.00    +0.045 C 
ENDROOT
BRANCH  10   9
ATOM      4  C   UNL     1      28.999  64.170 141.005  0.00  0.00    +0.077 A 
ATOM      5  C   UNL     1      28.858  62.743 140.968  0.00  0.00    +0.048 A 
ATOM      6  C   UNL     1      29.855  61.976 141.613  0.00  0.00    +0.116 A 
ATOM      7  N   UNL     1      30.909  62.600 142.244  0.00  0.00    -0.223 NA
ATOM      8  C   UNL     1      31.015  63.979 142.259  0.00  0.00    +0.220 A 
ATOM      9  N   UNL     1      32.062  64.628 142.895  0.00  0.00    -0.283 N 
ATOM     36  H   UNL     1      32.109  65.647 142.877  0.00  0.00    +0.155 HD
ATOM     37  N   UNL     1      30.077  64.734 141.650  0.00  0.00    -0.214 NA
BRANCH   4   3
ATOM      1  C   UNL     1      26.625  65.918 138.434  0.00  0.00    +0.020 A 
ATOM      2  C   UNL     1      27.566  64.977 138.996  0.00  0.00    +0.013 A 
ATOM      3  C   UNL     1      28.026  65.116 140.372  0.00  0.00    +0.019 A 
ATOM     38  C   UNL     1      27.510  66.226 141.159  0.00  0.00    +0.120 A 
ATOM     39  N   UNL     1      26.606  67.118 140.590  0.00  0.00    -0.263 NA
ATOM     40  C   UNL     1      26.157  66.995 139.266  0.00  0.00    +0.111 A 
ENDBRANCH   4   3
ENDBRANCH  10   9
BRANCH  12  13
ATOM     13  N   UNL     1      34.039  62.997 147.160  0.00  0.00    -0.281 N 
ATOM     14  C   UNL     1      34.033  61.846 147.930  0.00  0.00    +0.248 C 
ATOM     30  O   UNL     1      33.800  60.726 147.498  0.00  0.00    -0.270 OA
ATOM     31  H   UNL     1      34.053  63.879 147.672  0.00  0.00    +0.155 HD
BRANCH  14  15
ATOM     15  C   UNL     1      34.313  61.955 149.394  0.00  0.00    +0.037 A 
ATOM     16  C   UNL     1      34.791  63.208 149.985  0.00  0.00    +0.013 A 
ATOM     17  C   UNL     1      35.070  63.281 151.397  0.00  0.00    +0.005 A 
ATOM     18  C   UNL     1      34.869  62.098 152.229  0.00  0.00    -0.033 A 
ATOM     28  C   UNL     1      34.388  60.869 151.618  0.00  0.00    +0.005 A 
ATOM     29  C   UNL     1      34.115  60.793 150.234  0.00  0.00    +0.013 A 
BRANCH  18  19
ATOM     19  C   UNL     1      35.160  62.079 153.742  0.00  0.00    +0.119 C 
BRANCH  19  20
ATOM     20  N   UNL     1      34.510  63.133 154.576  0.00  0.00    -0.302 NA
ATOM     21  C   UNL     1      35.272  63.383 155.881  0.00  0.00    +0.066 C 
ATOM     22  C   UNL     1      34.590  64.504 156.732  0.00  0.00    -0.064 C 
ATOM     23  N   UNL     1      33.140  64.113 157.018  0.00  0.00    +0.379 N 
ATOM     24  C   UNL     1      32.513  65.137 157.866  0.00  0.00    -0.096 C 
ATOM     25  H   UNL     1      33.155  63.159 157.594  0.00  0.00    -0.082 HD
ATOM     26  C   UNL     1      32.376  63.859 155.726  0.00  0.00    -0.064 C 
ATOM     27  C   UNL     1      33.078  62.765 154.875  0.00  0.00    +0.066 C 
ENDBRANCH  19  20
ENDBRANCH  18  19
ENDBRANCH  14  15
ENDBRANCH  12  13
TORSDOF 6
ENDMDL
MODEL 4
REMARK VINA RESULT:      -8.8      2.303      3.546
REMARK  Name = C:\Users\Docking\Desktop\test protocol\1iep_ligandH.pdb
REMARK  8 active torsions:
REMARK  status: ('A' for Active; 'I' for Inactive)
REMARK    1  A    between atoms: _5  and  _11
REMARK    2  A    between atoms: _19  and  _21
REMARK    3  A    between atoms: _22  and  _66
REMARK    4  A    between atoms: _27  and  _30
REMARK    5  A    between atoms: _32  and  _33
REMARK    6  A    between atoms: _38  and  _43
REMARK    7  A    between atoms: _43  and  _46
REMARK    8  A    between atoms: _53  and  _55
REMARK                            x       y       z     vdW  Elec       q    Type
REMARK                         _______ _______ _______ _____ _____    ______ ____
ROOT
ATOM     10  C   UNL     1      32.054  60.383 145.513  0.00  0.00    +0.038 A 
ATOM     11  C   UNL     1      32.023  60.752 146.882  0.00  0.00    +0.047 A 
ATOM     12  C   UNL     1      32.944  60.162 147.841  0.00  0.00    +0.035 A 
ATOM     32  C   UNL     1      33.885  59.201 147.371  0.00  0.00    +0.024 A 
ATOM     33  C   UNL     1      33.930  58.813 145.983  0.00  0.00    +0.007 A 
ATOM     34  C   UNL     1      33.022  59.390 145.033  0.00  0.00    -0.029 A 
ATOM     35  C   UNL     1      33.111  58.932 143.558  0.00  0.00    +0.045 C 
ENDROOT
BRANCH  10   9
ATOM      4  C   UNL     1      30.891  63.684 142.229  0.00  0.00    +0.077 A 
ATOM      5  C   UNL     1      32.192  64.285 142.286  0.00  0.00    +0.048 A 
ATOM      6  C   UNL     1      33.130  63.719 143.179  0.00  0.00    +0.116 A 
ATOM      7  N   UNL     1      32.781  62.633 143.952  0.00  0.00    -0.223 NA
ATOM      8  C   UNL     1      31.517  62.078 143.873  0.00  0.00    +0.220 A 
ATOM      9  N   UNL     1      31.147  60.981 144.635  0.00  0.00    -0.283 N 
ATOM     36  H   UNL     1      30.202  60.606 144.554  0.00  0.00    +0.155 HD
ATOM     37  N   UNL     1      30.603  62.602 143.030  0.00  0.00    -0.214 NA
BRANCH   4   3
ATOM      1  C   UNL     1      28.600  64.265 139.112  0.00  0.00    +0.020 A 
ATOM      2  C   UNL     1      29.680  63.771 139.935  0.00  0.00    +0.013 A 
ATOM      3  C   UNL     1      29.793  64.167 141.333  0.00  0.00    +0.019 A 
ATOM     38  C   UNL     1      28.788  65.070 141.873  0.00  0.00    +0.120 A 
ATOM     39  N   UNL     1      27.760  65.531 141.056  0.00  0.00    -0.263 NA
ATOM     40  C   UNL     1      27.642  65.159 139.709  0.00  0.00    +0.111 A 
ENDBRANCH   4   3
ENDBRANCH  10   9
BRANCH  12  13
ATOM     13  N   UNL     1      32.954  60.492 149.245  0.00  0.00    -0.281 N 
ATOM     14  C   UNL     1      33.778  61.389 149.903  0.00  0.00    +0.248 C 
ATOM     30  O   UNL     1      34.781  61.891 149.417  0.00  0.00    -0.270 OA
ATOM     31  H   UNL     1      32.270  60.004 149.824  0.00  0.00    +0.155 HD
BRANCH  14  15
ATOM     15  C   UNL     1      33.450  61.775 151.309  0.00  0.00    +0.037 A 
ATOM     16  C   UNL     1      32.368  62.718 151.605  0.00  0.00    +0.013 A 
ATOM     17  C   UNL     1      32.083  63.086 152.970  0.00  0.00    +0.005 A 
ATOM     18  C   UNL     1      32.881  62.508 154.049  0.00  0.00    -0.033 A 
ATOM     28  C   UNL     1      33.944  61.571 153.727  0.00  0.00    +0.005 A 
ATOM     29  C   UNL     1      34.227  61.209 152.391  0.00  0.00    +0.013 A 
BRANCH  18  19
ATOM     19  C   UNL     1      32.661  62.860 155.532  0.00  0.00    +0.119 C 
BRANCH  19  20
ATOM     20  N   UNL     1      33.392  64.046 156.069  0.00  0.00    -0.302 NA
ATOM     21  C   UNL     1      34.860  63.728 156.369  0.00  0.00    +0.066 C 
ATOM     22  C   UNL     1      35.616  64.986 156.909  0.00  0.00    -0.064 C 
ATOM     23  N   UNL     1      34.907  65.504 158.162  0.00  0.00    +0.379 N 
ATOM     24  C   UNL     1      35.649  66.652 158.705  0.00  0.00    -0.096 C 
ATOM     25  H   UNL     1      34.933  64.692 158.925  0.00  0.00    -0.082 HD
ATOM     26  C   UNL     1      33.447  65.820 157.873  0.00  0.00    -0.064 C 
ATOM     27  C   UNL     1      32.712  64.572 157.309  0.00  0.00    +0.066 C 
ENDBRANCH  19  20
ENDBRANCH  18  19
ENDBRANCH  14  15
ENDBRANCH  12  13
TORSDOF 6
ENDMDL
MODEL 5
REMARK VINA RESULT:      -8.6      2.851      5.579
REMARK  Name = C:\Users\Docking\Desktop\test protocol\1iep_ligandH.pdb
REMARK  8 active torsions:
REMARK  status: ('A' for Active; 'I' for Inactive)
REMARK    1  A    between atoms: _5  and  _11
REMARK    2  A    between atoms: _19  and  _21
REMARK    3  A    between atoms: _22  and  _66
REMARK    4  A    between atoms: _27  and  _30
REMARK    5  A    between atoms: _32  and  _33
REMARK    6  A    between atoms: _38  and  _43
REMARK    7  A    between atoms: _43  and  _46
REMARK    8  A    between atoms: _53  and  _55
REMARK                            x       y       z     vdW  Elec       q    Type
REMARK                         _______ _______ _______ _____ _____    ______ ____
ROOT
ATOM     10  C   UNL     1      34.760  61.430 147.863  0.00  0.00    +0.038 A 
ATOM     11  C   UNL     1      34.640  62.156 149.076  0.00  0.00    +0.047 A 
ATOM     12  C   UNL     1      35.595  61.977 150.158  0.00  0.00    +0.035 A 
ATOM     32  C   UNL     1      36.662  61.051 149.971  0.00  0.00    +0.024 A 
ATOM     33  C   UNL     1      36.799  60.303 148.745  0.00  0.00    +0.007 A 
ATOM     34  C   UNL     1      35.858  60.474 147.675  0.00  0.00    -0.029 A 
ATOM     35  C   UNL     1      36.049  59.642 146.386  0.00  0.00    +0.045 C 
ENDROOT
BRANCH  10   9
ATOM      4  C   UNL     1      33.221  63.664 143.904  0.00  0.00    +0.077 A 
ATOM      5  C   UNL     1      34.387  64.498 143.850  0.00  0.00    +0.048 A 
ATOM      6  C   UNL     1      35.355  64.326 144.864  0.00  0.00    +0.116 A 
ATOM      7  N   UNL     1      35.162  63.386 145.853  0.00  0.00    -0.223 NA
ATOM      8  C   UNL     1      34.026  62.599 145.877  0.00  0.00    +0.220 A 
ATOM      9  N   UNL     1      33.815  61.642 146.857  0.00  0.00    -0.283 N 
ATOM     36  H   UNL     1      32.960  61.086 146.844  0.00  0.00    +0.155 HD
ATOM     37  N   UNL     1      33.085  62.745 144.920  0.00  0.00    -0.214 NA
BRANCH   4   3
ATOM      1  C   UNL     1      29.908  64.619 142.056  0.00  0.00    +0.020 A 
ATOM      2  C   UNL     1      30.953  64.598 143.054  0.00  0.00    +0.013 A 
ATOM      3  C   UNL     1      32.110  63.725 142.902  0.00  0.00    +0.019 A 
ATOM     38  C   UNL     1      32.181  62.879 141.719  0.00  0.00    +0.120 A 
ATOM     39  N   UNL     1      31.158  62.920 140.776  0.00  0.00    -0.263 NA
ATOM     40  C   UNL     1      30.039  63.755 140.913  0.00  0.00    +0.111 A 
ENDBRANCH   4   3
ENDBRANCH  10   9
BRANCH  12  13
ATOM     13  N   UNL     1      35.520  62.681 151.414  0.00  0.00    -0.281 N 
ATOM     14  C   UNL     1      34.969  62.239 152.606  0.00  0.00    +0.248 C 
ATOM     30  O   UNL     1      34.263  61.248 152.715  0.00  0.00    -0.270 OA
ATOM     31  H   UNL     1      35.921  63.618 151.426  0.00  0.00    +0.155 HD
BRANCH  14  15
ATOM     15  C   UNL     1      35.228  63.019 153.854  0.00  0.00    +0.037 A 
ATOM     16  C   UNL     1      35.419  62.349 155.143  0.00  0.00    +0.013 A 
ATOM     17  C   UNL     1      35.651  63.126 156.335  0.00  0.00    +0.005 A 
ATOM     18  C   UNL     1      35.695  64.583 156.243  0.00  0.00    -0.033 A 
ATOM     28  C   UNL     1      35.507  65.222 154.950  0.00  0.00    +0.005 A 
ATOM     29  C   UNL     1      35.279  64.463 153.780  0.00  0.00    +0.013 A 
BRANCH  18  19
ATOM     19  C   UNL     1      35.915  65.493 157.466  0.00  0.00    +0.119 C 
BRANCH  19  20
ATOM     20  N   UNL     1      35.448  66.907 157.360  0.00  0.00    -0.302 NA
ATOM     21  C   UNL     1      36.595  67.906 157.533  0.00  0.00    +0.066 C 
ATOM     22  C   UNL     1      36.092  69.380 157.396  0.00  0.00    -0.064 C 
ATOM     23  N   UNL     1      34.990  69.637 158.426  0.00  0.00    +0.379 N 
ATOM     24  C   UNL     1      34.555  71.039 158.339  0.00  0.00    -0.096 C 
ATOM     25  H   UNL     1      35.431  69.481 159.438  0.00  0.00    -0.082 HD
ATOM     26  C   UNL     1      33.846  68.646 158.263  0.00  0.00    -0.064 C 
ATOM     27  C   UNL     1      34.362  67.184 158.370  0.00  0.00    +0.066 C 
ENDBRANCH  19  20
ENDBRANCH  18  19
ENDBRANCH  14  15
ENDBRANCH  12  13
TORSDOF 6
ENDMDL
