MODEL 1
REMARK VINA RESULT:      -8.0      0.000      0.000
REMARK  Name = C:\Users\Docking\Desktop\test protocol\1iep_ligandH.pdb
REMARK  8 active torsions:
REMARK  status: ('A' for Active; 'I' for Inactive)
REMARK    1  A    between atoms: _5  and  _11
REMARK    2  A    between atoms: _19  and  _21
REMARK    3  A    between atoms: _22  and  _66
REMARK    4  A    between atoms: _27  and  _30
REMARK    5  A    between atoms: _32  and  _33
REMARK    6  A    between atoms: _38  and  _43
REMARK    7  A    between atoms: _43  and  _46
REMARK    8  A    between atoms: _53  and  _55
REMARK                            x       y       z     vdW  Elec       q    Type
REMARK                         _______ _______ _______ _____ _____    ______ ____
ROOT
ATOM     10  C   UNL     1       9.289  17.713   3.951  0.00  0.00    +0.038 A 
ATOM     11  C   UNL     1      10.595  17.962   4.445  0.00  0.00    +0.047 A 
ATOM     12  C   UNL     1      11.164  19.300   4.429  0.00  0.00    +0.035 A 
ATOM     32  C   UNL     1      10.373  20.364   3.904  0.00  0.00    +0.024 A 
ATOM     33  C   UNL     1       9.044  20.129   3.396  0.00  0.00    +0.007 A 
ATOM     34  C   UNL     1       8.479  18.810   3.408  0.00  0.00    -0.029 A 
ATOM     35  C   UNL     1       7.052  18.615   2.845  0.00  0.00    +0.045 C 
ENDROOT
BRANCH  10   9
ATOM      4  C   UNL     1       8.320  13.488   1.890  0.00  0.00    +0.077 A 
ATOM      5  C   UNL     1       8.819  13.926   0.619  0.00  0.00    +0.048 A 
ATOM      6  C   UNL     1       9.310  15.249   0.536  0.00  0.00    +0.116 A 
ATOM      7  N   UNL     1       9.298  16.063   1.648  0.00  0.00    -0.223 NA
ATOM      8  C   UNL     1       8.808  15.609   2.858  0.00  0.00    +0.220 A 
ATOM      9  N   UNL     1       8.793  16.408   3.991  0.00  0.00    -0.283 N 
ATOM     36  H   UNL     1       8.416  16.039   4.864  0.00  0.00    +0.155 HD
ATOM     37  N   UNL     1       8.332  14.351   2.963  0.00  0.00    -0.214 NA
BRANCH   4   3
ATOM      1  C   UNL     1       6.378  10.116   1.490  0.00  0.00    +0.020 A 
ATOM      2  C   UNL     1       6.880  11.440   1.204  0.00  0.00    +0.013 A 
ATOM      3  C   UNL     1       7.770  12.117   2.138  0.00  0.00    +0.019 A 
ATOM     38  C   UNL     1       8.137  11.422   3.362  0.00  0.00    +0.120 A 
ATOM     39  N   UNL     1       7.636  10.148   3.612  0.00  0.00    -0.263 NA
ATOM     40  C   UNL     1       6.778   9.487   2.721  0.00  0.00    +0.111 A 
ENDBRANCH   4   3
ENDBRANCH  10   9
BRANCH  12  13
ATOM     13  N   UNL     1      12.487  19.612   4.909  0.00  0.00    -0.281 N 
ATOM     14  C   UNL     1      12.848  20.105   6.153  0.00  0.00    +0.248 C 
ATOM     30  O   UNL     1      12.061  20.556   6.972  0.00  0.00    -0.270 OA
ATOM     31  H   UNL     1      13.251  19.449   4.253  0.00  0.00    +0.155 HD
BRANCH  14  15
ATOM     15  C   UNL     1      14.292  20.110   6.536  0.00  0.00    +0.037 A 
ATOM     16  C   UNL     1      15.330  19.681   5.595  0.00  0.00    +0.013 A 
ATOM     17  C   UNL     1      16.714  19.679   5.997  0.00  0.00    +0.005 A 
ATOM     18  C   UNL     1      17.069  20.110   7.347  0.00  0.00    -0.033 A 
ATOM     28  C   UNL     1      16.020  20.536   8.258  0.00  0.00    +0.005 A 
ATOM     29  C   UNL     1      14.662  20.538   7.869  0.00  0.00    +0.013 A 
BRANCH  18  19
ATOM     19  C   UNL     1      18.518  20.121   7.868  0.00  0.00    +0.119 C 
BRANCH  19  20
ATOM     20  N   UNL     1      19.250  18.819   7.882  0.00  0.00    -0.302 NA
ATOM     21  C   UNL     1      18.433  17.708   8.548  0.00  0.00    +0.066 C 
ATOM     22  C   UNL     1      19.203  16.348   8.533  0.00  0.00    -0.064 C 
ATOM     23  N   UNL     1      20.553  16.522   9.233  0.00  0.00    +0.379 N 
ATOM     24  C   UNL     1      21.255  15.231   9.272  0.00  0.00    -0.096 C 
ATOM     25  H   UNL     1      20.351  16.829  10.285  0.00  0.00    -0.082 HD
ATOM     26  C   UNL     1      21.370  17.626   8.578  0.00  0.00    -0.064 C 
ATOM     27  C   UNL     1      20.584  18.967   8.571  0.00  0.00    +0.066 C 
ENDBRANCH  19  20
ENDBRANCH  18  19
ENDBRANCH  14  15
ENDBRANCH  12  13
TORSDOF 6
ENDMDL
MODEL 2
REMARK VINA RESULT:      -7.9      9.136     13.278
REMARK  Name = C:\Users\Docking\Desktop\test protocol\1iep_ligandH.pdb
REMARK  8 active torsions:
REMARK  status: ('A' for Active; 'I' for Inactive)
REMARK    1  A    between atoms: _5  and  _11
REMARK    2  A    between atoms: _19  and  _21
REMARK    3  A    between atoms: _22  and  _66
REMARK    4  A    between atoms: _27  and  _30
REMARK    5  A    between atoms: _32  and  _33
REMARK    6  A    between atoms: _38  and  _43
REMARK    7  A    between atoms: _43  and  _46
REMARK    8  A    between atoms: _53  and  _55
REMARK                            x       y       z     vdW  Elec       q    Type
REMARK                         _______ _______ _______ _____ _____    ______ ____
ROOT
ATOM     10  C   UNL     1      19.799  17.335   8.489  0.00  0.00    +0.038 A 
ATOM     11  C   UNL     1      21.088  17.629   7.974  0.00  0.00    +0.047 A 
ATOM     12  C   UNL     1      22.157  16.644   8.015  0.00  0.00    +0.035 A 
ATOM     32  C   UNL     1      21.878  15.368   8.585  0.00  0.00    +0.024 A 
ATOM     33  C   UNL     1      20.574  15.052   9.113  0.00  0.00    +0.007 A 
ATOM     34  C   UNL     1      19.516  16.021   9.078  0.00  0.00    -0.029 A 
ATOM     35  C   UNL     1      18.140  15.630   9.665  0.00  0.00    +0.045 C 
ENDROOT
BRANCH  10   9
ATOM      4  C   UNL     1      17.422  21.076  10.330  0.00  0.00    +0.077 A 
ATOM      5  C   UNL     1      18.199  21.052  11.536  0.00  0.00    +0.048 A 
ATOM      6  C   UNL     1      19.196  20.057  11.645  0.00  0.00    +0.116 A 
ATOM      7  N   UNL     1      19.393  19.158  10.619  0.00  0.00    -0.223 NA
ATOM      8  C   UNL     1      18.624  19.208   9.471  0.00  0.00    +0.220 A 
ATOM      9  N   UNL     1      18.809  18.319   8.423  0.00  0.00    -0.283 N 
ATOM     36  H   UNL     1      18.217  18.384   7.596  0.00  0.00    +0.155 HD
ATOM     37  N   UNL     1      17.664  20.148   9.343  0.00  0.00    -0.214 NA
BRANCH   4   3
ATOM      1  C   UNL     1      13.906  22.725   9.859  0.00  0.00    +0.020 A 
ATOM      2  C   UNL     1      14.918  21.728  10.124  0.00  0.00    +0.013 A 
ATOM      3  C   UNL     1      16.333  22.069  10.064  0.00  0.00    +0.019 A 
ATOM     38  C   UNL     1      16.695  23.439   9.732  0.00  0.00    +0.120 A 
ATOM     39  N   UNL     1      15.699  24.378   9.481  0.00  0.00    -0.263 NA
ATOM     40  C   UNL     1      14.333  24.060   9.533  0.00  0.00    +0.111 A 
ENDBRANCH   4   3
ENDBRANCH  10   9
BRANCH  12  13
ATOM     13  N   UNL     1      23.487  16.888   7.515  0.00  0.00    -0.281 N 
ATOM     14  C   UNL     1      24.000  16.570   6.268  0.00  0.00    +0.248 C 
ATOM     30  O   UNL     1      23.453  15.831   5.464  0.00  0.00    -0.270 OA
ATOM     31  H   UNL     1      24.128  17.352   8.159  0.00  0.00    +0.155 HD
BRANCH  14  15
ATOM     15  C   UNL     1      25.319  17.144   5.862  0.00  0.00    +0.037 A 
ATOM     16  C   UNL     1      25.479  17.855   4.591  0.00  0.00    +0.013 A 
ATOM     17  C   UNL     1      26.766  18.384   4.215  0.00  0.00    +0.005 A 
ATOM     18  C   UNL     1      27.904  18.206   5.115  0.00  0.00    -0.033 A 
ATOM     28  C   UNL     1      27.716  17.502   6.372  0.00  0.00    +0.005 A 
ATOM     29  C   UNL     1      26.456  16.981   6.743  0.00  0.00    +0.013 A 
BRANCH  18  19
ATOM     19  C   UNL     1      29.318  18.720   4.786  0.00  0.00    +0.119 C 
BRANCH  19  20
ATOM     20  N   UNL     1      30.419  18.338   5.721  0.00  0.00    -0.302 NA
ATOM     21  C   UNL     1      31.335  19.522   6.043  0.00  0.00    +0.066 C 
ATOM     22  C   UNL     1      32.468  19.110   7.039  0.00  0.00    -0.064 C 
ATOM     23  N   UNL     1      33.269  17.950   6.446  0.00  0.00    +0.379 N 
ATOM     24  C   UNL     1      34.370  17.599   7.354  0.00  0.00    -0.096 C 
ATOM     25  H   UNL     1      33.719  18.305   5.490  0.00  0.00    -0.082 HD
ATOM     26  C   UNL     1      32.365  16.770   6.120  0.00  0.00    -0.064 C 
ATOM     27  C   UNL     1      31.226  17.197   5.152  0.00  0.00    +0.066 C 
ENDBRANCH  19  20
ENDBRANCH  18  19
ENDBRANCH  14  15
ENDBRANCH  12  13
TORSDOF 6
ENDMDL
MODEL 3
REMARK VINA RESULT:      -7.8      2.307      3.323
REMARK  Name = C:\Users\Docking\Desktop\test protocol\1iep_ligandH.pdb
REMARK  8 active torsions:
REMARK  status: ('A' for Active; 'I' for Inactive)
REMARK    1  A    between atoms: _5  and  _11
REMARK    2  A    between atoms: _19  and  _21
REMARK    3  A    between atoms: _22  and  _66
REMARK    4  A    between atoms: _27  and  _30
REMARK    5  A    between atoms: _32  and  _33
REMARK    6  A    between atoms: _38  and  _43
REMARK    7  A    between atoms: _43  and  _46
REMARK    8  A    between atoms: _53  and  _55
REMARK                            x       y       z     vdW  Elec       q    Type
REMARK                         _______ _______ _______ _____ _____    ______ ____
ROOT
ATOM     10  C   UNL     1       9.593  17.639   4.552  0.00  0.00    +0.038 A 
ATOM     11  C   UNL     1      10.942  17.779   4.968  0.00  0.00    +0.047 A 
ATOM     12  C   UNL     1      11.566  19.089   5.067  0.00  0.00    +0.035 A 
ATOM     32  C   UNL     1      10.786  20.236   4.738  0.00  0.00    +0.024 A 
ATOM     33  C   UNL     1       9.414  20.111   4.312  0.00  0.00    +0.007 A 
ATOM     34  C   UNL     1       8.794  18.822   4.210  0.00  0.00    -0.029 A 
ATOM     35  C   UNL     1       7.322  18.747   3.742  0.00  0.00    +0.045 C 
ENDROOT
BRANCH  10   9
ATOM      4  C   UNL     1       8.397  13.687   2.104  0.00  0.00    +0.077 A 
ATOM      5  C   UNL     1       8.883  14.233   0.870  0.00  0.00    +0.048 A 
ATOM      6  C   UNL     1       9.426  15.537   0.906  0.00  0.00    +0.116 A 
ATOM      7  N   UNL     1       9.476  16.233   2.095  0.00  0.00    -0.223 NA
ATOM      8  C   UNL     1       8.997  15.678   3.267  0.00  0.00    +0.220 A 
ATOM      9  N   UNL     1       9.044  16.357   4.475  0.00  0.00    -0.283 N 
ATOM     36  H   UNL     1       8.673  15.915   5.316  0.00  0.00    +0.155 HD
ATOM     37  N   UNL     1       8.472  14.435   3.258  0.00  0.00    -0.214 NA
BRANCH   4   3
ATOM      1  C   UNL     1       7.313  10.199   3.503  0.00  0.00    +0.020 A 
ATOM      2  C   UNL     1       7.911  11.512   3.435  0.00  0.00    +0.013 A 
ATOM      3  C   UNL     1       7.797  12.321   2.228  0.00  0.00    +0.019 A 
ATOM     38  C   UNL     1       7.065  11.767   1.099  0.00  0.00    +0.120 A 
ATOM     39  N   UNL     1       6.501  10.499   1.193  0.00  0.00    -0.263 NA
ATOM     40  C   UNL     1       6.606   9.711   2.349  0.00  0.00    +0.111 A 
ENDBRANCH   4   3
ENDBRANCH  10   9
BRANCH  12  13
ATOM     13  N   UNL     1      12.934  19.293   5.476  0.00  0.00    -0.281 N 
ATOM     14  C   UNL     1      13.952  19.909   4.767  0.00  0.00    +0.248 C 
ATOM     30  O   UNL     1      13.894  20.190   3.579  0.00  0.00    -0.270 OA
ATOM     31  H   UNL     1      13.181  18.940   6.401  0.00  0.00    +0.155 HD
BRANCH  14  15
ATOM     15  C   UNL     1      15.223  20.248   5.476  0.00  0.00    +0.037 A 
ATOM     16  C   UNL     1      16.235  21.105   4.852  0.00  0.00    +0.013 A 
ATOM     17  C   UNL     1      17.460  21.402   5.551  0.00  0.00    +0.005 A 
ATOM     18  C   UNL     1      17.679  20.844   6.884  0.00  0.00    -0.033 A 
ATOM     28  C   UNL     1      16.655  20.002   7.480  0.00  0.00    +0.005 A 
ATOM     29  C   UNL     1      15.454  19.707   6.798  0.00  0.00    +0.013 A 
BRANCH  18  19
ATOM     19  C   UNL     1      18.965  21.092   7.694  0.00  0.00    +0.119 C 
BRANCH  19  20
ATOM     20  N   UNL     1      18.864  21.999   8.876  0.00  0.00    -0.302 NA
ATOM     21  C   UNL     1      17.787  23.072   8.687  0.00  0.00    +0.066 C 
ATOM     22  C   UNL     1      17.680  23.998   9.941  0.00  0.00    -0.064 C 
ATOM     23  N   UNL     1      19.041  24.640  10.216  0.00  0.00    +0.379 N 
ATOM     24  C   UNL     1      18.930  25.556  11.360  0.00  0.00    -0.096 C 
ATOM     25  H   UNL     1      19.315  25.247   9.321  0.00  0.00    -0.082 HD
ATOM     26  C   UNL     1      20.119  23.581  10.402  0.00  0.00    -0.064 C 
ATOM     27  C   UNL     1      20.197  22.647   9.162  0.00  0.00    +0.066 C 
ENDBRANCH  19  20
ENDBRANCH  18  19
ENDBRANCH  14  15
ENDBRANCH  12  13
TORSDOF 6
ENDMDL
MODEL 4
REMARK VINA RESULT:      -7.8     10.576     16.682
REMARK  Name = C:\Users\Docking\Desktop\test protocol\1iep_ligandH.pdb
REMARK  8 active torsions:
REMARK  status: ('A' for Active; 'I' for Inactive)
REMARK    1  A    between atoms: _5  and  _11
REMARK    2  A    between atoms: _19  and  _21
REMARK    3  A    between atoms: _22  and  _66
REMARK    4  A    between atoms: _27  and  _30
REMARK    5  A    between atoms: _32  and  _33
REMARK    6  A    between atoms: _38  and  _43
REMARK    7  A    between atoms: _43  and  _46
REMARK    8  A    between atoms: _53  and  _55
REMARK                            x       y       z     vdW  Elec       q    Type
REMARK                         _______ _______ _______ _____ _____    ______ ____
ROOT
ATOM     10  C   UNL     1      25.965  15.039   7.098  0.00  0.00    +0.038 A 
ATOM     11  C   UNL     1      24.939  15.789   7.726  0.00  0.00    +0.047 A 
ATOM     12  C   UNL     1      23.849  16.366   6.955  0.00  0.00    +0.035 A 
ATOM     32  C   UNL     1      23.834  16.157   5.546  0.00  0.00    +0.024 A 
ATOM     33  C   UNL     1      24.870  15.398   4.890  0.00  0.00    +0.007 A 
ATOM     34  C   UNL     1      25.949  14.828   5.645  0.00  0.00    -0.029 A 
ATOM     35  C   UNL     1      27.035  14.029   4.889  0.00  0.00    +0.045 C 
ENDROOT
BRANCH  10   9
ATOM      4  C   UNL     1      30.278  15.314   9.187  0.00  0.00    +0.077 A 
ATOM      5  C   UNL     1      30.526  16.616   8.639  0.00  0.00    +0.048 A 
ATOM      6  C   UNL     1      29.521  17.177   7.818  0.00  0.00    +0.116 A 
ATOM      7  N   UNL     1      28.359  16.479   7.572  0.00  0.00    -0.223 NA
ATOM      8  C   UNL     1      28.152  15.224   8.115  0.00  0.00    +0.220 A 
ATOM      9  N   UNL     1      26.988  14.507   7.887  0.00  0.00    -0.283 N 
ATOM     36  H   UNL     1      26.877  13.581   8.300  0.00  0.00    +0.155 HD
ATOM     37  N   UNL     1      29.097  14.666   8.901  0.00  0.00    -0.214 NA
BRANCH   4   3
ATOM      1  C   UNL     1      31.938  13.619  12.297  0.00  0.00    +0.020 A 
ATOM      2  C   UNL     1      30.974  14.322  11.483  0.00  0.00    +0.013 A 
ATOM      3  C   UNL     1      31.242  14.591  10.075  0.00  0.00    +0.019 A 
ATOM     38  C   UNL     1      32.504  14.130   9.518  0.00  0.00    +0.120 A 
ATOM     39  N   UNL     1      33.415  13.456  10.327  0.00  0.00    -0.263 NA
ATOM     40  C   UNL     1      33.168  13.194  11.682  0.00  0.00    +0.111 A 
ENDBRANCH   4   3
ENDBRANCH  10   9
BRANCH  12  13
ATOM     13  N   UNL     1      22.784  17.144   7.538  0.00  0.00    -0.281 N 
ATOM     14  C   UNL     1      21.642  16.684   8.173  0.00  0.00    +0.248 C 
ATOM     30  O   UNL     1      21.258  15.524   8.149  0.00  0.00    -0.270 OA
ATOM     31  H   UNL     1      22.883  18.158   7.473  0.00  0.00    +0.155 HD
BRANCH  14  15
ATOM     15  C   UNL     1      20.798  17.655   8.934  0.00  0.00    +0.037 A 
ATOM     16  C   UNL     1      19.502  17.261   9.492  0.00  0.00    +0.013 A 
ATOM     17  C   UNL     1      18.700  18.222  10.207  0.00  0.00    +0.005 A 
ATOM     18  C   UNL     1      19.193  19.587  10.368  0.00  0.00    -0.033 A 
ATOM     28  C   UNL     1      20.484  19.950   9.809  0.00  0.00    +0.005 A 
ATOM     29  C   UNL     1      21.273  19.011   9.107  0.00  0.00    +0.013 A 
BRANCH  18  19
ATOM     19  C   UNL     1      18.395  20.684  11.098  0.00  0.00    +0.119 C 
BRANCH  19  20
ATOM     20  N   UNL     1      18.661  22.100  10.704  0.00  0.00    -0.302 NA
ATOM     21  C   UNL     1      19.265  22.912  11.853  0.00  0.00    +0.066 C 
ATOM     22  C   UNL     1      19.558  24.384  11.417  0.00  0.00    -0.064 C 
ATOM     23  N   UNL     1      18.265  25.032  10.918  0.00  0.00    +0.379 N 
ATOM     24  C   UNL     1      18.525  26.434  10.561  0.00  0.00    -0.096 C 
ATOM     25  H   UNL     1      17.536  25.026  11.761  0.00  0.00    -0.082 HD
ATOM     26  C   UNL     1      17.656  24.229   9.777  0.00  0.00    -0.064 C 
ATOM     27  C   UNL     1      17.396  22.760  10.212  0.00  0.00    +0.066 C 
ENDBRANCH  19  20
ENDBRANCH  18  19
ENDBRANCH  14  15
ENDBRANCH  12  13
TORSDOF 6
ENDMDL
MODEL 5
REMARK VINA RESULT:      -7.8      3.286     12.154
REMARK  Name = C:\Users\Docking\Desktop\test protocol\1iep_ligandH.pdb
REMARK  8 active torsions:
REMARK  status: ('A' for Active; 'I' for Inactive)
REMARK    1  A    between atoms: _5  and  _11
REMARK    2  A    between atoms: _19  and  _21
REMARK    3  A    between atoms: _22  and  _66
REMARK    4  A    between atoms: _27  and  _30
REMARK    5  A    between atoms: _32  and  _33
REMARK    6  A    between atoms: _38  and  _43
REMARK    7  A    between atoms: _43  and  _46
REMARK    8  A    between atoms: _53  and  _55
REMARK                            x       y       z     vdW  Elec       q    Type
REMARK                         _______ _______ _______ _____ _____    ______ ____
ROOT
ATOM     10  C   UNL     1      17.255  20.069   8.129  0.00  0.00    +0.038 A 
ATOM     11  C   UNL     1      16.000  19.796   7.529  0.00  0.00    +0.047 A 
ATOM     12  C   UNL     1      14.781  20.422   8.016  0.00  0.00    +0.035 A 
ATOM     32  C   UNL     1      14.877  21.323   9.116  0.00  0.00    +0.024 A 
ATOM     33  C   UNL     1      16.145  21.611   9.740  0.00  0.00    +0.007 A 
ATOM     34  C   UNL     1      17.351  20.994   9.264  0.00  0.00    -0.029 A 
ATOM     35  C   UNL     1      18.682  21.334   9.975  0.00  0.00    +0.045 C 
ENDROOT
BRANCH  10   9
ATOM      4  C   UNL     1      20.313  16.375   7.919  0.00  0.00    +0.077 A 
ATOM      5  C   UNL     1      19.598  15.648   8.928  0.00  0.00    +0.048 A 
ATOM      6  C   UNL     1      18.452  16.263   9.480  0.00  0.00    +0.116 A 
ATOM      7  N   UNL     1      18.060  17.512   9.049  0.00  0.00    -0.223 NA
ATOM      8  C   UNL     1      18.774  18.186   8.075  0.00  0.00    +0.220 A 
ATOM      9  N   UNL     1      18.394  19.440   7.620  0.00  0.00    -0.283 N 
ATOM     36  H   UNL     1      18.952  19.907   6.906  0.00  0.00    +0.155 HD
ATOM     37  N   UNL     1      19.873  17.621   7.533  0.00  0.00    -0.214 NA
BRANCH   4   3
ATOM      1  C   UNL     1      23.931  15.047   7.247  0.00  0.00    +0.020 A 
ATOM      2  C   UNL     1      22.773  15.545   7.953  0.00  0.00    +0.013 A 
ATOM      3  C   UNL     1      21.542  15.857   7.238  0.00  0.00    +0.019 A 
ATOM     38  C   UNL     1      21.515  15.651   5.797  0.00  0.00    +0.120 A 
ATOM     39  N   UNL     1      22.646  15.171   5.145  0.00  0.00    -0.263 NA
ATOM     40  C   UNL     1      23.837  14.869   5.822  0.00  0.00    +0.111 A 
ENDBRANCH   4   3
ENDBRANCH  10   9
BRANCH  12  13
ATOM     13  N   UNL     1      13.477  20.178   7.452  0.00  0.00    -0.281 N 
ATOM     14  C   UNL     1      13.012  20.532   6.195  0.00  0.00    +0.248 C 
ATOM     30  O   UNL     1      13.583  21.305   5.440  0.00  0.00    -0.270 OA
ATOM     31  H   UNL     1      12.815  19.684   8.051  0.00  0.00    +0.155 HD
BRANCH  14  15
ATOM     15  C   UNL     1      11.721  19.954   5.714  0.00  0.00    +0.037 A 
ATOM     16  C   UNL     1      11.653  18.600   5.160  0.00  0.00    +0.013 A 
ATOM     17  C   UNL     1      10.398  18.073   4.687  0.00  0.00    +0.005 A 
ATOM     18  C   UNL     1       9.198  18.903   4.767  0.00  0.00    -0.033 A 
ATOM     28  C   UNL     1       9.292  20.241   5.325  0.00  0.00    +0.005 A 
ATOM     29  C   UNL     1      10.521  20.761   5.789  0.00  0.00    +0.013 A 
BRANCH  18  19
ATOM     19  C   UNL     1       7.820  18.431   4.266  0.00  0.00    +0.119 C 
BRANCH  19  20
ATOM     20  N   UNL     1       7.574  18.479   2.794  0.00  0.00    -0.302 NA
ATOM     21  C   UNL     1       6.352  19.332   2.443  0.00  0.00    +0.066 C 
ATOM     22  C   UNL     1       6.123  19.390   0.898  0.00  0.00    -0.064 C 
ATOM     23  N   UNL     1       5.964  17.969   0.355  0.00  0.00    +0.379 N 
ATOM     24  C   UNL     1       5.691  18.022  -1.088  0.00  0.00    -0.096 C 
ATOM     25  H   UNL     1       5.075  17.515   0.851  0.00  0.00    -0.082 HD
ATOM     26  C   UNL     1       7.174  17.112   0.702  0.00  0.00    -0.064 C 
ATOM     27  C   UNL     1       7.410  17.085   2.238  0.00  0.00    +0.066 C 
ENDBRANCH  19  20
ENDBRANCH  18  19
ENDBRANCH  14  15
ENDBRANCH  12  13
TORSDOF 6
ENDMDL
