MODEL 1
REMARK VINA RESULT:      -8.0      0.000      0.000
REMARK  Name = C:\Users\Docking\Desktop\test protocol\1iep_ligandH.pdb
REMARK  8 active torsions:
REMARK  status: ('A' for Active; 'I' for Inactive)
REMARK    1  A    between atoms: _5  and  _11
REMARK    2  A    between atoms: _19  and  _21
REMARK    3  A    between atoms: _22  and  _66
REMARK    4  A    between atoms: _27  and  _30
REMARK    5  A    between atoms: _32  and  _33
REMARK    6  A    between atoms: _38  and  _43
REMARK    7  A    between atoms: _43  and  _46
REMARK    8  A    between atoms: _53  and  _55
REMARK                            x       y       z     vdW  Elec       q    Type
REMARK                         _______ _______ _______ _____ _____    ______ ____
ROOT
ATOM     10  C   UNL     1      20.385  27.097   3.410  0.00  0.00    +0.038 A 
ATOM     11  C   UNL     1      19.007  27.069   3.746  0.00  0.00    +0.047 A 
ATOM     12  C   UNL     1      18.232  25.843   3.639  0.00  0.00    +0.035 A 
ATOM     32  C   UNL     1      18.893  24.663   3.189  0.00  0.00    +0.024 A 
ATOM     33  C   UNL     1      20.292  24.674   2.841  0.00  0.00    +0.007 A 
ATOM     34  C   UNL     1      21.061  25.881   2.942  0.00  0.00    -0.029 A 
ATOM     35  C   UNL     1      22.557  25.837   2.551  0.00  0.00    +0.045 C 
ENDROOT
BRANCH  10   9
ATOM      4  C   UNL     1      22.075  31.210   1.601  0.00  0.00    +0.077 A 
ATOM      5  C   UNL     1      21.550  30.921   0.298  0.00  0.00    +0.048 A 
ATOM      6  C   UNL     1      20.858  29.701   0.133  0.00  0.00    +0.116 A 
ATOM      7  N   UNL     1      20.707  28.841   1.199  0.00  0.00    -0.223 NA
ATOM      8  C   UNL     1      21.227  29.149   2.443  0.00  0.00    +0.220 A 
ATOM      9  N   UNL     1      21.081  28.302   3.531  0.00  0.00    -0.283 N 
ATOM     36  H   UNL     1      21.486  28.562   4.430  0.00  0.00    +0.155 HD
ATOM     37  N   UNL     1      21.894  30.307   2.626  0.00  0.00    -0.214 NA
BRANCH   4   3
ATOM      1  C   UNL     1      23.702  34.177   3.563  0.00  0.00    +0.020 A 
ATOM      2  C   UNL     1      22.964  32.964   3.295  0.00  0.00    +0.013 A 
ATOM      3  C   UNL     1      22.828  32.460   1.935  0.00  0.00    +0.019 A 
ATOM     38  C   UNL     1      23.456  33.213   0.859  0.00  0.00    +0.120 A 
ATOM     39  N   UNL     1      24.159  34.378   1.147  0.00  0.00    -0.263 NA
ATOM     40  C   UNL     1      24.296  34.874   2.452  0.00  0.00    +0.111 A 
ENDBRANCH   4   3
ENDBRANCH  10   9
BRANCH  12  13
ATOM     13  N   UNL     1      16.829  25.755   3.959  0.00  0.00    -0.281 N 
ATOM     14  C   UNL     1      15.761  25.650   3.083  0.00  0.00    +0.248 C 
ATOM     30  O   UNL     1      15.836  25.831   1.877  0.00  0.00    -0.270 OA
ATOM     31  H   UNL     1      16.594  25.773   4.951  0.00  0.00    +0.155 HD
BRANCH  14  15
ATOM     15  C   UNL     1      14.411  25.308   3.627  0.00  0.00    +0.037 A 
ATOM     16  C   UNL     1      13.222  25.314   2.771  0.00  0.00    +0.013 A 
ATOM     17  C   UNL     1      11.930  24.997   3.326  0.00  0.00    +0.005 A 
ATOM     18  C   UNL     1      11.821  24.669   4.745  0.00  0.00    -0.033 A 
ATOM     28  C   UNL     1      13.017  24.665   5.570  0.00  0.00    +0.005 A 
ATOM     29  C   UNL     1      14.285  24.976   5.031  0.00  0.00    +0.013 A 
BRANCH  18  19
ATOM     19  C   UNL     1      10.479  24.339   5.426  0.00  0.00    +0.119 C 
BRANCH  19  20
ATOM     20  N   UNL     1       9.880  25.390   6.301  0.00  0.00    -0.302 NA
ATOM     21  C   UNL     1      10.213  26.803   5.813  0.00  0.00    +0.066 C 
ATOM     22  C   UNL     1       9.559  27.890   6.726  0.00  0.00    -0.064 C 
ATOM     23  N   UNL     1      10.029  27.690   8.168  0.00  0.00    +0.379 N 
ATOM     24  C   UNL     1       9.462  28.746   9.020  0.00  0.00    -0.096 C 
ATOM     25  H   UNL     1      11.138  27.805   8.181  0.00  0.00    -0.082 HD
ATOM     26  C   UNL     1       9.704  26.287   8.661  0.00  0.00    -0.064 C 
ATOM     27  C   UNL     1      10.334  25.215   7.729  0.00  0.00    +0.066 C 
ENDBRANCH  19  20
ENDBRANCH  18  19
ENDBRANCH  14  15
ENDBRANCH  12  13
TORSDOF 6
ENDMDL
MODEL 2
REMARK VINA RESULT:      -8.0     10.007     14.642
REMARK  Name = C:\Users\Docking\Desktop\test protocol\1iep_ligandH.pdb
REMARK  8 active torsions:
REMARK  status: ('A' for Active; 'I' for Inactive)
REMARK    1  A    between atoms: _5  and  _11
REMARK    2  A    between atoms: _19  and  _21
REMARK    3  A    between atoms: _22  and  _66
REMARK    4  A    between atoms: _27  and  _30
REMARK    5  A    between atoms: _32  and  _33
REMARK    6  A    between atoms: _38  and  _43
REMARK    7  A    between atoms: _43  and  _46
REMARK    8  A    between atoms: _53  and  _55
REMARK                            x       y       z     vdW  Elec       q    Type
REMARK                         _______ _______ _______ _____ _____    ______ ____
ROOT
ATOM     10  C   UNL     1       9.368  26.051   8.458  0.00  0.00    +0.038 A 
ATOM     11  C   UNL     1       8.022  26.499   8.454  0.00  0.00    +0.047 A 
ATOM     12  C   UNL     1       7.683  27.859   8.066  0.00  0.00    +0.035 A 
ATOM     32  C   UNL     1       8.740  28.736   7.685  0.00  0.00    +0.024 A 
ATOM     33  C   UNL     1      10.113  28.298   7.685  0.00  0.00    +0.007 A 
ATOM     34  C   UNL     1      10.454  26.959   8.069  0.00  0.00    -0.029 A 
ATOM     35  C   UNL     1      11.945  26.545   8.057  0.00  0.00    +0.045 C 
ENDROOT
BRANCH  10   9
ATOM      4  C   UNL     1      10.779  22.780  11.676  0.00  0.00    +0.077 A 
ATOM      5  C   UNL     1      11.027  23.782  12.673  0.00  0.00    +0.048 A 
ATOM      6  C   UNL     1      10.785  25.127  12.315  0.00  0.00    +0.116 A 
ATOM      7  N   UNL     1      10.330  25.437  11.052  0.00  0.00    -0.223 NA
ATOM      8  C   UNL     1      10.103  24.447  10.113  0.00  0.00    +0.220 A 
ATOM      9  N   UNL     1       9.637  24.735   8.840  0.00  0.00    -0.283 N 
ATOM     36  H   UNL     1       9.489  23.977   8.174  0.00  0.00    +0.155 HD
ATOM     37  N   UNL     1      10.327  23.154  10.430  0.00  0.00    -0.214 NA
BRANCH   4   3
ATOM      1  C   UNL     1      11.087  19.275  13.383  0.00  0.00    +0.020 A 
ATOM      2  C   UNL     1      10.881  20.695  13.218  0.00  0.00    +0.013 A 
ATOM      3  C   UNL     1      10.983  21.315  11.903  0.00  0.00    +0.019 A 
ATOM     38  C   UNL     1      11.296  20.462  10.766  0.00  0.00    +0.120 A 
ATOM     39  N   UNL     1      11.491  19.097  10.956  0.00  0.00    -0.263 NA
ATOM     40  C   UNL     1      11.397  18.490  12.217  0.00  0.00    +0.111 A 
ENDBRANCH   4   3
ENDBRANCH  10   9
BRANCH  12  13
ATOM     13  N   UNL     1       6.336  28.372   8.050  0.00  0.00    -0.281 N 
ATOM     14  C   UNL     1       5.289  27.990   7.227  0.00  0.00    +0.248 C 
ATOM     30  O   UNL     1       5.412  27.294   6.230  0.00  0.00    -0.270 OA
ATOM     31  H   UNL     1       6.128  29.106   8.727  0.00  0.00    +0.155 HD
BRANCH  14  15
ATOM     15  C   UNL     1       3.907  28.461   7.550  0.00  0.00    +0.037 A 
ATOM     16  C   UNL     1       3.607  29.887   7.704  0.00  0.00    +0.013 A 
ATOM     17  C   UNL     1       2.270  30.313   8.033  0.00  0.00    +0.005 A 
ATOM     18  C   UNL     1       1.222  29.311   8.208  0.00  0.00    -0.033 A 
ATOM     28  C   UNL     1       1.546  27.904   8.044  0.00  0.00    +0.005 A 
ATOM     29  C   UNL     1       2.856  27.482   7.723  0.00  0.00    +0.013 A 
BRANCH  18  19
ATOM     19  C   UNL     1      -0.228  29.674   8.580  0.00  0.00    +0.119 C 
BRANCH  19  20
ATOM     20  N   UNL     1      -0.534  29.868  10.029  0.00  0.00    -0.302 NA
ATOM     21  C   UNL     1      -1.365  28.715  10.599  0.00  0.00    +0.066 C 
ATOM     22  C   UNL     1      -1.657  28.923  12.121  0.00  0.00    -0.064 C 
ATOM     23  N   UNL     1      -2.374  30.259  12.322  0.00  0.00    +0.379 N 
ATOM     24  C   UNL     1      -2.702  30.431  13.745  0.00  0.00    -0.096 C 
ATOM     25  H   UNL     1      -3.334  30.216  11.757  0.00  0.00    -0.082 HD
ATOM     26  C   UNL     1      -1.556  31.411  11.755  0.00  0.00    -0.064 C 
ATOM     27  C   UNL     1      -1.246  31.180  10.250  0.00  0.00    +0.066 C 
ENDBRANCH  19  20
ENDBRANCH  18  19
ENDBRANCH  14  15
ENDBRANCH  12  13
TORSDOF 6
ENDMDL
MODEL 3
REMARK VINA RESULT:      -7.7     10.041     14.601
REMARK  Name = C:\Users\Docking\Desktop\test protocol\1iep_ligandH.pdb
REMARK  8 active torsions:
REMARK  status: ('A' for Active; 'I' for Inactive)
REMARK    1  A    between atoms: _5  and  _11
REMARK    2  A    between atoms: _19  and  _21
REMARK    3  A    between atoms: _22  and  _66
REMARK    4  A    between atoms: _27  and  _30
REMARK    5  A    between atoms: _32  and  _33
REMARK    6  A    between atoms: _38  and  _43
REMARK    7  A    between atoms: _43  and  _46
REMARK    8  A    between atoms: _53  and  _55
REMARK                            x       y       z     vdW  Elec       q    Type
REMARK                         _______ _______ _______ _____ _____    ______ ____
ROOT
ATOM     10  C   UNL     1       9.410  26.125   8.529  0.00  0.00    +0.038 A 
ATOM     11  C   UNL     1       8.044  26.503   8.465  0.00  0.00    +0.047 A 
ATOM     12  C   UNL     1       7.655  27.864   8.130  0.00  0.00    +0.035 A 
ATOM     32  C   UNL     1       8.683  28.814   7.863  0.00  0.00    +0.024 A 
ATOM     33  C   UNL     1      10.076  28.448   7.925  0.00  0.00    +0.007 A 
ATOM     34  C   UNL     1      10.466  27.107   8.257  0.00  0.00    -0.029 A 
ATOM     35  C   UNL     1      11.975  26.772   8.314  0.00  0.00    +0.045 C 
ENDROOT
BRANCH  10   9
ATOM      4  C   UNL     1      10.878  22.766  11.627  0.00  0.00    +0.077 A 
ATOM      5  C   UNL     1      11.053  23.727  12.677  0.00  0.00    +0.048 A 
ATOM      6  C   UNL     1      10.761  25.077  12.377  0.00  0.00    +0.116 A 
ATOM      7  N   UNL     1      10.327  25.427  11.117  0.00  0.00    -0.223 NA
ATOM      8  C   UNL     1      10.170  24.476  10.126  0.00  0.00    +0.220 A 
ATOM      9  N   UNL     1       9.727  24.805   8.855  0.00  0.00    -0.283 N 
ATOM     36  H   UNL     1       9.631  24.074   8.150  0.00  0.00    +0.155 HD
ATOM     37  N   UNL     1      10.443  23.180  10.388  0.00  0.00    -0.214 NA
BRANCH   4   3
ATOM      1  C   UNL     1      11.069  19.149  13.105  0.00  0.00    +0.020 A 
ATOM      2  C   UNL     1      10.794  20.564  12.998  0.00  0.00    +0.013 A 
ATOM      3  C   UNL     1      11.141  21.301  11.790  0.00  0.00    +0.019 A 
ATOM     38  C   UNL     1      11.771  20.572  10.700  0.00  0.00    +0.120 A 
ATOM     39  N   UNL     1      12.026  19.211  10.831  0.00  0.00    -0.263 NA
ATOM     40  C   UNL     1      11.697  18.491  11.990  0.00  0.00    +0.111 A 
ENDBRANCH   4   3
ENDBRANCH  10   9
BRANCH  12  13
ATOM     13  N   UNL     1       6.285  28.307   8.058  0.00  0.00    -0.281 N 
ATOM     14  C   UNL     1       5.284  27.848   7.218  0.00  0.00    +0.248 C 
ATOM     30  O   UNL     1       5.471  27.129   6.248  0.00  0.00    -0.270 OA
ATOM     31  H   UNL     1       6.021  29.051   8.705  0.00  0.00    +0.155 HD
BRANCH  14  15
ATOM     15  C   UNL     1       3.872  28.259   7.486  0.00  0.00    +0.037 A 
ATOM     16  C   UNL     1       2.794  27.269   7.565  0.00  0.00    +0.013 A 
ATOM     17  C   UNL     1       1.438  27.693   7.807  0.00  0.00    +0.005 A 
ATOM     18  C   UNL     1       1.152  29.116   7.973  0.00  0.00    -0.033 A 
ATOM     28  C   UNL     1       2.241  30.076   7.895  0.00  0.00    +0.005 A 
ATOM     29  C   UNL     1       3.571  29.664   7.657  0.00  0.00    +0.013 A 
BRANCH  18  19
ATOM     19  C   UNL     1      -0.268  29.661   8.214  0.00  0.00    +0.119 C 
BRANCH  19  20
ATOM     20  N   UNL     1      -1.136  28.910   9.170  0.00  0.00    -0.302 NA
ATOM     21  C   UNL     1      -2.612  29.290   9.025  0.00  0.00    +0.066 C 
ATOM     22  C   UNL     1      -3.508  28.479  10.017  0.00  0.00    -0.064 C 
ATOM     23  N   UNL     1      -3.025  28.717  11.448  0.00  0.00    +0.379 N 
ATOM     24  C   UNL     1      -3.901  28.002  12.387  0.00  0.00    -0.096 C 
ATOM     25  H   UNL     1      -3.121  29.808  11.660  0.00  0.00    -0.082 HD
ATOM     26  C   UNL     1      -1.557  28.345  11.600  0.00  0.00    -0.064 C 
ATOM     27  C   UNL     1      -0.679  29.135  10.590  0.00  0.00    +0.066 C 
ENDBRANCH  19  20
ENDBRANCH  18  19
ENDBRANCH  14  15
ENDBRANCH  12  13
TORSDOF 6
ENDMDL
MODEL 4
REMARK VINA RESULT:      -7.5      3.017     12.295
REMARK  Name = C:\Users\Docking\Desktop\test protocol\1iep_ligandH.pdb
REMARK  8 active torsions:
REMARK  status: ('A' for Active; 'I' for Inactive)
REMARK    1  A    between atoms: _5  and  _11
REMARK    2  A    between atoms: _19  and  _21
REMARK    3  A    between atoms: _22  and  _66
REMARK    4  A    between atoms: _27  and  _30
REMARK    5  A    between atoms: _32  and  _33
REMARK    6  A    between atoms: _38  and  _43
REMARK    7  A    between atoms: _43  and  _46
REMARK    8  A    between atoms: _53  and  _55
REMARK                            x       y       z     vdW  Elec       q    Type
REMARK                         _______ _______ _______ _____ _____    ______ ____
ROOT
ATOM     10  C   UNL     1      12.634  23.814   8.073  0.00  0.00    +0.038 A 
ATOM     11  C   UNL     1      13.813  24.236   7.406  0.00  0.00    +0.047 A 
ATOM     12  C   UNL     1      15.127  23.801   7.852  0.00  0.00    +0.035 A 
ATOM     32  C   UNL     1      15.204  22.933   8.980  0.00  0.00    +0.024 A 
ATOM     33  C   UNL     1      14.017  22.495   9.670  0.00  0.00    +0.007 A 
ATOM     34  C   UNL     1      12.718  22.923   9.236  0.00  0.00    -0.029 A 
ATOM     35  C   UNL     1      11.479  22.427  10.018  0.00  0.00    +0.045 C 
ENDROOT
BRANCH  10   9
ATOM      4  C   UNL     1       9.202  27.148   7.705  0.00  0.00    +0.077 A 
ATOM      5  C   UNL     1       9.919  28.064   8.545  0.00  0.00    +0.048 A 
ATOM      6  C   UNL     1      11.164  27.636   9.057  0.00  0.00    +0.116 A 
ATOM      7  N   UNL     1      11.647  26.383   8.745  0.00  0.00    -0.223 NA
ATOM      8  C   UNL     1      10.929  25.524   7.934  0.00  0.00    +0.220 A 
ATOM      9  N   UNL     1      11.398  24.263   7.602  0.00  0.00    -0.283 N 
ATOM     36  H   UNL     1      10.835  23.656   7.006  0.00  0.00    +0.155 HD
ATOM     37  N   UNL     1       9.736  25.909   7.434  0.00  0.00    -0.214 NA
BRANCH   4   3
ATOM      1  C   UNL     1       5.500  28.305   7.191  0.00  0.00    +0.020 A 
ATOM      2  C   UNL     1       6.762  28.025   7.837  0.00  0.00    +0.013 A 
ATOM      3  C   UNL     1       7.874  27.457   7.086  0.00  0.00    +0.019 A 
ATOM     38  C   UNL     1       7.675  27.181   5.671  0.00  0.00    +0.120 A 
ATOM     39  N   UNL     1       6.448  27.459   5.076  0.00  0.00    -0.263 NA
ATOM     40  C   UNL     1       5.371  28.004   5.789  0.00  0.00    +0.111 A 
ENDBRANCH   4   3
ENDBRANCH  10   9
BRANCH  12  13
ATOM     13  N   UNL     1      16.359  24.204   7.220  0.00  0.00    -0.281 N 
ATOM     14  C   UNL     1      17.093  23.514   6.269  0.00  0.00    +0.248 C 
ATOM     30  O   UNL     1      16.912  22.342   5.973  0.00  0.00    -0.270 OA
ATOM     31  H   UNL     1      16.735  25.107   7.508  0.00  0.00    +0.155 HD
BRANCH  14  15
ATOM     15  C   UNL     1      18.197  24.224   5.554  0.00  0.00    +0.037 A 
ATOM     16  C   UNL     1      19.600  23.868   5.777  0.00  0.00    +0.013 A 
ATOM     17  C   UNL     1      20.646  24.581   5.088  0.00  0.00    +0.005 A 
ATOM     18  C   UNL     1      20.291  25.657   4.165  0.00  0.00    -0.033 A 
ATOM     28  C   UNL     1      18.891  25.986   3.958  0.00  0.00    +0.005 A 
ATOM     29  C   UNL     1      17.863  25.290   4.633  0.00  0.00    +0.013 A 
BRANCH  18  19
ATOM     19  C   UNL     1      21.342  26.485   3.402  0.00  0.00    +0.119 C 
BRANCH  19  20
ATOM     20  N   UNL     1      20.842  27.443   2.373  0.00  0.00    -0.302 NA
ATOM     21  C   UNL     1      20.863  26.838   0.966  0.00  0.00    +0.066 C 
ATOM     22  C   UNL     1      20.315  27.846  -0.096  0.00  0.00    -0.064 C 
ATOM     23  N   UNL     1      21.141  29.133  -0.047  0.00  0.00    +0.379 N 
ATOM     24  C   UNL     1      20.665  30.061  -1.084  0.00  0.00    -0.096 C 
ATOM     25  H   UNL     1      22.196  28.866  -0.290  0.00  0.00    -0.082 HD
ATOM     26  C   UNL     1      21.128  29.740   1.349  0.00  0.00    -0.064 C 
ATOM     27  C   UNL     1      21.646  28.719   2.400  0.00  0.00    +0.066 C 
ENDBRANCH  19  20
ENDBRANCH  18  19
ENDBRANCH  14  15
ENDBRANCH  12  13
TORSDOF 6
ENDMDL
MODEL 5
REMARK VINA RESULT:      -7.5      4.159     12.756
REMARK  Name = C:\Users\Docking\Desktop\test protocol\1iep_ligandH.pdb
REMARK  8 active torsions:
REMARK  status: ('A' for Active; 'I' for Inactive)
REMARK    1  A    between atoms: _5  and  _11
REMARK    2  A    between atoms: _19  and  _21
REMARK    3  A    between atoms: _22  and  _66
REMARK    4  A    between atoms: _27  and  _30
REMARK    5  A    between atoms: _32  and  _33
REMARK    6  A    between atoms: _38  and  _43
REMARK    7  A    between atoms: _43  and  _46
REMARK    8  A    between atoms: _53  and  _55
REMARK                            x       y       z     vdW  Elec       q    Type
REMARK                         _______ _______ _______ _____ _____    ______ ____
ROOT
ATOM     10  C   UNL     1      12.923  23.879   7.908  0.00  0.00    +0.038 A 
ATOM     11  C   UNL     1      14.112  24.326   7.278  0.00  0.00    +0.047 A 
ATOM     12  C   UNL     1      15.420  23.893   7.746  0.00  0.00    +0.035 A 
ATOM     32  C   UNL     1      15.479  23.001   8.856  0.00  0.00    +0.024 A 
ATOM     33  C   UNL     1      14.279  22.538   9.509  0.00  0.00    +0.007 A 
ATOM     34  C   UNL     1      12.987  22.964   9.053  0.00  0.00    -0.029 A 
ATOM     35  C   UNL     1      11.735  22.440   9.795  0.00  0.00    +0.045 C 
ENDROOT
BRANCH  10   9
ATOM      4  C   UNL     1       9.364  27.093   7.703  0.00  0.00    +0.077 A 
ATOM      5  C   UNL     1       9.993  27.939   8.676  0.00  0.00    +0.048 A 
ATOM      6  C   UNL     1      11.228  27.508   9.210  0.00  0.00    +0.116 A 
ATOM      7  N   UNL     1      11.783  26.317   8.794  0.00  0.00    -0.223 NA
ATOM      8  C   UNL     1      11.150  25.524   7.856  0.00  0.00    +0.220 A 
ATOM      9  N   UNL     1      11.694  24.327   7.417  0.00  0.00    -0.283 N 
ATOM     36  H   UNL     1      11.192  23.767   6.729  0.00  0.00    +0.155 HD
ATOM     37  N   UNL     1       9.969  25.913   7.332  0.00  0.00    -0.214 NA
BRANCH   4   3
ATOM      1  C   UNL     1       5.714  28.345   7.065  0.00  0.00    +0.020 A 
ATOM      2  C   UNL     1       6.954  28.056   7.747  0.00  0.00    +0.013 A 
ATOM      3  C   UNL     1       8.058  27.414   7.045  0.00  0.00    +0.019 A 
ATOM     38  C   UNL     1       7.874  27.075   5.642  0.00  0.00    +0.120 A 
ATOM     39  N   UNL     1       6.668  27.364   5.012  0.00  0.00    -0.263 NA
ATOM     40  C   UNL     1       5.597  27.980   5.677  0.00  0.00    +0.111 A 
ENDBRANCH   4   3
ENDBRANCH  10   9
BRANCH  12  13
ATOM     13  N   UNL     1      16.662  24.319   7.152  0.00  0.00    -0.281 N 
ATOM     14  C   UNL     1      17.554  23.564   6.408  0.00  0.00    +0.248 C 
ATOM     30  O   UNL     1      17.523  22.346   6.320  0.00  0.00    -0.270 OA
ATOM     31  H   UNL     1      16.915  25.297   7.297  0.00  0.00    +0.155 HD
BRANCH  14  15
ATOM     15  C   UNL     1      18.647  24.262   5.665  0.00  0.00    +0.037 A 
ATOM     16  C   UNL     1      18.390  25.495   4.916  0.00  0.00    +0.013 A 
ATOM     17  C   UNL     1      19.459  26.139   4.195  0.00  0.00    +0.005 A 
ATOM     18  C   UNL     1      20.796  25.551   4.220  0.00  0.00    -0.033 A 
ATOM     28  C   UNL     1      21.024  24.331   4.975  0.00  0.00    +0.005 A 
ATOM     29  C   UNL     1      19.979  23.696   5.682  0.00  0.00    +0.013 A 
BRANCH  18  19
ATOM     19  C   UNL     1      21.991  26.159   3.461  0.00  0.00    +0.119 C 
BRANCH  19  20
ATOM     20  N   UNL     1      22.395  25.501   2.183  0.00  0.00    -0.302 NA
ATOM     21  C   UNL     1      23.615  24.594   2.364  0.00  0.00    +0.066 C 
ATOM     22  C   UNL     1      24.011  23.896   1.022  0.00  0.00    -0.064 C 
ATOM     23  N   UNL     1      24.281  24.961  -0.042  0.00  0.00    +0.379 N 
ATOM     24  C   UNL     1      24.710  24.311  -1.289  0.00  0.00    -0.096 C 
ATOM     25  H   UNL     1      25.127  25.592   0.318  0.00  0.00    -0.082 HD
ATOM     26  C   UNL     1      23.074  25.870  -0.227  0.00  0.00    -0.064 C 
ATOM     27  C   UNL     1      22.672  26.535   1.119  0.00  0.00    +0.066 C 
ENDBRANCH  19  20
ENDBRANCH  18  19
ENDBRANCH  14  15
ENDBRANCH  12  13
TORSDOF 6
ENDMDL
