MODEL 1
REMARK VINA RESULT:      -8.3      0.000      0.000
REMARK  Name = C:\Users\Docking\Desktop\test protocol\1iep_ligandH.pdb
REMARK  8 active torsions:
REMARK  status: ('A' for Active; 'I' for Inactive)
REMARK    1  A    between atoms: _5  and  _11
REMARK    2  A    between atoms: _19  and  _21
REMARK    3  A    between atoms: _22  and  _66
REMARK    4  A    between atoms: _27  and  _30
REMARK    5  A    between atoms: _32  and  _33
REMARK    6  A    between atoms: _38  and  _43
REMARK    7  A    between atoms: _43  and  _46
REMARK    8  A    between atoms: _53  and  _55
REMARK                            x       y       z     vdW  Elec       q    Type
REMARK                         _______ _______ _______ _____ _____    ______ ____
ROOT
ATOM     10  C   UNL     1      20.546  26.185   3.446  0.00  0.00    +0.038 A 
ATOM     11  C   UNL     1      19.358  25.930   4.177  0.00  0.00    +0.047 A 
ATOM     12  C   UNL     1      18.663  24.657   4.061  0.00  0.00    +0.035 A 
ATOM     32  C   UNL     1      19.207  23.666   3.193  0.00  0.00    +0.024 A 
ATOM     33  C   UNL     1      20.413  23.910   2.442  0.00  0.00    +0.007 A 
ATOM     34  C   UNL     1      21.102  25.164   2.550  0.00  0.00    -0.029 A 
ATOM     35  C   UNL     1      22.388  25.372   1.716  0.00  0.00    +0.045 C 
ENDROOT
BRANCH  10   9
ATOM      4  C   UNL     1      21.702  30.563   1.852  0.00  0.00    +0.077 A 
ATOM      5  C   UNL     1      21.022  30.353   0.606  0.00  0.00    +0.048 A 
ATOM      6  C   UNL     1      20.394  29.103   0.412  0.00  0.00    +0.116 A 
ATOM      7  N   UNL     1      20.448  28.141   1.397  0.00  0.00    -0.223 NA
ATOM      8  C   UNL     1      21.113  28.374   2.587  0.00  0.00    +0.220 A 
ATOM      9  N   UNL     1      21.173  27.424   3.595  0.00  0.00    -0.283 N 
ATOM     36  H   UNL     1      21.681  27.633   4.454  0.00  0.00    +0.155 HD
ATOM     37  N   UNL     1      21.723  29.560   2.796  0.00  0.00    -0.214 NA
BRANCH   4   3
ATOM      1  C   UNL     1      24.031  33.175   3.599  0.00  0.00    +0.020 A 
ATOM      2  C   UNL     1      23.374  31.924   3.297  0.00  0.00    +0.013 A 
ATOM      3  C   UNL     1      22.411  31.833   2.207  0.00  0.00    +0.019 A 
ATOM     38  C   UNL     1      22.135  33.034   1.434  0.00  0.00    +0.120 A 
ATOM     39  N   UNL     1      22.782  34.225   1.748  0.00  0.00    -0.263 NA
ATOM     40  C   UNL     1      23.709  34.326   2.796  0.00  0.00    +0.111 A 
ENDBRANCH   4   3
ENDBRANCH  10   9
BRANCH  12  13
ATOM     13  N   UNL     1      17.448  24.344   4.773  0.00  0.00    -0.281 N 
ATOM     14  C   UNL     1      17.313  23.634   5.955  0.00  0.00    +0.248 C 
ATOM     30  O   UNL     1      18.203  22.975   6.471  0.00  0.00    -0.270 OA
ATOM     31  H   UNL     1      16.584  24.686   4.354  0.00  0.00    +0.155 HD
BRANCH  14  15
ATOM     15  C   UNL     1      15.994  23.648   6.658  0.00  0.00    +0.037 A 
ATOM     16  C   UNL     1      14.737  23.515   5.917  0.00  0.00    +0.013 A 
ATOM     17  C   UNL     1      13.477  23.549   6.618  0.00  0.00    +0.005 A 
ATOM     18  C   UNL     1      13.470  23.714   8.070  0.00  0.00    -0.033 A 
ATOM     28  C   UNL     1      14.732  23.838   8.780  0.00  0.00    +0.005 A 
ATOM     29  C   UNL     1      15.968  23.807   8.096  0.00  0.00    +0.013 A 
BRANCH  18  19
ATOM     19  C   UNL     1      12.172  23.782   8.897  0.00  0.00    +0.119 C 
BRANCH  19  20
ATOM     20  N   UNL     1      11.172  24.823   8.516  0.00  0.00    -0.302 NA
ATOM     21  C   UNL     1      11.624  26.229   8.923  0.00  0.00    +0.066 C 
ATOM     22  C   UNL     1      10.577  27.309   8.497  0.00  0.00    -0.064 C 
ATOM     23  N   UNL     1       9.221  26.974   9.121  0.00  0.00    +0.379 N 
ATOM     24  C   UNL     1       8.248  28.019   8.770  0.00  0.00    -0.096 C 
ATOM     25  H   UNL     1       9.346  26.987  10.228  0.00  0.00    -0.082 HD
ATOM     26  C   UNL     1       8.765  25.577   8.724  0.00  0.00    -0.064 C 
ATOM     27  C   UNL     1       9.827  24.515   9.125  0.00  0.00    +0.066 C 
ENDBRANCH  19  20
ENDBRANCH  18  19
ENDBRANCH  14  15
ENDBRANCH  12  13
TORSDOF 6
ENDMDL
MODEL 2
REMARK VINA RESULT:      -8.3      3.651     13.043
REMARK  Name = C:\Users\Docking\Desktop\test protocol\1iep_ligandH.pdb
REMARK  8 active torsions:
REMARK  status: ('A' for Active; 'I' for Inactive)
REMARK    1  A    between atoms: _5  and  _11
REMARK    2  A    between atoms: _19  and  _21
REMARK    3  A    between atoms: _22  and  _66
REMARK    4  A    between atoms: _27  and  _30
REMARK    5  A    between atoms: _32  and  _33
REMARK    6  A    between atoms: _38  and  _43
REMARK    7  A    between atoms: _43  and  _46
REMARK    8  A    between atoms: _53  and  _55
REMARK                            x       y       z     vdW  Elec       q    Type
REMARK                         _______ _______ _______ _____ _____    ______ ____
ROOT
ATOM     10  C   UNL     1      19.262  26.502   2.859  0.00  0.00    +0.038 A 
ATOM     11  C   UNL     1      20.041  27.661   3.106  0.00  0.00    +0.047 A 
ATOM     12  C   UNL     1      20.925  28.205   2.087  0.00  0.00    +0.035 A 
ATOM     32  C   UNL     1      20.989  27.545   0.825  0.00  0.00    +0.024 A 
ATOM     33  C   UNL     1      20.205  26.365   0.557  0.00  0.00    +0.007 A 
ATOM     34  C   UNL     1      19.333  25.822   1.560  0.00  0.00    -0.029 A 
ATOM     35  C   UNL     1      18.521  24.551   1.219  0.00  0.00    +0.045 C 
ENDROOT
BRANCH  10   9
ATOM      4  C   UNL     1      18.262  23.446   6.422  0.00  0.00    +0.077 A 
ATOM      5  C   UNL     1      19.489  22.727   6.229  0.00  0.00    +0.048 A 
ATOM      6  C   UNL     1      20.346  23.171   5.197  0.00  0.00    +0.116 A 
ATOM      7  N   UNL     1      19.993  24.255   4.423  0.00  0.00    -0.223 NA
ATOM      8  C   UNL     1      18.802  24.925   4.635  0.00  0.00    +0.220 A 
ATOM      9  N   UNL     1      18.430  26.022   3.873  0.00  0.00    -0.283 N 
ATOM     36  H   UNL     1      17.540  26.485   4.056  0.00  0.00    +0.155 HD
ATOM     37  N   UNL     1      17.966  24.519   5.613  0.00  0.00    -0.214 NA
BRANCH   4   3
ATOM      1  C   UNL     1      16.275  21.553   9.210  0.00  0.00    +0.020 A 
ATOM      2  C   UNL     1      17.272  21.838   8.203  0.00  0.00    +0.013 A 
ATOM      3  C   UNL     1      17.254  23.100   7.474  0.00  0.00    +0.019 A 
ATOM     38  C   UNL     1      16.207  24.059   7.790  0.00  0.00    +0.120 A 
ATOM     39  N   UNL     1      15.260  23.757   8.763  0.00  0.00    -0.263 NA
ATOM     40  C   UNL     1      15.266  22.545   9.470  0.00  0.00    +0.111 A 
ENDBRANCH   4   3
ENDBRANCH  10   9
BRANCH  12  13
ATOM     13  N   UNL     1      21.745  29.374   2.283  0.00  0.00    -0.281 N 
ATOM     14  C   UNL     1      21.694  30.576   1.596  0.00  0.00    +0.248 C 
ATOM     30  O   UNL     1      21.072  30.754   0.560  0.00  0.00    -0.270 OA
ATOM     31  H   UNL     1      22.450  29.308   3.018  0.00  0.00    +0.155 HD
BRANCH  14  15
ATOM     15  C   UNL     1      22.454  31.747   2.131  0.00  0.00    +0.037 A 
ATOM     16  C   UNL     1      23.087  31.703   3.452  0.00  0.00    +0.013 A 
ATOM     17  C   UNL     1      23.800  32.852   3.950  0.00  0.00    +0.005 A 
ATOM     18  C   UNL     1      23.886  34.055   3.126  0.00  0.00    -0.033 A 
ATOM     28  C   UNL     1      23.253  34.069   1.817  0.00  0.00    +0.005 A 
ATOM     29  C   UNL     1      22.553  32.945   1.326  0.00  0.00    +0.013 A 
BRANCH  18  19
ATOM     19  C   UNL     1      24.609  35.335   3.587  0.00  0.00    +0.119 C 
BRANCH  19  20
ATOM     20  N   UNL     1      24.776  36.425   2.580  0.00  0.00    -0.302 NA
ATOM     21  C   UNL     1      26.027  36.226   1.720  0.00  0.00    +0.066 C 
ATOM     22  C   UNL     1      26.174  37.364   0.658  0.00  0.00    -0.064 C 
ATOM     23  N   UNL     1      26.215  38.718   1.368  0.00  0.00    +0.379 N 
ATOM     24  C   UNL     1      26.411  39.786   0.376  0.00  0.00    -0.096 C 
ATOM     25  H   UNL     1      27.100  38.718   2.045  0.00  0.00    -0.082 HD
ATOM     26  C   UNL     1      24.976  38.923   2.228  0.00  0.00    -0.064 C 
ATOM     27  C   UNL     1      24.823  37.772   3.260  0.00  0.00    +0.066 C 
ENDBRANCH  19  20
ENDBRANCH  18  19
ENDBRANCH  14  15
ENDBRANCH  12  13
TORSDOF 6
ENDMDL
MODEL 3
REMARK VINA RESULT:      -8.3      1.918      2.321
REMARK  Name = C:\Users\Docking\Desktop\test protocol\1iep_ligandH.pdb
REMARK  8 active torsions:
REMARK  status: ('A' for Active; 'I' for Inactive)
REMARK    1  A    between atoms: _5  and  _11
REMARK    2  A    between atoms: _19  and  _21
REMARK    3  A    between atoms: _22  and  _66
REMARK    4  A    between atoms: _27  and  _30
REMARK    5  A    between atoms: _32  and  _33
REMARK    6  A    between atoms: _38  and  _43
REMARK    7  A    between atoms: _43  and  _46
REMARK    8  A    between atoms: _53  and  _55
REMARK                            x       y       z     vdW  Elec       q    Type
REMARK                         _______ _______ _______ _____ _____    ______ ____
ROOT
ATOM     10  C   UNL     1      20.248  26.327   3.696  0.00  0.00    +0.038 A 
ATOM     11  C   UNL     1      18.876  26.328   4.054  0.00  0.00    +0.047 A 
ATOM     12  C   UNL     1      18.082  25.110   3.999  0.00  0.00    +0.035 A 
ATOM     32  C   UNL     1      18.720  23.908   3.576  0.00  0.00    +0.024 A 
ATOM     33  C   UNL     1      20.113  23.888   3.207  0.00  0.00    +0.007 A 
ATOM     34  C   UNL     1      20.900  25.087   3.257  0.00  0.00    -0.029 A 
ATOM     35  C   UNL     1      22.389  25.009   2.844  0.00  0.00    +0.045 C 
ENDROOT
BRANCH  10   9
ATOM      4  C   UNL     1      21.839  30.428   1.775  0.00  0.00    +0.077 A 
ATOM      5  C   UNL     1      21.216  30.148   0.514  0.00  0.00    +0.048 A 
ATOM      6  C   UNL     1      20.502  28.934   0.398  0.00  0.00    +0.116 A 
ATOM      7  N   UNL     1      20.423  28.073   1.471  0.00  0.00    -0.223 NA
ATOM      8  C   UNL     1      21.036  28.373   2.673  0.00  0.00    +0.220 A 
ATOM      9  N   UNL     1      20.963  27.525   3.767  0.00  0.00    -0.283 N 
ATOM     36  H   UNL     1      21.435  27.779   4.635  0.00  0.00    +0.155 HD
ATOM     37  N   UNL     1      21.725  29.525   2.809  0.00  0.00    -0.214 NA
BRANCH   4   3
ATOM      1  C   UNL     1      23.739  33.309   3.617  0.00  0.00    +0.020 A 
ATOM      2  C   UNL     1      22.977  32.100   3.402  0.00  0.00    +0.013 A 
ATOM      3  C   UNL     1      22.625  31.671   2.054  0.00  0.00    +0.019 A 
ATOM     38  C   UNL     1      23.064  32.493   0.937  0.00  0.00    +0.120 A 
ATOM     39  N   UNL     1      23.796  33.653   1.174  0.00  0.00    -0.263 NA
ATOM     40  C   UNL     1      24.138  34.077   2.467  0.00  0.00    +0.111 A 
ENDBRANCH   4   3
ENDBRANCH  10   9
BRANCH  12  13
ATOM     13  N   UNL     1      16.683  25.053   4.343  0.00  0.00    -0.281 N 
ATOM     14  C   UNL     1      15.623  24.673   3.537  0.00  0.00    +0.248 C 
ATOM     30  O   UNL     1      15.693  24.528   2.325  0.00  0.00    -0.270 OA
ATOM     31  H   UNL     1      16.446  25.325   5.297  0.00  0.00    +0.155 HD
BRANCH  14  15
ATOM     15  C   UNL     1      14.288  24.432   4.165  0.00  0.00    +0.037 A 
ATOM     16  C   UNL     1      14.018  23.214   4.933  0.00  0.00    +0.013 A 
ATOM     17  C   UNL     1      12.716  23.000   5.514  0.00  0.00    +0.005 A 
ATOM     18  C   UNL     1      11.675  24.008   5.330  0.00  0.00    -0.033 A 
ATOM     28  C   UNL     1      11.972  25.209   4.568  0.00  0.00    +0.005 A 
ATOM     29  C   UNL     1      13.246  25.423   3.996  0.00  0.00    +0.013 A 
BRANCH  18  19
ATOM     19  C   UNL     1      10.251  23.852   5.897  0.00  0.00    +0.119 C 
BRANCH  19  20
ATOM     20  N   UNL     1      10.063  24.116   7.354  0.00  0.00    -0.302 NA
ATOM     21  C   UNL     1      11.085  25.121   7.893  0.00  0.00    +0.066 C 
ATOM     22  C   UNL     1      10.859  25.402   9.414  0.00  0.00    -0.064 C 
ATOM     23  N   UNL     1      10.933  24.086  10.190  0.00  0.00    +0.379 N 
ATOM     24  C   UNL     1      10.779  24.354  11.627  0.00  0.00    -0.096 C 
ATOM     25  H   UNL     1      11.950  23.658  10.033  0.00  0.00    -0.082 HD
ATOM     26  C   UNL     1       9.922  23.080   9.659  0.00  0.00    -0.064 C 
ATOM     27  C   UNL     1      10.136  22.830   8.140  0.00  0.00    +0.066 C 
ENDBRANCH  19  20
ENDBRANCH  18  19
ENDBRANCH  14  15
ENDBRANCH  12  13
TORSDOF 6
ENDMDL
MODEL 4
REMARK VINA RESULT:      -8.2      2.409     12.219
REMARK  Name = C:\Users\Docking\Desktop\test protocol\1iep_ligandH.pdb
REMARK  8 active torsions:
REMARK  status: ('A' for Active; 'I' for Inactive)
REMARK    1  A    between atoms: _5  and  _11
REMARK    2  A    between atoms: _19  and  _21
REMARK    3  A    between atoms: _22  and  _66
REMARK    4  A    between atoms: _27  and  _30
REMARK    5  A    between atoms: _32  and  _33
REMARK    6  A    between atoms: _38  and  _43
REMARK    7  A    between atoms: _43  and  _46
REMARK    8  A    between atoms: _53  and  _55
REMARK                            x       y       z     vdW  Elec       q    Type
REMARK                         _______ _______ _______ _____ _____    ______ ____
ROOT
ATOM     10  C   UNL     1      12.033  24.312   8.416  0.00  0.00    +0.038 A 
ATOM     11  C   UNL     1      13.248  24.447   7.698  0.00  0.00    +0.047 A 
ATOM     12  C   UNL     1      14.527  24.142   8.319  0.00  0.00    +0.035 A 
ATOM     32  C   UNL     1      14.532  23.700   9.674  0.00  0.00    +0.024 A 
ATOM     33  C   UNL     1      13.306  23.559  10.420  0.00  0.00    +0.007 A 
ATOM     34  C   UNL     1      12.041  23.860   9.813  0.00  0.00    -0.029 A 
ATOM     35  C   UNL     1      10.759  23.697  10.661  0.00  0.00    +0.045 C 
ENDROOT
BRANCH  10   9
ATOM      4  C   UNL     1       8.475  27.337   7.305  0.00  0.00    +0.077 A 
ATOM      5  C   UNL     1       9.041  28.388   8.101  0.00  0.00    +0.048 A 
ATOM      6  C   UNL     1      10.244  28.107   8.786  0.00  0.00    +0.116 A 
ATOM      7  N   UNL     1      10.830  26.865   8.676  0.00  0.00    -0.223 NA
ATOM      8  C   UNL     1      10.257  25.873   7.901  0.00  0.00    +0.220 A 
ATOM      9  N   UNL     1      10.833  24.618   7.770  0.00  0.00    -0.283 N 
ATOM     36  H   UNL     1      10.376  23.911   7.194  0.00  0.00    +0.155 HD
ATOM     37  N   UNL     1       9.108  26.115   7.238  0.00  0.00    -0.214 NA
BRANCH   4   3
ATOM      1  C   UNL     1       4.723  27.868   6.335  0.00  0.00    +0.020 A 
ATOM      2  C   UNL     1       5.916  27.737   7.140  0.00  0.00    +0.013 A 
ATOM      3  C   UNL     1       7.209  27.481   6.519  0.00  0.00    +0.019 A 
ATOM     38  C   UNL     1       7.262  27.363   5.069  0.00  0.00    +0.120 A 
ATOM     39  N   UNL     1       6.097  27.493   4.320  0.00  0.00    -0.263 NA
ATOM     40  C   UNL     1       4.846  27.737   4.907  0.00  0.00    +0.111 A 
ENDBRANCH   4   3
ENDBRANCH  10   9
BRANCH  12  13
ATOM     13  N   UNL     1      15.794  24.268   7.642  0.00  0.00    -0.281 N 
ATOM     14  C   UNL     1      16.522  23.275   7.006  0.00  0.00    +0.248 C 
ATOM     30  O   UNL     1      16.295  22.079   7.108  0.00  0.00    -0.270 OA
ATOM     31  H   UNL     1      16.205  25.201   7.631  0.00  0.00    +0.155 HD
BRANCH  14  15
ATOM     15  C   UNL     1      17.678  23.667   6.144  0.00  0.00    +0.037 A 
ATOM     16  C   UNL     1      19.011  23.096   6.353  0.00  0.00    +0.013 A 
ATOM     17  C   UNL     1      20.112  23.505   5.518  0.00  0.00    +0.005 A 
ATOM     18  C   UNL     1      19.884  24.490   4.464  0.00  0.00    -0.033 A 
ATOM     28  C   UNL     1      18.551  25.037   4.274  0.00  0.00    +0.005 A 
ATOM     29  C   UNL     1      17.469  24.640   5.092  0.00  0.00    +0.013 A 
BRANCH  18  19
ATOM     19  C   UNL     1      21.006  25.000   3.539  0.00  0.00    +0.119 C 
BRANCH  19  20
ATOM     20  N   UNL     1      20.683  26.151   2.644  0.00  0.00    -0.302 NA
ATOM     21  C   UNL     1      21.329  26.004   1.264  0.00  0.00    +0.066 C 
ATOM     22  C   UNL     1      20.963  27.206   0.333  0.00  0.00    -0.064 C 
ATOM     23  N   UNL     1      21.398  28.513   0.998  0.00  0.00    +0.379 N 
ATOM     24  C   UNL     1      21.108  29.641   0.100  0.00  0.00    -0.096 C 
ATOM     25  H   UNL     1      22.503  28.469   1.139  0.00  0.00    -0.082 HD
ATOM     26  C   UNL     1      20.763  28.666   2.373  0.00  0.00    -0.064 C 
ATOM     27  C   UNL     1      21.109  27.452   3.280  0.00  0.00    +0.066 C 
ENDBRANCH  19  20
ENDBRANCH  18  19
ENDBRANCH  14  15
ENDBRANCH  12  13
TORSDOF 6
ENDMDL
MODEL 5
REMARK VINA RESULT:      -8.1      1.482      2.223
REMARK  Name = C:\Users\Docking\Desktop\test protocol\1iep_ligandH.pdb
REMARK  8 active torsions:
REMARK  status: ('A' for Active; 'I' for Inactive)
REMARK    1  A    between atoms: _5  and  _11
REMARK    2  A    between atoms: _19  and  _21
REMARK    3  A    between atoms: _22  and  _66
REMARK    4  A    between atoms: _27  and  _30
REMARK    5  A    between atoms: _32  and  _33
REMARK    6  A    between atoms: _38  and  _43
REMARK    7  A    between atoms: _43  and  _46
REMARK    8  A    between atoms: _53  and  _55
REMARK                            x       y       z     vdW  Elec       q    Type
REMARK                         _______ _______ _______ _____ _____    ______ ____
ROOT
ATOM     10  C   UNL     1      20.539  26.216   3.472  0.00  0.00    +0.038 A 
ATOM     11  C   UNL     1      19.324  26.053   4.184  0.00  0.00    +0.047 A 
ATOM     12  C   UNL     1      18.565  24.815   4.104  0.00  0.00    +0.035 A 
ATOM     32  C   UNL     1      19.075  23.761   3.290  0.00  0.00    +0.024 A 
ATOM     33  C   UNL     1      20.308  23.910   2.558  0.00  0.00    +0.007 A 
ATOM     34  C   UNL     1      21.060  25.131   2.632  0.00  0.00    -0.029 A 
ATOM     35  C   UNL     1      22.372  25.237   1.821  0.00  0.00    +0.045 C 
ENDROOT
BRANCH  10   9
ATOM      4  C   UNL     1      21.842  30.518   1.788  0.00  0.00    +0.077 A 
ATOM      5  C   UNL     1      21.113  30.327   0.568  0.00  0.00    +0.048 A 
ATOM      6  C   UNL     1      20.421  29.105   0.409  0.00  0.00    +0.116 A 
ATOM      7  N   UNL     1      20.463  28.152   1.404  0.00  0.00    -0.223 NA
ATOM      8  C   UNL     1      21.178  28.367   2.568  0.00  0.00    +0.220 A 
ATOM      9  N   UNL     1      21.227  27.426   3.585  0.00  0.00    -0.283 N 
ATOM     36  H   UNL     1      21.771  27.620   4.425  0.00  0.00    +0.155 HD
ATOM     37  N   UNL     1      21.847  29.526   2.743  0.00  0.00    -0.214 NA
BRANCH   4   3
ATOM      1  C   UNL     1      23.695  33.372   3.718  0.00  0.00    +0.020 A 
ATOM      2  C   UNL     1      22.940  32.166   3.467  0.00  0.00    +0.013 A 
ATOM      3  C   UNL     1      22.620  31.757   2.105  0.00  0.00    +0.019 A 
ATOM     38  C   UNL     1      23.083  32.597   1.011  0.00  0.00    +0.120 A 
ATOM     39  N   UNL     1      23.807  33.754   1.283  0.00  0.00    -0.263 NA
ATOM     40  C   UNL     1      24.119  34.158   2.590  0.00  0.00    +0.111 A 
ENDBRANCH   4   3
ENDBRANCH  10   9
BRANCH  12  13
ATOM     13  N   UNL     1      17.320  24.594   4.798  0.00  0.00    -0.281 N 
ATOM     14  C   UNL     1      17.084  23.759   5.878  0.00  0.00    +0.248 C 
ATOM     30  O   UNL     1      17.865  22.909   6.278  0.00  0.00    -0.270 OA
ATOM     31  H   UNL     1      16.516  25.117   4.451  0.00  0.00    +0.155 HD
BRANCH  14  15
ATOM     15  C   UNL     1      15.786  23.876   6.610  0.00  0.00    +0.037 A 
ATOM     16  C   UNL     1      14.507  23.874   5.895  0.00  0.00    +0.013 A 
ATOM     17  C   UNL     1      13.271  24.005   6.624  0.00  0.00    +0.005 A 
ATOM     18  C   UNL     1      13.308  24.138   8.079  0.00  0.00    -0.033 A 
ATOM     28  C   UNL     1      14.590  24.132   8.763  0.00  0.00    +0.005 A 
ATOM     29  C   UNL     1      15.804  24.005   8.052  0.00  0.00    +0.013 A 
BRANCH  18  19
ATOM     19  C   UNL     1      12.039  24.304   8.936  0.00  0.00    +0.119 C 
BRANCH  19  20
ATOM     20  N   UNL     1      11.297  23.063   9.307  0.00  0.00    -0.302 NA
ATOM     21  C   UNL     1       9.881  23.043   8.723  0.00  0.00    +0.066 C 
ATOM     22  C   UNL     1       9.128  21.727   9.102  0.00  0.00    -0.064 C 
ATOM     23  N   UNL     1       9.088  21.586  10.625  0.00  0.00    +0.379 N 
ATOM     24  C   UNL     1       8.329  20.380  10.986  0.00  0.00    -0.096 C 
ATOM     25  H   UNL     1       8.537  22.466  11.031  0.00  0.00    -0.082 HD
ATOM     26  C   UNL     1      10.491  21.607  11.214  0.00  0.00    -0.064 C 
ATOM     27  C   UNL     1      11.242  22.906  10.807  0.00  0.00    +0.066 C 
ENDBRANCH  19  20
ENDBRANCH  18  19
ENDBRANCH  14  15
ENDBRANCH  12  13
TORSDOF 6
ENDMDL
