MODEL 1
REMARK VINA RESULT:      -8.5      0.000      0.000
REMARK  Name = C:\Users\Docking\Desktop\test protocol\1iep_ligandH.pdb
REMARK  8 active torsions:
REMARK  status: ('A' for Active; 'I' for Inactive)
REMARK    1  A    between atoms: _5  and  _11
REMARK    2  A    between atoms: _19  and  _21
REMARK    3  A    between atoms: _22  and  _66
REMARK    4  A    between atoms: _27  and  _30
REMARK    5  A    between atoms: _32  and  _33
REMARK    6  A    between atoms: _38  and  _43
REMARK    7  A    between atoms: _43  and  _46
REMARK    8  A    between atoms: _53  and  _55
REMARK                            x       y       z     vdW  Elec       q    Type
REMARK                         _______ _______ _______ _____ _____    ______ ____
ROOT
ATOM     10  C   UNL     1      27.131  37.107   0.362  0.00  0.00    +0.038 A 
ATOM     11  C   UNL     1      27.204  35.711   0.122  0.00  0.00    +0.047 A 
ATOM     12  C   UNL     1      27.399  35.188  -1.222  0.00  0.00    +0.035 A 
ATOM     32  C   UNL     1      27.517  36.115  -2.297  0.00  0.00    +0.024 A 
ATOM     33  C   UNL     1      27.443  37.538  -2.072  0.00  0.00    +0.007 A 
ATOM     34  C   UNL     1      27.249  38.060  -0.749  0.00  0.00    -0.029 A 
ATOM     35  C   UNL     1      27.172  39.593  -0.567  0.00  0.00    +0.045 C 
ENDROOT
BRANCH  10   9
ATOM      4  C   UNL     1      25.265  36.659   4.761  0.00  0.00    +0.077 A 
ATOM      5  C   UNL     1      24.585  35.445   4.413  0.00  0.00    +0.048 A 
ATOM      6  C   UNL     1      24.735  34.973   3.090  0.00  0.00    +0.116 A 
ATOM      7  N   UNL     1      25.511  35.672   2.190  0.00  0.00    -0.223 NA
ATOM      8  C   UNL     1      26.152  36.840   2.558  0.00  0.00    +0.220 A 
ATOM      9  N   UNL     1      26.943  37.555   1.671  0.00  0.00    -0.283 N 
ATOM     36  H   UNL     1      27.394  38.416   1.979  0.00  0.00    +0.155 HD
ATOM     37  N   UNL     1      26.023  37.312   3.815  0.00  0.00    -0.214 NA
BRANCH   4   3
ATOM      1  C   UNL     1      24.605  37.252   8.571  0.00  0.00    +0.020 A 
ATOM      2  C   UNL     1      24.636  36.606   7.279  0.00  0.00    +0.013 A 
ATOM      3  C   UNL     1      25.207  37.282   6.121  0.00  0.00    +0.019 A 
ATOM     38  C   UNL     1      25.742  38.623   6.306  0.00  0.00    +0.120 A 
ATOM     39  N   UNL     1      25.696  39.221   7.561  0.00  0.00    -0.263 NA
ATOM     40  C   UNL     1      25.148  38.580   8.682  0.00  0.00    +0.111 A 
ENDBRANCH   4   3
ENDBRANCH  10   9
BRANCH  12  13
ATOM     13  N   UNL     1      27.473  33.781  -1.527  0.00  0.00    -0.281 N 
ATOM     14  C   UNL     1      26.498  32.981  -2.102  0.00  0.00    +0.248 C 
ATOM     30  O   UNL     1      25.330  33.311  -2.245  0.00  0.00    -0.270 OA
ATOM     31  H   UNL     1      28.351  33.318  -1.291  0.00  0.00    +0.155 HD
BRANCH  14  15
ATOM     15  C   UNL     1      26.872  31.613  -2.572  0.00  0.00    +0.037 A 
ATOM     16  C   UNL     1      28.101  30.960  -2.113  0.00  0.00    +0.013 A 
ATOM     17  C   UNL     1      28.446  29.647  -2.595  0.00  0.00    +0.005 A 
ATOM     18  C   UNL     1      27.559  28.975  -3.542  0.00  0.00    -0.033 A 
ATOM     28  C   UNL     1      26.343  29.643  -3.977  0.00  0.00    +0.005 A 
ATOM     29  C   UNL     1      26.002  30.931  -3.507  0.00  0.00    +0.013 A 
BRANCH  18  19
ATOM     19  C   UNL     1      27.858  27.582  -4.125  0.00  0.00    +0.119 C 
BRANCH  19  20
ATOM     20  N   UNL     1      27.729  26.413  -3.205  0.00  0.00    -0.302 NA
ATOM     21  C   UNL     1      28.792  25.345  -3.480  0.00  0.00    +0.066 C 
ATOM     22  C   UNL     1      28.656  24.140  -2.493  0.00  0.00    -0.064 C 
ATOM     23  N   UNL     1      27.251  23.547  -2.607  0.00  0.00    +0.379 N 
ATOM     24  C   UNL     1      27.138  22.378  -1.723  0.00  0.00    -0.096 C 
ATOM     25  H   UNL     1      27.117  23.193  -3.655  0.00  0.00    -0.082 HD
ATOM     26  C   UNL     1      26.188  24.603  -2.337  0.00  0.00    -0.064 C 
ATOM     27  C   UNL     1      26.350  25.810  -3.304  0.00  0.00    +0.066 C 
ENDBRANCH  19  20
ENDBRANCH  18  19
ENDBRANCH  14  15
ENDBRANCH  12  13
TORSDOF 6
ENDMDL
MODEL 2
REMARK VINA RESULT:      -8.4     12.454     15.618
REMARK  Name = C:\Users\Docking\Desktop\test protocol\1iep_ligandH.pdb
REMARK  8 active torsions:
REMARK  status: ('A' for Active; 'I' for Inactive)
REMARK    1  A    between atoms: _5  and  _11
REMARK    2  A    between atoms: _19  and  _21
REMARK    3  A    between atoms: _22  and  _66
REMARK    4  A    between atoms: _27  and  _30
REMARK    5  A    between atoms: _32  and  _33
REMARK    6  A    between atoms: _38  and  _43
REMARK    7  A    between atoms: _43  and  _46
REMARK    8  A    between atoms: _53  and  _55
REMARK                            x       y       z     vdW  Elec       q    Type
REMARK                         _______ _______ _______ _____ _____    ______ ____
ROOT
ATOM     10  C   UNL     1      20.615  25.686   4.107  0.00  0.00    +0.038 A 
ATOM     11  C   UNL     1      19.296  25.481   4.588  0.00  0.00    +0.047 A 
ATOM     12  C   UNL     1      18.699  24.154   4.603  0.00  0.00    +0.035 A 
ATOM     32  C   UNL     1      19.474  23.059   4.123  0.00  0.00    +0.024 A 
ATOM     33  C   UNL     1      20.815  23.249   3.630  0.00  0.00    +0.007 A 
ATOM     34  C   UNL     1      21.409  24.556   3.610  0.00  0.00    -0.029 A 
ATOM     35  C   UNL     1      22.848  24.702   3.064  0.00  0.00    +0.045 C 
ENDROOT
BRANCH  10   9
ATOM      4  C   UNL     1      21.742  29.810   1.925  0.00  0.00    +0.077 A 
ATOM      5  C   UNL     1      21.272  29.335   0.655  0.00  0.00    +0.048 A 
ATOM      6  C   UNL     1      20.754  28.021   0.605  0.00  0.00    +0.116 A 
ATOM      7  N   UNL     1      20.713  27.249   1.746  0.00  0.00    -0.223 NA
ATOM      8  C   UNL     1      21.177  27.737   2.954  0.00  0.00    +0.220 A 
ATOM      9  N   UNL     1      21.139  26.980   4.115  0.00  0.00    -0.283 N 
ATOM     36  H   UNL     1      21.497  27.374   4.985  0.00  0.00    +0.155 HD
ATOM     37  N   UNL     1      21.677  28.988   3.028  0.00  0.00    -0.214 NA
BRANCH   4   3
ATOM      1  C   UNL     1      23.864  33.072   1.533  0.00  0.00    +0.020 A 
ATOM      2  C   UNL     1      23.346  31.747   1.283  0.00  0.00    +0.013 A 
ATOM      3  C   UNL     1      22.314  31.176   2.139  0.00  0.00    +0.019 A 
ATOM     38  C   UNL     1      21.824  31.979   3.249  0.00  0.00    +0.120 A 
ATOM     39  N   UNL     1      22.343  33.252   3.467  0.00  0.00    -0.263 NA
ATOM     40  C   UNL     1      23.337  33.811   2.650  0.00  0.00    +0.111 A 
ENDBRANCH   4   3
ENDBRANCH  10   9
BRANCH  12  13
ATOM     13  N   UNL     1      17.362  23.886   5.072  0.00  0.00    -0.281 N 
ATOM     14  C   UNL     1      16.982  23.186   6.205  0.00  0.00    +0.248 C 
ATOM     30  O   UNL     1      17.735  22.497   6.877  0.00  0.00    -0.270 OA
ATOM     31  H   UNL     1      16.604  24.258   4.500  0.00  0.00    +0.155 HD
BRANCH  14  15
ATOM     15  C   UNL     1      15.555  23.248   6.648  0.00  0.00    +0.037 A 
ATOM     16  C   UNL     1      14.509  23.773   5.767  0.00  0.00    +0.013 A 
ATOM     17  C   UNL     1      13.143  23.838   6.225  0.00  0.00    +0.005 A 
ATOM     18  C   UNL     1      12.817  23.374   7.572  0.00  0.00    -0.033 A 
ATOM     28  C   UNL     1      13.874  22.853   8.422  0.00  0.00    +0.005 A 
ATOM     29  C   UNL     1      15.213  22.789   7.977  0.00  0.00    +0.013 A 
BRANCH  18  19
ATOM     19  C   UNL     1      11.391  23.426   8.151  0.00  0.00    +0.119 C 
BRANCH  19  20
ATOM     20  N   UNL     1      10.701  24.751   8.153  0.00  0.00    -0.302 NA
ATOM     21  C   UNL     1      11.516  25.821   8.884  0.00  0.00    +0.066 C 
ATOM     22  C   UNL     1      10.790  27.206   8.857  0.00  0.00    -0.064 C 
ATOM     23  N   UNL     1       9.400  27.063   9.480  0.00  0.00    +0.379 N 
ATOM     24  C   UNL     1       8.738  28.375   9.509  0.00  0.00    -0.096 C 
ATOM     25  H   UNL     1       9.536  26.729  10.535  0.00  0.00    -0.082 HD
ATOM     26  C   UNL     1       8.585  25.998   8.761  0.00  0.00    -0.064 C 
ATOM     27  C   UNL     1       9.328  24.633   8.768  0.00  0.00    +0.066 C 
ENDBRANCH  19  20
ENDBRANCH  18  19
ENDBRANCH  14  15
ENDBRANCH  12  13
TORSDOF 6
ENDMDL
MODEL 3
REMARK VINA RESULT:      -8.3     22.218     25.176
REMARK  Name = C:\Users\Docking\Desktop\test protocol\1iep_ligandH.pdb
REMARK  8 active torsions:
REMARK  status: ('A' for Active; 'I' for Inactive)
REMARK    1  A    between atoms: _5  and  _11
REMARK    2  A    between atoms: _19  and  _21
REMARK    3  A    between atoms: _22  and  _66
REMARK    4  A    between atoms: _27  and  _30
REMARK    5  A    between atoms: _32  and  _33
REMARK    6  A    between atoms: _38  and  _43
REMARK    7  A    between atoms: _43  and  _46
REMARK    8  A    between atoms: _53  and  _55
REMARK                            x       y       z     vdW  Elec       q    Type
REMARK                         _______ _______ _______ _____ _____    ______ ____
ROOT
ATOM     10  C   UNL     1       9.983  25.919   8.732  0.00  0.00    +0.038 A 
ATOM     11  C   UNL     1       8.609  25.878   8.383  0.00  0.00    +0.047 A 
ATOM     12  C   UNL     1       7.786  27.076   8.429  0.00  0.00    +0.035 A 
ATOM     32  C   UNL     1       8.395  28.300   8.833  0.00  0.00    +0.024 A 
ATOM     33  C   UNL     1       9.790  28.359   9.193  0.00  0.00    +0.007 A 
ATOM     34  C   UNL     1      10.607  27.180   9.152  0.00  0.00    -0.029 A 
ATOM     35  C   UNL     1      12.095  27.300   9.554  0.00  0.00    +0.045 C 
ENDROOT
BRANCH  10   9
ATOM      4  C   UNL     1      11.918  22.023  10.761  0.00  0.00    +0.077 A 
ATOM      5  C   UNL     1      11.428  22.384  12.061  0.00  0.00    +0.048 A 
ATOM      6  C   UNL     1      10.689  23.583  12.165  0.00  0.00    +0.116 A 
ATOM      7  N   UNL     1      10.462  24.356  11.047  0.00  0.00    -0.223 NA
ATOM      8  C   UNL     1      10.950  23.980   9.809  0.00  0.00    +0.220 A 
ATOM      9  N   UNL     1      10.727  24.738   8.670  0.00  0.00    -0.283 N 
ATOM     36  H   UNL     1      11.111  24.431   7.777  0.00  0.00    +0.155 HD
ATOM     37  N   UNL     1      11.661  22.840   9.683  0.00  0.00    -0.214 NA
BRANCH   4   3
ATOM      1  C   UNL     1      14.865  19.580   9.955  0.00  0.00    +0.020 A 
ATOM      2  C   UNL     1      14.144  20.805  10.211  0.00  0.00    +0.013 A 
ATOM      3  C   UNL     1      12.713  20.784  10.489  0.00  0.00    +0.019 A 
ATOM     38  C   UNL     1      12.037  19.496  10.501  0.00  0.00    +0.120 A 
ATOM     39  N   UNL     1      12.757  18.332  10.250  0.00  0.00    -0.263 NA
ATOM     40  C   UNL     1      14.133  18.340   9.979  0.00  0.00    +0.111 A 
ENDBRANCH   4   3
ENDBRANCH  10   9
BRANCH  12  13
ATOM     13  N   UNL     1       6.383  27.095   8.093  0.00  0.00    -0.281 N 
ATOM     14  C   UNL     1       5.810  27.112   6.832  0.00  0.00    +0.248 C 
ATOM     30  O   UNL     1       6.422  27.331   5.798  0.00  0.00    -0.270 OA
ATOM     31  H   UNL     1       5.735  27.095   8.881  0.00  0.00    +0.155 HD
BRANCH  14  15
ATOM     15  C   UNL     1       4.341  26.864   6.704  0.00  0.00    +0.037 A 
ATOM     16  C   UNL     1       3.806  25.996   5.652  0.00  0.00    +0.013 A 
ATOM     17  C   UNL     1       2.384  25.788   5.540  0.00  0.00    +0.005 A 
ATOM     18  C   UNL     1       1.487  26.449   6.484  0.00  0.00    -0.033 A 
ATOM     28  C   UNL     1       2.045  27.300   7.522  0.00  0.00    +0.005 A 
ATOM     29  C   UNL     1       3.438  27.508   7.634  0.00  0.00    +0.013 A 
BRANCH  18  19
ATOM     19  C   UNL     1      -0.045  26.301   6.426  0.00  0.00    +0.119 C 
BRANCH  19  20
ATOM     20  N   UNL     1      -0.825  26.804   7.596  0.00  0.00    -0.302 NA
ATOM     21  C   UNL     1      -1.136  25.691   8.601  0.00  0.00    +0.066 C 
ATOM     22  C   UNL     1      -1.933  26.239   9.829  0.00  0.00    -0.064 C 
ATOM     23  N   UNL     1      -3.222  26.904   9.341  0.00  0.00    +0.379 N 
ATOM     24  C   UNL     1      -4.002  27.369  10.498  0.00  0.00    -0.096 C 
ATOM     25  H   UNL     1      -3.825  26.127   8.817  0.00  0.00    -0.082 HD
ATOM     26  C   UNL     1      -2.922  28.010   8.340  0.00  0.00    -0.064 C 
ATOM     27  C   UNL     1      -2.104  27.460   7.138  0.00  0.00    +0.066 C 
ENDBRANCH  19  20
ENDBRANCH  18  19
ENDBRANCH  14  15
ENDBRANCH  12  13
TORSDOF 6
ENDMDL
MODEL 4
REMARK VINA RESULT:      -8.3     22.271     25.675
REMARK  Name = C:\Users\Docking\Desktop\test protocol\1iep_ligandH.pdb
REMARK  8 active torsions:
REMARK  status: ('A' for Active; 'I' for Inactive)
REMARK    1  A    between atoms: _5  and  _11
REMARK    2  A    between atoms: _19  and  _21
REMARK    3  A    between atoms: _22  and  _66
REMARK    4  A    between atoms: _27  and  _30
REMARK    5  A    between atoms: _32  and  _33
REMARK    6  A    between atoms: _38  and  _43
REMARK    7  A    between atoms: _43  and  _46
REMARK    8  A    between atoms: _53  and  _55
REMARK                            x       y       z     vdW  Elec       q    Type
REMARK                         _______ _______ _______ _____ _____    ______ ____
ROOT
ATOM     10  C   UNL     1       9.749  25.619   8.543  0.00  0.00    +0.038 A 
ATOM     11  C   UNL     1       8.363  25.911   8.463  0.00  0.00    +0.047 A 
ATOM     12  C   UNL     1       7.888  27.282   8.365  0.00  0.00    +0.035 A 
ATOM     32  C   UNL     1       8.852  28.332   8.348  0.00  0.00    +0.024 A 
ATOM     33  C   UNL     1      10.264  28.053   8.429  0.00  0.00    +0.007 A 
ATOM     34  C   UNL     1      10.739  26.703   8.529  0.00  0.00    -0.029 A 
ATOM     35  C   UNL     1      12.264  26.463   8.619  0.00  0.00    +0.045 C 
ENDROOT
BRANCH  10   9
ATOM      4  C   UNL     1      11.180  21.794  11.064  0.00  0.00    +0.077 A 
ATOM      5  C   UNL     1      11.152  22.524  12.299  0.00  0.00    +0.048 A 
ATOM      6  C   UNL     1      10.772  23.883  12.241  0.00  0.00    +0.116 A 
ATOM      7  N   UNL     1      10.444  24.459  11.033  0.00  0.00    -0.223 NA
ATOM      8  C   UNL     1      10.483  23.727   9.860  0.00  0.00    +0.220 A 
ATOM      9  N   UNL     1      10.150  24.284   8.635  0.00  0.00    -0.283 N 
ATOM     36  H   UNL     1      10.198  23.713   7.792  0.00  0.00    +0.155 HD
ATOM     37  N   UNL     1      10.845  22.428   9.889  0.00  0.00    -0.214 NA
BRANCH   4   3
ATOM      1  C   UNL     1      11.209  17.905  11.479  0.00  0.00    +0.020 A 
ATOM      2  C   UNL     1      10.801  19.284  11.608  0.00  0.00    +0.013 A 
ATOM      3  C   UNL     1      11.559  20.349  10.963  0.00  0.00    +0.019 A 
ATOM     38  C   UNL     1      12.733  19.981  10.186  0.00  0.00    +0.120 A 
ATOM     39  N   UNL     1      13.103  18.644  10.080  0.00  0.00    -0.263 NA
ATOM     40  C   UNL     1      12.382  17.611  10.698  0.00  0.00    +0.111 A 
ENDBRANCH   4   3
ENDBRANCH  10   9
BRANCH  12  13
ATOM     13  N   UNL     1       6.493  27.640   8.290  0.00  0.00    -0.281 N 
ATOM     14  C   UNL     1       5.596  27.360   7.273  0.00  0.00    +0.248 C 
ATOM     30  O   UNL     1       5.911  26.941   6.169  0.00  0.00    -0.270 OA
ATOM     31  H   UNL     1       6.122  28.164   9.083  0.00  0.00    +0.155 HD
BRANCH  14  15
ATOM     15  C   UNL     1       4.139  27.593   7.511  0.00  0.00    +0.037 A 
ATOM     16  C   UNL     1       3.129  26.650   7.023  0.00  0.00    +0.013 A 
ATOM     17  C   UNL     1       1.729  26.906   7.251  0.00  0.00    +0.005 A 
ATOM     18  C   UNL     1       1.331  28.112   7.973  0.00  0.00    -0.033 A 
ATOM     28  C   UNL     1       2.353  29.028   8.451  0.00  0.00    +0.005 A 
ATOM     29  C   UNL     1       3.726  28.780   8.228  0.00  0.00    +0.013 A 
BRANCH  18  19
ATOM     19  C   UNL     1      -0.141  28.477   8.244  0.00  0.00    +0.119 C 
BRANCH  19  20
ATOM     20  N   UNL     1      -0.526  28.761   9.659  0.00  0.00    -0.302 NA
ATOM     21  C   UNL     1      -1.465  27.692  10.224  0.00  0.00    +0.066 C 
ATOM     22  C   UNL     1      -1.839  27.992  11.712  0.00  0.00    -0.064 C 
ATOM     23  N   UNL     1      -2.480  29.378  11.804  0.00  0.00    +0.379 N 
ATOM     24  C   UNL     1      -2.886  29.640  13.192  0.00  0.00    -0.096 C 
ATOM     25  H   UNL     1      -3.402  29.366  11.178  0.00  0.00    -0.082 HD
ATOM     26  C   UNL     1      -1.554  30.447  11.241  0.00  0.00    -0.064 C 
ATOM     27  C   UNL     1      -1.164  30.124   9.772  0.00  0.00    +0.066 C 
ENDBRANCH  19  20
ENDBRANCH  18  19
ENDBRANCH  14  15
ENDBRANCH  12  13
TORSDOF 6
ENDMDL
MODEL 5
REMARK VINA RESULT:      -8.1     18.459     20.689
REMARK  Name = C:\Users\Docking\Desktop\test protocol\1iep_ligandH.pdb
REMARK  8 active torsions:
REMARK  status: ('A' for Active; 'I' for Inactive)
REMARK    1  A    between atoms: _5  and  _11
REMARK    2  A    between atoms: _19  and  _21
REMARK    3  A    between atoms: _22  and  _66
REMARK    4  A    between atoms: _27  and  _30
REMARK    5  A    between atoms: _32  and  _33
REMARK    6  A    between atoms: _38  and  _43
REMARK    7  A    between atoms: _43  and  _46
REMARK    8  A    between atoms: _53  and  _55
REMARK                            x       y       z     vdW  Elec       q    Type
REMARK                         _______ _______ _______ _____ _____    ______ ____
ROOT
ATOM     10  C   UNL     1      14.441  21.022   9.175  0.00  0.00    +0.038 A 
ATOM     11  C   UNL     1      15.587  21.111  10.005  0.00  0.00    +0.047 A 
ATOM     12  C   UNL     1      16.293  19.917  10.444  0.00  0.00    +0.035 A 
ATOM     32  C   UNL     1      15.805  18.648  10.017  0.00  0.00    +0.024 A 
ATOM     33  C   UNL     1      14.640  18.539   9.175  0.00  0.00    +0.007 A 
ATOM     34  C   UNL     1      13.938  19.713   8.740  0.00  0.00    -0.029 A 
ATOM     35  C   UNL     1      12.691  19.535   7.843  0.00  0.00    +0.045 C 
ENDROOT
BRANCH  10   9
ATOM      4  C   UNL     1      11.278  24.561   9.888  0.00  0.00    +0.077 A 
ATOM      5  C   UNL     1      10.842  24.001  11.134  0.00  0.00    +0.048 A 
ATOM      6  C   UNL     1      11.452  22.797  11.553  0.00  0.00    +0.116 A 
ATOM      7  N   UNL     1      12.425  22.206  10.775  0.00  0.00    -0.223 NA
ATOM      8  C   UNL     1      12.820  22.772   9.577  0.00  0.00    +0.220 A 
ATOM      9  N   UNL     1      13.802  22.200   8.783  0.00  0.00    -0.283 N 
ATOM     36  H   UNL     1      14.060  22.645   7.902  0.00  0.00    +0.155 HD
ATOM     37  N   UNL     1      12.252  23.921   9.155  0.00  0.00    -0.214 NA
BRANCH   4   3
ATOM      1  C   UNL     1       9.791  28.161   9.531  0.00  0.00    +0.020 A 
ATOM      2  C   UNL     1      10.312  26.958  10.136  0.00  0.00    +0.013 A 
ATOM      3  C   UNL     1      10.731  25.830   9.313  0.00  0.00    +0.019 A 
ATOM     38  C   UNL     1      10.609  25.955   7.868  0.00  0.00    +0.120 A 
ATOM     39  N   UNL     1      10.103  27.126   7.313  0.00  0.00    -0.263 NA
ATOM     40  C   UNL     1       9.695  28.216   8.096  0.00  0.00    +0.111 A 
ENDBRANCH   4   3
ENDBRANCH  10   9
BRANCH  12  13
ATOM     13  N   UNL     1      17.458  19.946  11.293  0.00  0.00    -0.281 N 
ATOM     14  C   UNL     1      18.760  19.606  10.964  0.00  0.00    +0.248 C 
ATOM     30  O   UNL     1      19.084  19.019   9.943  0.00  0.00    -0.270 OA
ATOM     31  H   UNL     1      17.304  20.254  12.254  0.00  0.00    +0.155 HD
BRANCH  14  15
ATOM     15  C   UNL     1      19.860  19.956  11.914  0.00  0.00    +0.037 A 
ATOM     16  C   UNL     1      19.871  19.442  13.286  0.00  0.00    +0.013 A 
ATOM     17  C   UNL     1      20.934  19.809  14.188  0.00  0.00    +0.005 A 
ATOM     18  C   UNL     1      21.997  20.695  13.718  0.00  0.00    -0.033 A 
ATOM     28  C   UNL     1      21.965  21.186  12.350  0.00  0.00    +0.005 A 
ATOM     29  C   UNL     1      20.923  20.829  11.465  0.00  0.00    +0.013 A 
BRANCH  18  19
ATOM     19  C   UNL     1      23.160  21.155  14.617  0.00  0.00    +0.119 C 
BRANCH  19  20
ATOM     20  N   UNL     1      22.851  22.169  15.669  0.00  0.00    -0.302 NA
ATOM     21  C   UNL     1      23.258  23.582  15.242  0.00  0.00    +0.066 C 
ATOM     22  C   UNL     1      22.907  24.633  16.345  0.00  0.00    -0.064 C 
ATOM     23  N   UNL     1      23.595  24.243  17.655  0.00  0.00    +0.379 N 
ATOM     24  C   UNL     1      23.314  25.260  18.678  0.00  0.00    -0.096 C 
ATOM     25  H   UNL     1      24.694  24.242  17.471  0.00  0.00    -0.082 HD
ATOM     26  C   UNL     1      23.198  22.838  18.085  0.00  0.00    -0.064 C 
ATOM     27  C   UNL     1      23.524  21.806  16.970  0.00  0.00    +0.066 C 
ENDBRANCH  19  20
ENDBRANCH  18  19
ENDBRANCH  14  15
ENDBRANCH  12  13
TORSDOF 6
ENDMDL
