MODEL 1
REMARK VINA RESULT:      -8.6      0.000      0.000
REMARK  Name = C:\Users\Docking\Desktop\test protocol\1iep_ligandH.pdb
REMARK  8 active torsions:
REMARK  status: ('A' for Active; 'I' for Inactive)
REMARK    1  A    between atoms: _5  and  _11
REMARK    2  A    between atoms: _19  and  _21
REMARK    3  A    between atoms: _22  and  _66
REMARK    4  A    between atoms: _27  and  _30
REMARK    5  A    between atoms: _32  and  _33
REMARK    6  A    between atoms: _38  and  _43
REMARK    7  A    between atoms: _43  and  _46
REMARK    8  A    between atoms: _53  and  _55
REMARK                            x       y       z     vdW  Elec       q    Type
REMARK                         _______ _______ _______ _____ _____    ______ ____
ROOT
ATOM     10  C   UNL     1      16.929  33.312   1.677  0.00  0.00    +0.038 A 
ATOM     11  C   UNL     1      16.711  34.255   2.714  0.00  0.00    +0.047 A 
ATOM     12  C   UNL     1      16.409  33.825   4.070  0.00  0.00    +0.035 A 
ATOM     32  C   UNL     1      16.339  32.426   4.336  0.00  0.00    +0.024 A 
ATOM     33  C   UNL     1      16.557  31.454   3.293  0.00  0.00    +0.007 A 
ATOM     34  C   UNL     1      16.853  31.872   1.953  0.00  0.00    -0.029 A 
ATOM     35  C   UNL     1      17.071  30.786   0.874  0.00  0.00    +0.045 C 
ENDROOT
BRANCH  10   9
ATOM      4  C   UNL     1      19.994  34.858  -1.678  0.00  0.00    +0.077 A 
ATOM      5  C   UNL     1      21.115  34.749  -0.788  0.00  0.00    +0.048 A 
ATOM      6  C   UNL     1      20.859  34.298   0.526  0.00  0.00    +0.116 A 
ATOM      7  N   UNL     1      19.574  33.982   0.911  0.00  0.00    -0.223 NA
ATOM      8  C   UNL     1      18.515  34.100   0.029  0.00  0.00    +0.220 A 
ATOM      9  N   UNL     1      17.216  33.780   0.393  0.00  0.00    -0.283 N 
ATOM     36  H   UNL     1      16.462  33.888  -0.285  0.00  0.00    +0.155 HD
ATOM     37  N   UNL     1      18.734  34.530  -1.231  0.00  0.00    -0.214 NA
BRANCH   4   3
ATOM      1  C   UNL     1      19.238  35.507  -5.460  0.00  0.00    +0.020 A 
ATOM      2  C   UNL     1      19.083  35.041  -4.102  0.00  0.00    +0.013 A 
ATOM      3  C   UNL     1      20.104  35.317  -3.099  0.00  0.00    +0.019 A 
ATOM     38  C   UNL     1      21.278  36.074  -3.506  0.00  0.00    +0.120 A 
ATOM     39  N   UNL     1      21.400  36.509  -4.822  0.00  0.00    -0.263 NA
ATOM     40  C   UNL     1      20.425  36.248  -5.796  0.00  0.00    +0.111 A 
ENDBRANCH   4   3
ENDBRANCH  10   9
BRANCH  12  13
ATOM     13  N   UNL     1      16.170  34.736   5.162  0.00  0.00    -0.281 N 
ATOM     14  C   UNL     1      17.090  35.536   5.820  0.00  0.00    +0.248 C 
ATOM     30  O   UNL     1      18.302  35.430   5.709  0.00  0.00    -0.270 OA
ATOM     31  H   UNL     1      15.206  34.798   5.490  0.00  0.00    +0.155 HD
BRANCH  14  15
ATOM     15  C   UNL     1      16.591  36.598   6.746  0.00  0.00    +0.037 A 
ATOM     16  C   UNL     1      15.212  36.587   7.242  0.00  0.00    +0.013 A 
ATOM     17  C   UNL     1      14.751  37.633   8.120  0.00  0.00    +0.005 A 
ATOM     18  C   UNL     1      15.672  38.698   8.510  0.00  0.00    -0.033 A 
ATOM     28  C   UNL     1      17.036  38.681   8.008  0.00  0.00    +0.005 A 
ATOM     29  C   UNL     1      17.491  37.659   7.146  0.00  0.00    +0.013 A 
BRANCH  18  19
ATOM     19  C   UNL     1      15.261  39.866   9.427  0.00  0.00    +0.119 C 
BRANCH  19  20
ATOM     20  N   UNL     1      15.559  39.729  10.884  0.00  0.00    -0.302 NA
ATOM     21  C   UNL     1      14.357  40.105  11.754  0.00  0.00    +0.066 C 
ATOM     22  C   UNL     1      14.679  39.935  13.275  0.00  0.00    -0.064 C 
ATOM     23  N   UNL     1      15.896  40.789  13.634  0.00  0.00    +0.379 N 
ATOM     24  C   UNL     1      16.167  40.676  15.074  0.00  0.00    -0.096 C 
ATOM     25  H   UNL     1      15.638  41.852  13.420  0.00  0.00    -0.082 HD
ATOM     26  C   UNL     1      17.096  40.423  12.771  0.00  0.00    -0.064 C 
ATOM     27  C   UNL     1      16.755  40.567  11.261  0.00  0.00    +0.066 C 
ENDBRANCH  19  20
ENDBRANCH  18  19
ENDBRANCH  14  15
ENDBRANCH  12  13
TORSDOF 6
ENDMDL
MODEL 2
REMARK VINA RESULT:      -8.2      2.350     12.710
REMARK  Name = C:\Users\Docking\Desktop\test protocol\1iep_ligandH.pdb
REMARK  8 active torsions:
REMARK  status: ('A' for Active; 'I' for Inactive)
REMARK    1  A    between atoms: _5  and  _11
REMARK    2  A    between atoms: _19  and  _21
REMARK    3  A    between atoms: _22  and  _66
REMARK    4  A    between atoms: _27  and  _30
REMARK    5  A    between atoms: _32  and  _33
REMARK    6  A    between atoms: _38  and  _43
REMARK    7  A    between atoms: _43  and  _46
REMARK    8  A    between atoms: _53  and  _55
REMARK                            x       y       z     vdW  Elec       q    Type
REMARK                         _______ _______ _______ _____ _____    ______ ____
ROOT
ATOM     10  C   UNL     1      16.120  33.681   4.056  0.00  0.00    +0.038 A 
ATOM     11  C   UNL     1      16.527  34.140   2.777  0.00  0.00    +0.047 A 
ATOM     12  C   UNL     1      16.937  33.208   1.739  0.00  0.00    +0.035 A 
ATOM     32  C   UNL     1      16.918  31.814   2.036  0.00  0.00    +0.024 A 
ATOM     33  C   UNL     1      16.508  31.330   3.330  0.00  0.00    +0.007 A 
ATOM     34  C   UNL     1      16.104  32.244   4.360  0.00  0.00    -0.029 A 
ATOM     35  C   UNL     1      15.680  31.669   5.731  0.00  0.00    +0.045 C 
ENDROOT
BRANCH  10   9
ATOM      4  C   UNL     1      17.114  37.167   7.201  0.00  0.00    +0.077 A 
ATOM      5  C   UNL     1      18.520  37.094   6.928  0.00  0.00    +0.048 A 
ATOM      6  C   UNL     1      18.947  36.140   5.977  0.00  0.00    +0.116 A 
ATOM      7  N   UNL     1      18.028  35.327   5.351  0.00  0.00    -0.223 NA
ATOM      8  C   UNL     1      16.679  35.422   5.639  0.00  0.00    +0.220 A 
ATOM      9  N   UNL     1      15.736  34.619   5.016  0.00  0.00    -0.283 N 
ATOM     36  H   UNL     1      14.751  34.716   5.261  0.00  0.00    +0.155 HD
ATOM     37  N   UNL     1      16.246  36.324   6.545  0.00  0.00    -0.214 NA
BRANCH   4   3
ATOM      1  C   UNL     1      14.555  39.067   9.469  0.00  0.00    +0.020 A 
ATOM      2  C   UNL     1      15.090  38.120   8.518  0.00  0.00    +0.013 A 
ATOM      3  C   UNL     1      16.507  38.126   8.178  0.00  0.00    +0.019 A 
ATOM     38  C   UNL     1      17.363  39.110   8.824  0.00  0.00    +0.120 A 
ATOM     39  N   UNL     1      16.819  40.010   9.735  0.00  0.00    -0.263 NA
ATOM     40  C   UNL     1      15.456  40.015  10.068  0.00  0.00    +0.111 A 
ENDBRANCH   4   3
ENDBRANCH  10   9
BRANCH  12  13
ATOM     13  N   UNL     1      17.369  33.616   0.425  0.00  0.00    -0.281 N 
ATOM     14  C   UNL     1      18.662  33.669  -0.069  0.00  0.00    +0.248 C 
ATOM     30  O   UNL     1      19.668  33.576   0.618  0.00  0.00    -0.270 OA
ATOM     31  H   UNL     1      16.631  33.900  -0.220  0.00  0.00    +0.155 HD
BRANCH  14  15
ATOM     15  C   UNL     1      18.867  33.869  -1.536  0.00  0.00    +0.037 A 
ATOM     16  C   UNL     1      18.413  32.872  -2.509  0.00  0.00    +0.013 A 
ATOM     17  C   UNL     1      18.639  33.082  -3.918  0.00  0.00    +0.005 A 
ATOM     18  C   UNL     1      19.322  34.295  -4.361  0.00  0.00    -0.033 A 
ATOM     28  C   UNL     1      19.758  35.269  -3.374  0.00  0.00    +0.005 A 
ATOM     29  C   UNL     1      19.539  35.067  -1.993  0.00  0.00    +0.013 A 
BRANCH  18  19
ATOM     19  C   UNL     1      19.624  34.591  -5.842  0.00  0.00    +0.119 C 
BRANCH  19  20
ATOM     20  N   UNL     1      18.461  34.881  -6.732  0.00  0.00    -0.302 NA
ATOM     21  C   UNL     1      17.346  35.629  -5.996  0.00  0.00    +0.066 C 
ATOM     22  C   UNL     1      16.147  35.944  -6.948  0.00  0.00    -0.064 C 
ATOM     23  N   UNL     1      15.619  34.640  -7.548  0.00  0.00    +0.379 N 
ATOM     24  C   UNL     1      14.455  34.927  -8.398  0.00  0.00    -0.096 C 
ATOM     25  H   UNL     1      15.273  33.997  -6.706  0.00  0.00    -0.082 HD
ATOM     26  C   UNL     1      16.722  33.889  -8.280  0.00  0.00    -0.064 C 
ATOM     27  C   UNL     1      17.921  33.606  -7.333  0.00  0.00    +0.066 C 
ENDBRANCH  19  20
ENDBRANCH  18  19
ENDBRANCH  14  15
ENDBRANCH  12  13
TORSDOF 6
ENDMDL
MODEL 3
REMARK VINA RESULT:      -8.1     41.709     45.889
REMARK  Name = C:\Users\Docking\Desktop\test protocol\1iep_ligandH.pdb
REMARK  8 active torsions:
REMARK  status: ('A' for Active; 'I' for Inactive)
REMARK    1  A    between atoms: _5  and  _11
REMARK    2  A    between atoms: _19  and  _21
REMARK    3  A    between atoms: _22  and  _66
REMARK    4  A    between atoms: _27  and  _30
REMARK    5  A    between atoms: _32  and  _33
REMARK    6  A    between atoms: _38  and  _43
REMARK    7  A    between atoms: _43  and  _46
REMARK    8  A    between atoms: _53  and  _55
REMARK                            x       y       z     vdW  Elec       q    Type
REMARK                         _______ _______ _______ _____ _____    ______ ____
ROOT
ATOM     10  C   UNL     1     -23.594  49.133   7.044  0.00  0.00    +0.038 A 
ATOM     11  C   UNL     1     -23.708  49.462   5.669  0.00  0.00    +0.047 A 
ATOM     12  C   UNL     1     -24.937  49.204   4.934  0.00  0.00    +0.035 A 
ATOM     32  C   UNL     1     -26.030  48.612   5.632  0.00  0.00    +0.024 A 
ATOM     33  C   UNL     1     -25.930  48.271   7.029  0.00  0.00    +0.007 A 
ATOM     34  C   UNL     1     -24.720  48.521   7.759  0.00  0.00    -0.029 A 
ATOM     35  C   UNL     1     -24.667  48.128   9.253  0.00  0.00    +0.045 C 
ENDROOT
BRANCH  10   9
ATOM      4  C   UNL     1     -20.826  51.869   9.854  0.00  0.00    +0.077 A 
ATOM      5  C   UNL     1     -21.854  52.858  10.005  0.00  0.00    +0.048 A 
ATOM      6  C   UNL     1     -23.078  52.628   9.337  0.00  0.00    +0.116 A 
ATOM      7  N   UNL     1     -23.250  51.491   8.578  0.00  0.00    -0.223 NA
ATOM      8  C   UNL     1     -22.237  50.558   8.453  0.00  0.00    +0.220 A 
ATOM      9  N   UNL     1     -22.391  49.403   7.701  0.00  0.00    -0.283 N 
ATOM     36  H   UNL     1     -21.617  48.743   7.627  0.00  0.00    +0.155 HD
ATOM     37  N   UNL     1     -21.059  50.754   9.079  0.00  0.00    -0.214 NA
BRANCH   4   3
ATOM      1  C   UNL     1     -17.182  51.069  11.030  0.00  0.00    +0.020 A 
ATOM      2  C   UNL     1     -18.468  50.924  10.387  0.00  0.00    +0.013 A 
ATOM      3  C   UNL     1     -19.479  51.967  10.501  0.00  0.00    +0.019 A 
ATOM     38  C   UNL     1     -19.156  53.154  11.278  0.00  0.00    +0.120 A 
ATOM     39  N   UNL     1     -17.910  53.265  11.888  0.00  0.00    -0.263 NA
ATOM     40  C   UNL     1     -16.929  52.267  11.787  0.00  0.00    +0.111 A 
ENDBRANCH   4   3
ENDBRANCH  10   9
BRANCH  12  13
ATOM     13  N   UNL     1     -25.109  49.509   3.535  0.00  0.00    -0.281 N 
ATOM     14  C   UNL     1     -25.152  48.625   2.470  0.00  0.00    +0.248 C 
ATOM     30  O   UNL     1     -24.833  47.447   2.536  0.00  0.00    -0.270 OA
ATOM     31  H   UNL     1     -25.212  50.497   3.303  0.00  0.00    +0.155 HD
BRANCH  14  15
ATOM     15  C   UNL     1     -25.600  49.124   1.134  0.00  0.00    +0.037 A 
ATOM     16  C   UNL     1     -25.792  48.210   0.006  0.00  0.00    +0.013 A 
ATOM     17  C   UNL     1     -26.208  48.720  -1.276  0.00  0.00    +0.005 A 
ATOM     18  C   UNL     1     -26.437  50.154  -1.436  0.00  0.00    -0.033 A 
ATOM     28  C   UNL     1     -26.244  51.038  -0.298  0.00  0.00    +0.005 A 
ATOM     29  C   UNL     1     -25.835  50.542   0.959  0.00  0.00    +0.013 A 
BRANCH  18  19
ATOM     19  C   UNL     1     -26.863  50.789  -2.773  0.00  0.00    +0.119 C 
BRANCH  19  20
ATOM     20  N   UNL     1     -28.288  50.623  -3.186  0.00  0.00    -0.302 NA
ATOM     21  C   UNL     1     -28.523  49.300  -3.920  0.00  0.00    +0.066 C 
ATOM     22  C   UNL     1     -30.024  49.132  -4.325  0.00  0.00    -0.064 C 
ATOM     23  N   UNL     1     -30.450  50.316  -5.194  0.00  0.00    +0.379 N 
ATOM     24  C   UNL     1     -31.844  50.133  -5.624  0.00  0.00    -0.096 C 
ATOM     25  H   UNL     1     -29.811  50.313  -6.107  0.00  0.00    -0.082 HD
ATOM     26  C   UNL     1     -30.217  51.637  -4.473  0.00  0.00    -0.064 C 
ATOM     27  C   UNL     1     -28.729  51.780  -4.049  0.00  0.00    +0.066 C 
ENDBRANCH  19  20
ENDBRANCH  18  19
ENDBRANCH  14  15
ENDBRANCH  12  13
TORSDOF 6
ENDMDL
MODEL 4
REMARK VINA RESULT:      -7.9     44.481     46.633
REMARK  Name = C:\Users\Docking\Desktop\test protocol\1iep_ligandH.pdb
REMARK  8 active torsions:
REMARK  status: ('A' for Active; 'I' for Inactive)
REMARK    1  A    between atoms: _5  and  _11
REMARK    2  A    between atoms: _19  and  _21
REMARK    3  A    between atoms: _22  and  _66
REMARK    4  A    between atoms: _27  and  _30
REMARK    5  A    between atoms: _32  and  _33
REMARK    6  A    between atoms: _38  and  _43
REMARK    7  A    between atoms: _43  and  _46
REMARK    8  A    between atoms: _53  and  _55
REMARK                            x       y       z     vdW  Elec       q    Type
REMARK                         _______ _______ _______ _____ _____    ______ ____
ROOT
ATOM     10  C   UNL     1     -28.570  49.838  -3.220  0.00  0.00    +0.038 A 
ATOM     11  C   UNL     1     -27.777  49.346  -2.152  0.00  0.00    +0.047 A 
ATOM     12  C   UNL     1     -27.976  49.814  -0.789  0.00  0.00    +0.035 A 
ATOM     32  C   UNL     1     -28.995  50.781  -0.549  0.00  0.00    +0.024 A 
ATOM     33  C   UNL     1     -29.810  51.293  -1.623  0.00  0.00    +0.007 A 
ATOM     34  C   UNL     1     -29.616  50.837  -2.970  0.00  0.00    -0.029 A 
ATOM     35  C   UNL     1     -30.515  51.425  -4.083  0.00  0.00    +0.045 C 
ENDROOT
BRANCH  10   9
ATOM      4  C   UNL     1     -29.527  46.864  -6.864  0.00  0.00    +0.077 A 
ATOM      5  C   UNL     1     -30.564  46.200  -6.128  0.00  0.00    +0.048 A 
ATOM      6  C   UNL     1     -30.814  46.650  -4.812  0.00  0.00    +0.116 A 
ATOM      7  N   UNL     1     -30.078  47.687  -4.282  0.00  0.00    -0.223 NA
ATOM      8  C   UNL     1     -29.084  48.304  -5.019  0.00  0.00    +0.220 A 
ATOM      9  N   UNL     1     -28.336  49.354  -4.509  0.00  0.00    -0.283 N 
ATOM     36  H   UNL     1     -27.606  49.779  -5.082  0.00  0.00    +0.155 HD
ATOM     37  N   UNL     1     -28.824  47.893  -6.277  0.00  0.00    -0.214 NA
BRANCH   4   3
ATOM      1  C   UNL     1     -27.784  45.217  -9.954  0.00  0.00    +0.020 A 
ATOM      2  C   UNL     1     -28.113  45.527  -8.582  0.00  0.00    +0.013 A 
ATOM      3  C   UNL     1     -29.146  46.506  -8.267  0.00  0.00    +0.019 A 
ATOM     38  C   UNL     1     -29.832  47.158  -9.372  0.00  0.00    +0.120 A 
ATOM     39  N   UNL     1     -29.493  46.840 -10.683  0.00  0.00    -0.263 NA
ATOM     40  C   UNL     1     -28.500  45.901 -10.999  0.00  0.00    +0.111 A 
ENDBRANCH   4   3
ENDBRANCH  10   9
BRANCH  12  13
ATOM     13  N   UNL     1     -27.196  49.357   0.334  0.00  0.00    -0.281 N 
ATOM     14  C   UNL     1     -25.907  49.726   0.682  0.00  0.00    +0.248 C 
ATOM     30  O   UNL     1     -25.147  50.350  -0.044  0.00  0.00    -0.270 OA
ATOM     31  H   UNL     1     -27.649  48.678   0.946  0.00  0.00    +0.155 HD
BRANCH  14  15
ATOM     15  C   UNL     1     -25.382  49.335   2.026  0.00  0.00    +0.037 A 
ATOM     16  C   UNL     1     -25.265  47.928   2.415  0.00  0.00    +0.013 A 
ATOM     17  C   UNL     1     -24.771  47.578   3.724  0.00  0.00    +0.005 A 
ATOM     18  C   UNL     1     -24.390  48.639   4.652  0.00  0.00    -0.033 A 
ATOM     28  C   UNL     1     -24.511  50.027   4.238  0.00  0.00    +0.005 A 
ATOM     29  C   UNL     1     -24.996  50.374   2.957  0.00  0.00    +0.013 A 
BRANCH  18  19
ATOM     19  C   UNL     1     -23.873  48.359   6.076  0.00  0.00    +0.119 C 
BRANCH  19  20
ATOM     20  N   UNL     1     -23.106  49.448   6.752  0.00  0.00    -0.302 NA
ATOM     21  C   UNL     1     -21.613  49.121   6.852  0.00  0.00    +0.066 C 
ATOM     22  C   UNL     1     -20.822  50.281   7.541  0.00  0.00    -0.064 C 
ATOM     23  N   UNL     1     -21.413  50.544   8.927  0.00  0.00    +0.379 N 
ATOM     24  C   UNL     1     -20.635  51.594   9.600  0.00  0.00    -0.096 C 
ATOM     25  H   UNL     1     -21.306  49.608   9.523  0.00  0.00    -0.082 HD
ATOM     26  C   UNL     1     -22.898  50.867   8.837  0.00  0.00    -0.064 C 
ATOM     27  C   UNL     1     -23.670  49.721   8.124  0.00  0.00    +0.066 C 
ENDBRANCH  19  20
ENDBRANCH  18  19
ENDBRANCH  14  15
ENDBRANCH  12  13
TORSDOF 6
ENDMDL
MODEL 5
REMARK VINA RESULT:      -7.8     49.611     51.433
REMARK  Name = C:\Users\Docking\Desktop\test protocol\1iep_ligandH.pdb
REMARK  8 active torsions:
REMARK  status: ('A' for Active; 'I' for Inactive)
REMARK    1  A    between atoms: _5  and  _11
REMARK    2  A    between atoms: _19  and  _21
REMARK    3  A    between atoms: _22  and  _66
REMARK    4  A    between atoms: _27  and  _30
REMARK    5  A    between atoms: _32  and  _33
REMARK    6  A    between atoms: _38  and  _43
REMARK    7  A    between atoms: _43  and  _46
REMARK    8  A    between atoms: _53  and  _55
REMARK                            x       y       z     vdW  Elec       q    Type
REMARK                         _______ _______ _______ _____ _____    ______ ____
ROOT
ATOM     10  C   UNL     1     -30.951  50.757  -8.357  0.00  0.00    +0.038 A 
ATOM     11  C   UNL     1     -30.349  51.156  -7.137  0.00  0.00    +0.047 A 
ATOM     12  C   UNL     1     -29.942  50.176  -6.142  0.00  0.00    +0.035 A 
ATOM     32  C   UNL     1     -30.161  48.796  -6.424  0.00  0.00    +0.024 A 
ATOM     33  C   UNL     1     -30.773  48.372  -7.659  0.00  0.00    +0.007 A 
ATOM     34  C   UNL     1     -31.178  49.335  -8.643  0.00  0.00    -0.029 A 
ATOM     35  C   UNL     1     -31.835  48.824  -9.947  0.00  0.00    +0.045 C 
ENDROOT
BRANCH  10   9
ATOM      4  C   UNL     1     -34.181  53.718 -10.316  0.00  0.00    +0.077 A 
ATOM      5  C   UNL     1     -35.224  53.246  -9.452  0.00  0.00    +0.048 A 
ATOM      6  C   UNL     1     -34.890  52.236  -8.522  0.00  0.00    +0.116 A 
ATOM      7  N   UNL     1     -33.605  51.742  -8.469  0.00  0.00    -0.223 NA
ATOM      8  C   UNL     1     -32.623  52.217  -9.318  0.00  0.00    +0.220 A 
ATOM      9  N   UNL     1     -31.322  51.740  -9.277  0.00  0.00    -0.283 N 
ATOM     36  H   UNL     1     -30.628  52.111  -9.925  0.00  0.00    +0.155 HD
ATOM     37  N   UNL     1     -32.917  53.181 -10.216  0.00  0.00    -0.214 NA
BRANCH   4   3
ATOM      1  C   UNL     1     -35.151  57.070 -12.083  0.00  0.00    +0.020 A 
ATOM      2  C   UNL     1     -34.985  56.074 -11.049  0.00  0.00    +0.013 A 
ATOM      3  C   UNL     1     -34.377  54.784 -11.348  0.00  0.00    +0.019 A 
ATOM     38  C   UNL     1     -33.943  54.531 -12.714  0.00  0.00    +0.120 A 
ATOM     39  N   UNL     1     -34.117  55.508 -13.689  0.00  0.00    -0.263 NA
ATOM     40  C   UNL     1     -34.702  56.753 -13.413  0.00  0.00    +0.111 A 
ENDBRANCH   4   3
ENDBRANCH  10   9
BRANCH  12  13
ATOM     13  N   UNL     1     -29.334  50.523  -4.882  0.00  0.00    -0.281 N 
ATOM     14  C   UNL     1     -29.915  50.511  -3.624  0.00  0.00    +0.248 C 
ATOM     30  O   UNL     1     -31.114  50.405  -3.418  0.00  0.00    -0.270 OA
ATOM     31  H   UNL     1     -28.356  50.812  -4.921  0.00  0.00    +0.155 HD
BRANCH  14  15
ATOM     15  C   UNL     1     -29.037  50.653  -2.422  0.00  0.00    +0.037 A 
ATOM     16  C   UNL     1     -29.605  50.849  -1.086  0.00  0.00    +0.013 A 
ATOM     17  C   UNL     1     -28.735  51.000   0.054  0.00  0.00    +0.005 A 
ATOM     18  C   UNL     1     -27.288  50.953  -0.138  0.00  0.00    -0.033 A 
ATOM     28  C   UNL     1     -26.752  50.752  -1.474  0.00  0.00    +0.005 A 
ATOM     29  C   UNL     1     -27.601  50.605  -2.594  0.00  0.00    +0.013 A 
BRANCH  18  19
ATOM     19  C   UNL     1     -26.285  51.126   1.018  0.00  0.00    +0.119 C 
BRANCH  19  20
ATOM     20  N   UNL     1     -26.188  50.015   2.011  0.00  0.00    -0.302 NA
ATOM     21  C   UNL     1     -25.674  50.502   3.369  0.00  0.00    +0.066 C 
ATOM     22  C   UNL     1     -25.601  49.331   4.403  0.00  0.00    -0.064 C 
ATOM     23  N   UNL     1     -24.704  48.222   3.850  0.00  0.00    +0.379 N 
ATOM     24  C   UNL     1     -24.587  47.145   4.844  0.00  0.00    -0.096 C 
ATOM     25  H   UNL     1     -23.688  48.654   3.697  0.00  0.00    -0.082 HD
ATOM     26  C   UNL     1     -25.207  47.734   2.499  0.00  0.00    -0.064 C 
ATOM     27  C   UNL     1     -25.304  48.910   1.488  0.00  0.00    +0.066 C 
ENDBRANCH  19  20
ENDBRANCH  18  19
ENDBRANCH  14  15
ENDBRANCH  12  13
TORSDOF 6
ENDMDL
