MODEL 1
REMARK VINA RESULT:      -9.1      0.000      0.000
REMARK  Name = C:\Users\Docking\Desktop\test protocol\1iep_ligandH.pdb
REMARK  8 active torsions:
REMARK  status: ('A' for Active; 'I' for Inactive)
REMARK    1  A    between atoms: _5  and  _11
REMARK    2  A    between atoms: _19  and  _21
REMARK    3  A    between atoms: _22  and  _66
REMARK    4  A    between atoms: _27  and  _30
REMARK    5  A    between atoms: _32  and  _33
REMARK    6  A    between atoms: _38  and  _43
REMARK    7  A    between atoms: _43  and  _46
REMARK    8  A    between atoms: _53  and  _55
REMARK                            x       y       z     vdW  Elec       q    Type
REMARK                         _______ _______ _______ _____ _____    ______ ____
ROOT
ATOM     10  C   UNL     1      14.741  12.913  39.127  0.00  0.00    +0.038 A 
ATOM     11  C   UNL     1      14.892  12.408  37.810  0.00  0.00    +0.047 A 
ATOM     12  C   UNL     1      13.780  12.409  36.873  0.00  0.00    +0.035 A 
ATOM     32  C   UNL     1      12.528  12.934  37.309  0.00  0.00    +0.024 A 
ATOM     33  C   UNL     1      12.358  13.450  38.644  0.00  0.00    +0.007 A 
ATOM     34  C   UNL     1      13.450  13.449  39.575  0.00  0.00    -0.029 A 
ATOM     35  C   UNL     1      13.208  14.009  40.996  0.00  0.00    +0.045 C 
ENDROOT
BRANCH  10   9
ATOM      4  C   UNL     1      19.373  13.717  40.095  0.00  0.00    +0.077 A 
ATOM      5  C   UNL     1      19.627  14.204  38.770  0.00  0.00    +0.048 A 
ATOM      6  C   UNL     1      18.540  14.223  37.867  0.00  0.00    +0.116 A 
ATOM      7  N   UNL     1      17.297  13.788  38.271  0.00  0.00    -0.223 NA
ATOM      8  C   UNL     1      17.086  13.323  39.556  0.00  0.00    +0.220 A 
ATOM      9  N   UNL     1      15.843  12.888  39.986  0.00  0.00    -0.283 N 
ATOM     36  H   UNL     1      15.730  12.546  40.940  0.00  0.00    +0.155 HD
ATOM     37  N   UNL     1      18.108  13.293  40.437  0.00  0.00    -0.214 NA
BRANCH   4   3
ATOM      1  C   UNL     1      22.547  14.417  42.273  0.00  0.00    +0.020 A 
ATOM      2  C   UNL     1      21.565  14.536  41.219  0.00  0.00    +0.013 A 
ATOM      3  C   UNL     1      20.419  13.638  41.164  0.00  0.00    +0.019 A 
ATOM     38  C   UNL     1      20.292  12.623  42.200  0.00  0.00    +0.120 A 
ATOM     39  N   UNL     1      21.254  12.532  43.201  0.00  0.00    -0.263 NA
ATOM     40  C   UNL     1      22.362  13.389  43.263  0.00  0.00    +0.111 A 
ENDBRANCH   4   3
ENDBRANCH  10   9
BRANCH  12  13
ATOM     13  N   UNL     1      13.871  11.902  35.526  0.00  0.00    -0.281 N 
ATOM     14  C   UNL     1      14.082  10.594  35.120  0.00  0.00    +0.248 C 
ATOM     30  O   UNL     1      14.440   9.690  35.861  0.00  0.00    -0.270 OA
ATOM     31  H   UNL     1      13.767  12.591  34.781  0.00  0.00    +0.155 HD
BRANCH  14  15
ATOM     15  C   UNL     1      13.881  10.243  33.682  0.00  0.00    +0.037 A 
ATOM     16  C   UNL     1      13.461  11.251  32.705  0.00  0.00    +0.013 A 
ATOM     17  C   UNL     1      13.257  10.882  31.326  0.00  0.00    +0.005 A 
ATOM     18  C   UNL     1      13.476   9.497  30.916  0.00  0.00    -0.033 A 
ATOM     28  C   UNL     1      13.898   8.518  31.905  0.00  0.00    +0.005 A 
ATOM     29  C   UNL     1      14.097   8.876  33.257  0.00  0.00    +0.013 A 
BRANCH  18  19
ATOM     19  C   UNL     1      13.263   9.009  29.471  0.00  0.00    +0.119 C 
BRANCH  19  20
ATOM     20  N   UNL     1      14.317   8.129  28.884  0.00  0.00    -0.302 NA
ATOM     21  C   UNL     1      15.610   8.898  28.593  0.00  0.00    +0.066 C 
ATOM     22  C   UNL     1      16.710   7.958  28.000  0.00  0.00    -0.064 C 
ATOM     23  N   UNL     1      16.177   7.293  26.729  0.00  0.00    +0.379 N 
ATOM     24  C   UNL     1      17.229   6.454  26.137  0.00  0.00    -0.096 C 
ATOM     25  H   UNL     1      15.939   8.102  26.000  0.00  0.00    -0.082 HD
ATOM     26  C   UNL     1      14.891   6.529  27.009  0.00  0.00    -0.064 C 
ATOM     27  C   UNL     1      13.814   7.466  27.625  0.00  0.00    +0.066 C 
ENDBRANCH  19  20
ENDBRANCH  18  19
ENDBRANCH  14  15
ENDBRANCH  12  13
TORSDOF 6
ENDMDL
MODEL 2
REMARK VINA RESULT:      -8.9     16.339     19.373
REMARK  Name = C:\Users\Docking\Desktop\test protocol\1iep_ligandH.pdb
REMARK  8 active torsions:
REMARK  status: ('A' for Active; 'I' for Inactive)
REMARK    1  A    between atoms: _5  and  _11
REMARK    2  A    between atoms: _19  and  _21
REMARK    3  A    between atoms: _22  and  _66
REMARK    4  A    between atoms: _27  and  _30
REMARK    5  A    between atoms: _32  and  _33
REMARK    6  A    between atoms: _38  and  _43
REMARK    7  A    between atoms: _43  and  _46
REMARK    8  A    between atoms: _53  and  _55
REMARK                            x       y       z     vdW  Elec       q    Type
REMARK                         _______ _______ _______ _____ _____    ______ ____
ROOT
ATOM     10  C   UNL     1      37.108  14.551  31.018  0.00  0.00    +0.038 A 
ATOM     11  C   UNL     1      36.052  13.898  30.333  0.00  0.00    +0.047 A 
ATOM     12  C   UNL     1      35.671  14.291  28.986  0.00  0.00    +0.035 A 
ATOM     32  C   UNL     1      36.390  15.353  28.364  0.00  0.00    +0.024 A 
ATOM     33  C   UNL     1      37.466  16.029  29.045  0.00  0.00    +0.007 A 
ATOM     34  C   UNL     1      37.844  15.647  30.375  0.00  0.00    -0.029 A 
ATOM     35  C   UNL     1      39.001  16.411  31.060  0.00  0.00    +0.045 C 
ENDROOT
BRANCH  10   9
ATOM      4  C   UNL     1      37.037  15.097  35.786  0.00  0.00    +0.077 A 
ATOM      5  C   UNL     1      36.318  16.335  35.693  0.00  0.00    +0.048 A 
ATOM      6  C   UNL     1      35.992  16.800  34.399  0.00  0.00    +0.116 A 
ATOM      7  N   UNL     1      36.362  16.073  33.288  0.00  0.00    -0.223 NA
ATOM      8  C   UNL     1      37.056  14.884  33.413  0.00  0.00    +0.220 A 
ATOM      9  N   UNL     1      37.432  14.133  32.310  0.00  0.00    -0.283 N 
ATOM     36  H   UNL     1      37.950  13.265  32.444  0.00  0.00    +0.155 HD
ATOM     37  N   UNL     1      37.381  14.419  34.638  0.00  0.00    -0.214 NA
BRANCH   4   3
ATOM      1  C   UNL     1      37.440  14.335  39.601  0.00  0.00    +0.020 A 
ATOM      2  C   UNL     1      37.011  14.974  38.378  0.00  0.00    +0.013 A 
ATOM      3  C   UNL     1      37.451  14.474  37.082  0.00  0.00    +0.019 A 
ATOM     38  C   UNL     1      38.332  13.315  37.058  0.00  0.00    +0.120 A 
ATOM     39  N   UNL     1      38.729  12.722  38.252  0.00  0.00    -0.263 NA
ATOM     40  C   UNL     1      38.313  13.196  39.505  0.00  0.00    +0.111 A 
ENDBRANCH   4   3
ENDBRANCH  10   9
BRANCH  12  13
ATOM     13  N   UNL     1      34.602  13.670  28.245  0.00  0.00    -0.281 N 
ATOM     14  C   UNL     1      34.611  12.442  27.604  0.00  0.00    +0.248 C 
ATOM     30  O   UNL     1      35.617  11.782  27.389  0.00  0.00    -0.270 OA
ATOM     31  H   UNL     1      33.732  14.200  28.185  0.00  0.00    +0.155 HD
BRANCH  14  15
ATOM     15  C   UNL     1      33.318  11.871  27.118  0.00  0.00    +0.037 A 
ATOM     16  C   UNL     1      33.016  11.783  25.687  0.00  0.00    +0.013 A 
ATOM     17  C   UNL     1      31.754  11.243  25.247  0.00  0.00    +0.005 A 
ATOM     18  C   UNL     1      30.785  10.785  26.240  0.00  0.00    -0.033 A 
ATOM     28  C   UNL     1      31.113  10.879  27.652  0.00  0.00    +0.005 A 
ATOM     29  C   UNL     1      32.348  11.408  28.088  0.00  0.00    +0.013 A 
BRANCH  18  19
ATOM     19  C   UNL     1      29.405  10.215  25.861  0.00  0.00    +0.119 C 
BRANCH  19  20
ATOM     20  N   UNL     1      28.355  10.204  26.922  0.00  0.00    -0.302 NA
ATOM     21  C   UNL     1      28.072   8.789  27.436  0.00  0.00    +0.066 C 
ATOM     22  C   UNL     1      26.987   8.799  28.562  0.00  0.00    -0.064 C 
ATOM     23  N   UNL     1      25.709   9.447  28.029  0.00  0.00    +0.379 N 
ATOM     24  C   UNL     1      24.668   9.405  29.066  0.00  0.00    -0.096 C 
ATOM     25  H   UNL     1      25.353   8.835  27.168  0.00  0.00    -0.082 HD
ATOM     26  C   UNL     1      25.981  10.853  27.513  0.00  0.00    -0.064 C 
ATOM     27  C   UNL     1      27.082  10.836  26.416  0.00  0.00    +0.066 C 
ENDBRANCH  19  20
ENDBRANCH  18  19
ENDBRANCH  14  15
ENDBRANCH  12  13
TORSDOF 6
ENDMDL
MODEL 3
REMARK VINA RESULT:      -8.9     18.339     23.754
REMARK  Name = C:\Users\Docking\Desktop\test protocol\1iep_ligandH.pdb
REMARK  8 active torsions:
REMARK  status: ('A' for Active; 'I' for Inactive)
REMARK    1  A    between atoms: _5  and  _11
REMARK    2  A    between atoms: _19  and  _21
REMARK    3  A    between atoms: _22  and  _66
REMARK    4  A    between atoms: _27  and  _30
REMARK    5  A    between atoms: _32  and  _33
REMARK    6  A    between atoms: _38  and  _43
REMARK    7  A    between atoms: _43  and  _46
REMARK    8  A    between atoms: _53  and  _55
REMARK                            x       y       z     vdW  Elec       q    Type
REMARK                         _______ _______ _______ _____ _____    ______ ____
ROOT
ATOM     10  C   UNL     1      30.743  11.502  26.101  0.00  0.00    +0.038 A 
ATOM     11  C   UNL     1      32.101  11.854  26.308  0.00  0.00    +0.047 A 
ATOM     12  C   UNL     1      32.792  11.497  27.537  0.00  0.00    +0.035 A 
ATOM     32  C   UNL     1      32.070  10.779  28.534  0.00  0.00    +0.024 A 
ATOM     33  C   UNL     1      30.688  10.414  28.341  0.00  0.00    +0.007 A 
ATOM     34  C   UNL     1      30.001  10.766  27.131  0.00  0.00    -0.029 A 
ATOM     35  C   UNL     1      28.518  10.354  26.981  0.00  0.00    +0.045 C 
ENDROOT
BRANCH  10   9
ATOM      4  C   UNL     1      29.051  10.486  21.726  0.00  0.00    +0.077 A 
ATOM      5  C   UNL     1      29.448   9.112  21.827  0.00  0.00    +0.048 A 
ATOM      6  C   UNL     1      30.092   8.708  23.018  0.00  0.00    +0.116 A 
ATOM      7  N   UNL     1      30.315   9.619  24.027  0.00  0.00    -0.223 NA
ATOM      8  C   UNL     1      29.921  10.938  23.897  0.00  0.00    +0.220 A 
ATOM      9  N   UNL     1      30.129  11.870  24.902  0.00  0.00    -0.283 N 
ATOM     36  H   UNL     1      29.830  12.836  24.764  0.00  0.00    +0.155 HD
ATOM     37  N   UNL     1      29.306  11.349  22.768  0.00  0.00    -0.214 NA
BRANCH   4   3
ATOM      1  C   UNL     1      26.611  11.002  18.712  0.00  0.00    +0.020 A 
ATOM      2  C   UNL     1      27.246  10.401  19.862  0.00  0.00    +0.013 A 
ATOM      3  C   UNL     1      28.358  11.064  20.531  0.00  0.00    +0.019 A 
ATOM     38  C   UNL     1      28.807  12.345  20.007  0.00  0.00    +0.120 A 
ATOM     39  N   UNL     1      28.177  12.899  18.897  0.00  0.00    -0.263 NA
ATOM     40  C   UNL     1      27.107  12.269  18.244  0.00  0.00    +0.111 A 
ENDBRANCH   4   3
ENDBRANCH  10   9
BRANCH  12  13
ATOM     13  N   UNL     1      34.168  11.834  27.806  0.00  0.00    -0.281 N 
ATOM     14  C   UNL     1      34.747  13.092  27.833  0.00  0.00    +0.248 C 
ATOM     30  O   UNL     1      34.211  14.109  27.416  0.00  0.00    -0.270 OA
ATOM     31  H   UNL     1      34.791  11.050  28.001  0.00  0.00    +0.155 HD
BRANCH  14  15
ATOM     15  C   UNL     1      36.126  13.241  28.389  0.00  0.00    +0.037 A 
ATOM     16  C   UNL     1      37.094  12.143  28.324  0.00  0.00    +0.013 A 
ATOM     17  C   UNL     1      38.412  12.307  28.884  0.00  0.00    +0.005 A 
ATOM     18  C   UNL     1      38.771  13.576  29.512  0.00  0.00    -0.033 A 
ATOM     28  C   UNL     1      37.793  14.651  29.558  0.00  0.00    +0.005 A 
ATOM     29  C   UNL     1      36.500  14.493  29.011  0.00  0.00    +0.013 A 
BRANCH  18  19
ATOM     19  C   UNL     1      40.147  13.832  30.154  0.00  0.00    +0.119 C 
BRANCH  19  20
ATOM     20  N   UNL     1      41.211  14.412  29.281  0.00  0.00    -0.302 NA
ATOM     21  C   UNL     1      41.914  13.340  28.443  0.00  0.00    +0.066 C 
ATOM     22  C   UNL     1      43.009  13.967  27.519  0.00  0.00    -0.064 C 
ATOM     23  N   UNL     1      44.018  14.732  28.376  0.00  0.00    +0.379 N 
ATOM     24  C   UNL     1      45.081  15.274  27.516  0.00  0.00    -0.096 C 
ATOM     25  H   UNL     1      44.488  14.003  29.076  0.00  0.00    -0.082 HD
ATOM     26  C   UNL     1      43.328  15.798  29.215  0.00  0.00    -0.064 C 
ATOM     27  C   UNL     1      42.222  15.169  30.108  0.00  0.00    +0.066 C 
ENDBRANCH  19  20
ENDBRANCH  18  19
ENDBRANCH  14  15
ENDBRANCH  12  13
TORSDOF 6
ENDMDL
MODEL 4
REMARK VINA RESULT:      -8.9     17.065     23.233
REMARK  Name = C:\Users\Docking\Desktop\test protocol\1iep_ligandH.pdb
REMARK  8 active torsions:
REMARK  status: ('A' for Active; 'I' for Inactive)
REMARK    1  A    between atoms: _5  and  _11
REMARK    2  A    between atoms: _19  and  _21
REMARK    3  A    between atoms: _22  and  _66
REMARK    4  A    between atoms: _27  and  _30
REMARK    5  A    between atoms: _32  and  _33
REMARK    6  A    between atoms: _38  and  _43
REMARK    7  A    between atoms: _43  and  _46
REMARK    8  A    between atoms: _53  and  _55
REMARK                            x       y       z     vdW  Elec       q    Type
REMARK                         _______ _______ _______ _____ _____    ______ ____
ROOT
ATOM     10  C   UNL     1      30.457  11.437  25.910  0.00  0.00    +0.038 A 
ATOM     11  C   UNL     1      31.782  11.876  26.159  0.00  0.00    +0.047 A 
ATOM     12  C   UNL     1      32.451  11.572  27.415  0.00  0.00    +0.035 A 
ATOM     32  C   UNL     1      31.741  10.817  28.393  0.00  0.00    +0.024 A 
ATOM     33  C   UNL     1      30.393  10.364  28.156  0.00  0.00    +0.007 A 
ATOM     34  C   UNL     1      29.727  10.663  26.921  0.00  0.00    -0.029 A 
ATOM     35  C   UNL     1      28.279  10.158  26.724  0.00  0.00    +0.045 C 
ENDROOT
BRANCH  10   9
ATOM      4  C   UNL     1      28.989  10.285  21.487  0.00  0.00    +0.077 A 
ATOM      5  C   UNL     1      29.471   8.940  21.614  0.00  0.00    +0.048 A 
ATOM      6  C   UNL     1      30.097   8.587  22.830  0.00  0.00    +0.116 A 
ATOM      7  N   UNL     1      30.226   9.518  23.838  0.00  0.00    -0.223 NA
ATOM      8  C   UNL     1      29.751  10.807  23.683  0.00  0.00    +0.220 A 
ATOM      9  N   UNL     1      29.863  11.757  24.687  0.00  0.00    -0.283 N 
ATOM     36  H   UNL     1      29.507  12.700  24.530  0.00  0.00    +0.155 HD
ATOM     37  N   UNL     1      29.151  11.170  22.530  0.00  0.00    -0.214 NA
BRANCH   4   3
ATOM      1  C   UNL     1      26.847  10.527  18.223  0.00  0.00    +0.020 A 
ATOM      2  C   UNL     1      27.489   9.971  19.392  0.00  0.00    +0.013 A 
ATOM      3  C   UNL     1      28.303  10.809  20.264  0.00  0.00    +0.019 A 
ATOM     38  C   UNL     1      28.447  12.216  19.923  0.00  0.00    +0.120 A 
ATOM     39  N   UNL     1      27.818  12.723  18.790  0.00  0.00    -0.263 NA
ATOM     40  C   UNL     1      27.034  11.926  17.942  0.00  0.00    +0.111 A 
ENDBRANCH   4   3
ENDBRANCH  10   9
BRANCH  12  13
ATOM     13  N   UNL     1      33.793  11.998  27.728  0.00  0.00    -0.281 N 
ATOM     14  C   UNL     1      34.332  13.269  27.614  0.00  0.00    +0.248 C 
ATOM     30  O   UNL     1      33.799  14.195  27.020  0.00  0.00    -0.270 OA
ATOM     31  H   UNL     1      34.422  11.274  28.075  0.00  0.00    +0.155 HD
BRANCH  14  15
ATOM     15  C   UNL     1      35.661  13.548  28.237  0.00  0.00    +0.037 A 
ATOM     16  C   UNL     1      36.667  12.494  28.387  0.00  0.00    +0.013 A 
ATOM     17  C   UNL     1      37.935  12.786  29.008  0.00  0.00    +0.005 A 
ATOM     18  C   UNL     1      38.204  14.141  29.482  0.00  0.00    -0.033 A 
ATOM     28  C   UNL     1      37.190  15.170  29.316  0.00  0.00    +0.005 A 
ATOM     29  C   UNL     1      35.946  14.887  28.709  0.00  0.00    +0.013 A 
BRANCH  18  19
ATOM     19  C   UNL     1      39.521  14.538  30.175  0.00  0.00    +0.119 C 
BRANCH  19  20
ATOM     20  N   UNL     1      39.777  13.972  31.533  0.00  0.00    -0.302 NA
ATOM     21  C   UNL     1      38.825  14.549  32.585  0.00  0.00    +0.066 C 
ATOM     22  C   UNL     1      39.092  13.929  33.995  0.00  0.00    -0.064 C 
ATOM     23  N   UNL     1      40.549  14.175  34.390  0.00  0.00    +0.379 N 
ATOM     24  C   UNL     1      40.788  13.644  35.740  0.00  0.00    -0.096 C 
ATOM     25  H   UNL     1      40.707  15.278  34.427  0.00  0.00    -0.082 HD
ATOM     26  C   UNL     1      41.502  13.607  33.348  0.00  0.00    -0.064 C 
ATOM     27  C   UNL     1      41.209  14.208  31.945  0.00  0.00    +0.066 C 
ENDBRANCH  19  20
ENDBRANCH  18  19
ENDBRANCH  14  15
ENDBRANCH  12  13
TORSDOF 6
ENDMDL
MODEL 5
REMARK VINA RESULT:      -8.8      4.596     12.855
REMARK  Name = C:\Users\Docking\Desktop\test protocol\1iep_ligandH.pdb
REMARK  8 active torsions:
REMARK  status: ('A' for Active; 'I' for Inactive)
REMARK    1  A    between atoms: _5  and  _11
REMARK    2  A    between atoms: _19  and  _21
REMARK    3  A    between atoms: _22  and  _66
REMARK    4  A    between atoms: _27  and  _30
REMARK    5  A    between atoms: _32  and  _33
REMARK    6  A    between atoms: _38  and  _43
REMARK    7  A    between atoms: _43  and  _46
REMARK    8  A    between atoms: _53  and  _55
REMARK                            x       y       z     vdW  Elec       q    Type
REMARK                         _______ _______ _______ _____ _____    ______ ____
ROOT
ATOM     10  C   UNL     1      12.040  11.297  31.232  0.00  0.00    +0.038 A 
ATOM     11  C   UNL     1      12.649  11.894  32.365  0.00  0.00    +0.047 A 
ATOM     12  C   UNL     1      13.688  11.203  33.114  0.00  0.00    +0.035 A 
ATOM     32  C   UNL     1      14.084   9.905  32.678  0.00  0.00    +0.024 A 
ATOM     33  C   UNL     1      13.474   9.282  31.530  0.00  0.00    +0.007 A 
ATOM     34  C   UNL     1      12.448   9.958  30.789  0.00  0.00    -0.029 A 
ATOM     35  C   UNL     1      11.825   9.240  29.569  0.00  0.00    +0.045 C 
ENDROOT
BRANCH  10   9
ATOM      4  C   UNL     1       7.767  13.473  31.041  0.00  0.00    +0.077 A 
ATOM      5  C   UNL     1       7.474  13.147  32.407  0.00  0.00    +0.048 A 
ATOM      6  C   UNL     1       8.446  12.412  33.122  0.00  0.00    +0.116 A 
ATOM      7  N   UNL     1       9.620  12.037  32.507  0.00  0.00    -0.223 NA
ATOM      8  C   UNL     1       9.871  12.366  31.187  0.00  0.00    +0.220 A 
ATOM      9  N   UNL     1      11.048  12.005  30.551  0.00  0.00    -0.283 N 
ATOM     36  H   UNL     1      11.192  12.261  29.574  0.00  0.00    +0.155 HD
ATOM     37  N   UNL     1       8.958  13.066  30.483  0.00  0.00    -0.214 NA
BRANCH   4   3
ATOM      1  C   UNL     1       6.184  16.319  28.874  0.00  0.00    +0.020 A 
ATOM      2  C   UNL     1       7.111  15.615  29.729  0.00  0.00    +0.013 A 
ATOM      3  C   UNL     1       6.841  14.248  30.156  0.00  0.00    +0.019 A 
ATOM     38  C   UNL     1       5.614  13.616  29.695  0.00  0.00    +0.120 A 
ATOM     39  N   UNL     1       4.739  14.319  28.872  0.00  0.00    -0.263 NA
ATOM     40  C   UNL     1       4.988  15.636  28.457  0.00  0.00    +0.111 A 
ENDBRANCH   4   3
ENDBRANCH  10   9
BRANCH  12  13
ATOM     13  N   UNL     1      14.336  11.756  34.277  0.00  0.00    -0.281 N 
ATOM     14  C   UNL     1      14.146  11.408  35.604  0.00  0.00    +0.248 C 
ATOM     30  O   UNL     1      13.228  10.712  36.011  0.00  0.00    -0.270 OA
ATOM     31  H   UNL     1      15.018  12.494  34.100  0.00  0.00    +0.155 HD
BRANCH  14  15
ATOM     15  C   UNL     1      15.106  11.919  36.629  0.00  0.00    +0.037 A 
ATOM     16  C   UNL     1      16.545  11.668  36.514  0.00  0.00    +0.013 A 
ATOM     17  C   UNL     1      17.448  12.158  37.526  0.00  0.00    +0.005 A 
ATOM     18  C   UNL     1      16.913  12.906  38.662  0.00  0.00    -0.033 A 
ATOM     28  C   UNL     1      15.482  13.145  38.748  0.00  0.00    +0.005 A 
ATOM     29  C   UNL     1      14.594  12.666  37.759  0.00  0.00    +0.013 A 
BRANCH  18  19
ATOM     19  C   UNL     1      17.800  13.447  39.798  0.00  0.00    +0.119 C 
BRANCH  19  20
ATOM     20  N   UNL     1      18.796  12.509  40.395  0.00  0.00    -0.302 NA
ATOM     21  C   UNL     1      18.140  11.224  40.909  0.00  0.00    +0.066 C 
ATOM     22  C   UNL     1      19.200  10.244  41.508  0.00  0.00    -0.064 C 
ATOM     23  N   UNL     1      19.964  10.948  42.631  0.00  0.00    +0.379 N 
ATOM     24  C   UNL     1      20.922  10.011  43.236  0.00  0.00    -0.096 C 
ATOM     25  H   UNL     1      19.225  11.231  43.416  0.00  0.00    -0.082 HD
ATOM     26  C   UNL     1      20.618  12.228  42.129  0.00  0.00    -0.064 C 
ATOM     27  C   UNL     1      19.560  13.182  41.508  0.00  0.00    +0.066 C 
ENDBRANCH  19  20
ENDBRANCH  18  19
ENDBRANCH  14  15
ENDBRANCH  12  13
TORSDOF 6
ENDMDL
