MODEL 1
REMARK VINA RESULT:     -10.1      0.000      0.000
REMARK  Name = C:\Users\Docking\Desktop\test protocol\1iep_ligandH.pdb
REMARK  8 active torsions:
REMARK  status: ('A' for Active; 'I' for Inactive)
REMARK    1  A    between atoms: _5  and  _11
REMARK    2  A    between atoms: _19  and  _21
REMARK    3  A    between atoms: _22  and  _66
REMARK    4  A    between atoms: _27  and  _30
REMARK    5  A    between atoms: _32  and  _33
REMARK    6  A    between atoms: _38  and  _43
REMARK    7  A    between atoms: _43  and  _46
REMARK    8  A    between atoms: _53  and  _55
REMARK                            x       y       z     vdW  Elec       q    Type
REMARK                         _______ _______ _______ _____ _____    ______ ____
ROOT
ATOM     10  C   UNL     1      14.612  12.960  39.166  0.00  0.00    +0.038 A 
ATOM     11  C   UNL     1      14.772  12.460  37.848  0.00  0.00    +0.047 A 
ATOM     12  C   UNL     1      13.656  12.430  36.915  0.00  0.00    +0.035 A 
ATOM     32  C   UNL     1      12.392  12.919  37.357  0.00  0.00    +0.024 A 
ATOM     33  C   UNL     1      12.212  13.429  38.693  0.00  0.00    +0.007 A 
ATOM     34  C   UNL     1      13.308  13.460  39.618  0.00  0.00    -0.029 A 
ATOM     35  C   UNL     1      13.056  14.012  41.041  0.00  0.00    +0.045 C 
ENDROOT
BRANCH  10   9
ATOM      4  C   UNL     1      19.257  13.763  40.072  0.00  0.00    +0.077 A 
ATOM      5  C   UNL     1      19.509  14.180  38.723  0.00  0.00    +0.048 A 
ATOM      6  C   UNL     1      18.418  14.166  37.825  0.00  0.00    +0.116 A 
ATOM      7  N   UNL     1      17.172  13.764  38.255  0.00  0.00    -0.223 NA
ATOM      8  C   UNL     1      16.964  13.367  39.563  0.00  0.00    +0.220 A 
ATOM      9  N   UNL     1      15.717  12.966  40.020  0.00  0.00    -0.283 N 
ATOM     36  H   UNL     1      15.606  12.673  40.990  0.00  0.00    +0.155 HD
ATOM     37  N   UNL     1      17.990  13.369  40.439  0.00  0.00    -0.214 NA
BRANCH   4   3
ATOM      1  C   UNL     1      22.488  14.480  42.156  0.00  0.00    +0.020 A 
ATOM      2  C   UNL     1      21.505  14.554  41.100  0.00  0.00    +0.013 A 
ATOM      3  C   UNL     1      20.307  13.725  41.139  0.00  0.00    +0.019 A 
ATOM     38  C   UNL     1      20.131  12.826  42.269  0.00  0.00    +0.120 A 
ATOM     39  N   UNL     1      21.096  12.775  43.271  0.00  0.00    -0.263 NA
ATOM     40  C   UNL     1      22.254  13.566  43.243  0.00  0.00    +0.111 A 
ENDBRANCH   4   3
ENDBRANCH  10   9
BRANCH  12  13
ATOM     13  N   UNL     1      13.756  11.926  35.567  0.00  0.00    -0.281 N 
ATOM     14  C   UNL     1      14.035  10.632  35.160  0.00  0.00    +0.248 C 
ATOM     30  O   UNL     1      14.454   9.751  35.896  0.00  0.00    -0.270 OA
ATOM     31  H   UNL     1      13.602  12.607  34.823  0.00  0.00    +0.155 HD
BRANCH  14  15
ATOM     15  C   UNL     1      13.833  10.267  33.725  0.00  0.00    +0.037 A 
ATOM     16  C   UNL     1      13.287  11.231  32.765  0.00  0.00    +0.013 A 
ATOM     17  C   UNL     1      13.086  10.847  31.390  0.00  0.00    +0.005 A 
ATOM     18  C   UNL     1      13.433   9.493  30.966  0.00  0.00    -0.033 A 
ATOM     28  C   UNL     1      13.978   8.559  31.938  0.00  0.00    +0.005 A 
ATOM     29  C   UNL     1      14.175   8.931  33.287  0.00  0.00    +0.013 A 
BRANCH  18  19
ATOM     19  C   UNL     1      13.233   8.991  29.524  0.00  0.00    +0.119 C 
BRANCH  19  20
ATOM     20  N   UNL     1      14.302   8.122  28.948  0.00  0.00    -0.302 NA
ATOM     21  C   UNL     1      15.533   8.929  28.527  0.00  0.00    +0.066 C 
ATOM     22  C   UNL     1      16.650   8.001  27.947  0.00  0.00    -0.064 C 
ATOM     23  N   UNL     1      16.090   7.211  26.763  0.00  0.00    +0.379 N 
ATOM     24  C   UNL     1      17.154   6.381  26.180  0.00  0.00    -0.096 C 
ATOM     25  H   UNL     1      15.770   7.946  25.988  0.00  0.00    -0.082 HD
ATOM     26  C   UNL     1      14.863   6.408  27.172  0.00  0.00    -0.064 C 
ATOM     27  C   UNL     1      13.771   7.336  27.774  0.00  0.00    +0.066 C 
ENDBRANCH  19  20
ENDBRANCH  18  19
ENDBRANCH  14  15
ENDBRANCH  12  13
TORSDOF 6
ENDMDL
MODEL 2
REMARK VINA RESULT:      -9.9      2.403     12.456
REMARK  Name = C:\Users\Docking\Desktop\test protocol\1iep_ligandH.pdb
REMARK  8 active torsions:
REMARK  status: ('A' for Active; 'I' for Inactive)
REMARK    1  A    between atoms: _5  and  _11
REMARK    2  A    between atoms: _19  and  _21
REMARK    3  A    between atoms: _22  and  _66
REMARK    4  A    between atoms: _27  and  _30
REMARK    5  A    between atoms: _32  and  _33
REMARK    6  A    between atoms: _38  and  _43
REMARK    7  A    between atoms: _43  and  _46
REMARK    8  A    between atoms: _53  and  _55
REMARK                            x       y       z     vdW  Elec       q    Type
REMARK                         _______ _______ _______ _____ _____    ______ ____
ROOT
ATOM     10  C   UNL     1      14.340  12.668  37.175  0.00  0.00    +0.038 A 
ATOM     11  C   UNL     1      15.611  12.592  37.801  0.00  0.00    +0.047 A 
ATOM     12  C   UNL     1      15.778  12.923  39.207  0.00  0.00    +0.035 A 
ATOM     32  C   UNL     1      14.629  13.326  39.948  0.00  0.00    +0.024 A 
ATOM     33  C   UNL     1      13.330  13.410  39.328  0.00  0.00    +0.007 A 
ATOM     34  C   UNL     1      13.159  13.086  37.940  0.00  0.00    -0.029 A 
ATOM     35  C   UNL     1      11.744  13.200  37.326  0.00  0.00    +0.045 C 
ENDROOT
BRANCH  10   9
ATOM      4  C   UNL     1      13.835   9.481  33.622  0.00  0.00    +0.077 A 
ATOM      5  C   UNL     1      13.802   8.377  34.537  0.00  0.00    +0.048 A 
ATOM      6  C   UNL     1      13.925   8.671  35.914  0.00  0.00    +0.116 A 
ATOM      7  N   UNL     1      14.070   9.976  36.332  0.00  0.00    -0.223 NA
ATOM      8  C   UNL     1      14.100  11.017  35.423  0.00  0.00    +0.220 A 
ATOM      9  N   UNL     1      14.237  12.338  35.822  0.00  0.00    -0.283 N 
ATOM     36  H   UNL     1      14.262  13.077  35.120  0.00  0.00    +0.155 HD
ATOM     37  N   UNL     1      13.986  10.762  34.103  0.00  0.00    -0.214 NA
BRANCH   4   3
ATOM      1  C   UNL     1      14.574   8.577  29.888  0.00  0.00    +0.020 A 
ATOM      2  C   UNL     1      14.740   8.697  31.319  0.00  0.00    +0.013 A 
ATOM      3  C   UNL     1      13.714   9.331  32.137  0.00  0.00    +0.019 A 
ATOM     38  C   UNL     1      12.523   9.838  31.473  0.00  0.00    +0.120 A 
ATOM     39  N   UNL     1      12.391   9.710  30.093  0.00  0.00    -0.263 NA
ATOM     40  C   UNL     1      13.372   9.103  29.295  0.00  0.00    +0.111 A 
ENDBRANCH   4   3
ENDBRANCH  10   9
BRANCH  12  13
ATOM     13  N   UNL     1      17.045  12.873  39.894  0.00  0.00    -0.281 N 
ATOM     14  C   UNL     1      18.102  13.763  39.799  0.00  0.00    +0.248 C 
ATOM     30  O   UNL     1      18.201  14.629  38.942  0.00  0.00    -0.270 OA
ATOM     31  H   UNL     1      17.179  12.084  40.527  0.00  0.00    +0.155 HD
BRANCH  14  15
ATOM     15  C   UNL     1      19.216  13.670  40.791  0.00  0.00    +0.037 A 
ATOM     16  C   UNL     1      19.018  13.043  42.100  0.00  0.00    +0.013 A 
ATOM     17  C   UNL     1      20.105  12.982  43.045  0.00  0.00    +0.005 A 
ATOM     18  C   UNL     1      21.401  13.548  42.682  0.00  0.00    -0.033 A 
ATOM     28  C   UNL     1      21.572  14.160  41.375  0.00  0.00    +0.005 A 
ATOM     29  C   UNL     1      20.508  14.223  40.446  0.00  0.00    +0.013 A 
BRANCH  18  19
ATOM     19  C   UNL     1      22.611  13.546  43.635  0.00  0.00    +0.119 C 
BRANCH  19  20
ATOM     20  N   UNL     1      23.969  13.626  43.018  0.00  0.00    -0.302 NA
ATOM     21  C   UNL     1      24.602  12.243  42.843  0.00  0.00    +0.066 C 
ATOM     22  C   UNL     1      26.012  12.343  42.175  0.00  0.00    -0.064 C 
ATOM     23  N   UNL     1      26.911  13.248  43.020  0.00  0.00    +0.379 N 
ATOM     24  C   UNL     1      28.255  13.298  42.426  0.00  0.00    -0.096 C 
ATOM     25  H   UNL     1      27.004  12.784  44.030  0.00  0.00    -0.082 HD
ATOM     26  C   UNL     1      26.287  14.624  43.201  0.00  0.00    -0.064 C 
ATOM     27  C   UNL     1      24.874  14.511  43.838  0.00  0.00    +0.066 C 
ENDBRANCH  19  20
ENDBRANCH  18  19
ENDBRANCH  14  15
ENDBRANCH  12  13
TORSDOF 6
ENDMDL
MODEL 3
REMARK VINA RESULT:      -9.8      1.759      2.752
REMARK  Name = C:\Users\Docking\Desktop\test protocol\1iep_ligandH.pdb
REMARK  8 active torsions:
REMARK  status: ('A' for Active; 'I' for Inactive)
REMARK    1  A    between atoms: _5  and  _11
REMARK    2  A    between atoms: _19  and  _21
REMARK    3  A    between atoms: _22  and  _66
REMARK    4  A    between atoms: _27  and  _30
REMARK    5  A    between atoms: _32  and  _33
REMARK    6  A    between atoms: _38  and  _43
REMARK    7  A    between atoms: _43  and  _46
REMARK    8  A    between atoms: _53  and  _55
REMARK                            x       y       z     vdW  Elec       q    Type
REMARK                         _______ _______ _______ _____ _____    ______ ____
ROOT
ATOM     10  C   UNL     1      14.573  13.030  39.246  0.00  0.00    +0.038 A 
ATOM     11  C   UNL     1      14.719  12.490  37.943  0.00  0.00    +0.047 A 
ATOM     12  C   UNL     1      13.605  12.470  37.008  0.00  0.00    +0.035 A 
ATOM     32  C   UNL     1      12.356  13.009  37.433  0.00  0.00    +0.024 A 
ATOM     33  C   UNL     1      12.189  13.560  38.754  0.00  0.00    +0.007 A 
ATOM     34  C   UNL     1      13.284  13.581  39.682  0.00  0.00    -0.029 A 
ATOM     35  C   UNL     1      13.046  14.179  41.088  0.00  0.00    +0.045 C 
ENDROOT
BRANCH  10   9
ATOM      4  C   UNL     1      19.233  13.737  40.152  0.00  0.00    +0.077 A 
ATOM      5  C   UNL     1      19.498  14.124  38.796  0.00  0.00    +0.048 A 
ATOM      6  C   UNL     1      18.409  14.121  37.895  0.00  0.00    +0.116 A 
ATOM      7  N   UNL     1      17.153  13.757  38.329  0.00  0.00    -0.223 NA
ATOM      8  C   UNL     1      16.932  13.387  39.643  0.00  0.00    +0.220 A 
ATOM      9  N   UNL     1      15.676  13.024  40.103  0.00  0.00    -0.283 N 
ATOM     36  H   UNL     1      15.555  12.751  41.078  0.00  0.00    +0.155 HD
ATOM     37  N   UNL     1      17.956  13.380  40.522  0.00  0.00    -0.214 NA
BRANCH   4   3
ATOM      1  C   UNL     1      22.489  14.390  42.218  0.00  0.00    +0.020 A 
ATOM      2  C   UNL     1      21.511  14.469  41.158  0.00  0.00    +0.013 A 
ATOM      3  C   UNL     1      20.279  13.692  41.222  0.00  0.00    +0.019 A 
ATOM     38  C   UNL     1      20.065  12.841  42.382  0.00  0.00    +0.120 A 
ATOM     39  N   UNL     1      21.026  12.784  43.387  0.00  0.00    -0.263 NA
ATOM     40  C   UNL     1      22.216  13.526  43.336  0.00  0.00    +0.111 A 
ENDBRANCH   4   3
ENDBRANCH  10   9
BRANCH  12  13
ATOM     13  N   UNL     1      13.692  11.928  35.674  0.00  0.00    -0.281 N 
ATOM     14  C   UNL     1      14.177  10.689  35.288  0.00  0.00    +0.248 C 
ATOM     30  O   UNL     1      14.811   9.938  36.015  0.00  0.00    -0.270 OA
ATOM     31  H   UNL     1      13.355  12.531  34.924  0.00  0.00    +0.155 HD
BRANCH  14  15
ATOM     15  C   UNL     1      13.936  10.223  33.889  0.00  0.00    +0.037 A 
ATOM     16  C   UNL     1      14.046   8.807  33.530  0.00  0.00    +0.013 A 
ATOM     17  C   UNL     1      13.825   8.387  32.169  0.00  0.00    +0.005 A 
ATOM     18  C   UNL     1      13.489   9.385  31.156  0.00  0.00    -0.033 A 
ATOM     28  C   UNL     1      13.381  10.782  31.541  0.00  0.00    +0.005 A 
ATOM     29  C   UNL     1      13.598  11.198  32.874  0.00  0.00    +0.013 A 
BRANCH  18  19
ATOM     19  C   UNL     1      13.256   9.029  29.676  0.00  0.00    +0.119 C 
BRANCH  19  20
ATOM     20  N   UNL     1      11.887   9.255  29.125  0.00  0.00    -0.302 NA
ATOM     21  C   UNL     1      10.851   8.323  29.762  0.00  0.00    +0.066 C 
ATOM     22  C   UNL     1       9.420   8.587  29.190  0.00  0.00    -0.064 C 
ATOM     23  N   UNL     1       9.441   8.417  27.670  0.00  0.00    +0.379 N 
ATOM     24  C   UNL     1       8.085   8.608  27.137  0.00  0.00    -0.096 C 
ATOM     25  H   UNL     1       9.746   7.367  27.453  0.00  0.00    -0.082 HD
ATOM     26  C   UNL     1      10.470   9.338  27.030  0.00  0.00    -0.064 C 
ATOM     27  C   UNL     1      11.883   9.087  27.626  0.00  0.00    +0.066 C 
ENDBRANCH  19  20
ENDBRANCH  18  19
ENDBRANCH  14  15
ENDBRANCH  12  13
TORSDOF 6
ENDMDL
MODEL 4
REMARK VINA RESULT:      -9.6      4.452     12.957
REMARK  Name = C:\Users\Docking\Desktop\test protocol\1iep_ligandH.pdb
REMARK  8 active torsions:
REMARK  status: ('A' for Active; 'I' for Inactive)
REMARK    1  A    between atoms: _5  and  _11
REMARK    2  A    between atoms: _19  and  _21
REMARK    3  A    between atoms: _22  and  _66
REMARK    4  A    between atoms: _27  and  _30
REMARK    5  A    between atoms: _32  and  _33
REMARK    6  A    between atoms: _38  and  _43
REMARK    7  A    between atoms: _43  and  _46
REMARK    8  A    between atoms: _53  and  _55
REMARK                            x       y       z     vdW  Elec       q    Type
REMARK                         _______ _______ _______ _____ _____    ______ ____
ROOT
ATOM     10  C   UNL     1      12.029  11.274  31.280  0.00  0.00    +0.038 A 
ATOM     11  C   UNL     1      12.555  11.867  32.456  0.00  0.00    +0.047 A 
ATOM     12  C   UNL     1      13.626  11.229  33.206  0.00  0.00    +0.035 A 
ATOM     32  C   UNL     1      14.140   9.988  32.728  0.00  0.00    +0.024 A 
ATOM     33  C   UNL     1      13.616   9.371  31.535  0.00  0.00    +0.007 A 
ATOM     34  C   UNL     1      12.558   9.994  30.793  0.00  0.00    -0.029 A 
ATOM     35  C   UNL     1      12.031   9.284  29.524  0.00  0.00    +0.045 C 
ENDROOT
BRANCH  10   9
ATOM      4  C   UNL     1       8.004  13.887  31.193  0.00  0.00    +0.077 A 
ATOM      5  C   UNL     1       7.928  13.925  32.625  0.00  0.00    +0.048 A 
ATOM      6  C   UNL     1       8.940  13.254  33.347  0.00  0.00    +0.116 A 
ATOM      7  N   UNL     1       9.949  12.597  32.676  0.00  0.00    -0.223 NA
ATOM      8  C   UNL     1       9.992  12.578  31.294  0.00  0.00    +0.220 A 
ATOM      9  N   UNL     1      11.001  11.930  30.599  0.00  0.00    -0.283 N 
ATOM     36  H   UNL     1      10.993  11.932  29.580  0.00  0.00    +0.155 HD
ATOM     37  N   UNL     1       9.036  13.210  30.582  0.00  0.00    -0.214 NA
BRANCH   4   3
ATOM      1  C   UNL     1       4.987  14.519  28.784  0.00  0.00    +0.020 A 
ATOM      2  C   UNL     1       5.920  13.830  29.646  0.00  0.00    +0.013 A 
ATOM      3  C   UNL     1       7.010  14.551  30.291  0.00  0.00    +0.019 A 
ATOM     38  C   UNL     1       7.129  15.979  30.041  0.00  0.00    +0.120 A 
ATOM     39  N   UNL     1       6.217  16.616  29.205  0.00  0.00    -0.263 NA
ATOM     40  C   UNL     1       5.165  15.932  28.578  0.00  0.00    +0.111 A 
ENDBRANCH   4   3
ENDBRANCH  10   9
BRANCH  12  13
ATOM     13  N   UNL     1      14.195  11.780  34.412  0.00  0.00    -0.281 N 
ATOM     14  C   UNL     1      14.610  11.100  35.545  0.00  0.00    +0.248 C 
ATOM     30  O   UNL     1      14.358   9.927  35.779  0.00  0.00    -0.270 OA
ATOM     31  H   UNL     1      14.304  12.794  34.432  0.00  0.00    +0.155 HD
BRANCH  14  15
ATOM     15  C   UNL     1      15.410  11.832  36.573  0.00  0.00    +0.037 A 
ATOM     16  C   UNL     1      14.767  12.467  37.726  0.00  0.00    +0.013 A 
ATOM     17  C   UNL     1      15.560  13.182  38.695  0.00  0.00    +0.005 A 
ATOM     18  C   UNL     1      17.008  13.264  38.514  0.00  0.00    -0.033 A 
ATOM     28  C   UNL     1      17.621  12.621  37.364  0.00  0.00    +0.005 A 
ATOM     29  C   UNL     1      16.846  11.920  36.412  0.00  0.00    +0.013 A 
BRANCH  18  19
ATOM     19  C   UNL     1      17.930  14.024  39.486  0.00  0.00    +0.119 C 
BRANCH  19  20
ATOM     20  N   UNL     1      18.332  13.318  40.739  0.00  0.00    -0.302 NA
ATOM     21  C   UNL     1      17.651  13.911  41.976  0.00  0.00    +0.066 C 
ATOM     22  C   UNL     1      18.066  13.147  43.275  0.00  0.00    -0.064 C 
ATOM     23  N   UNL     1      19.588  13.187  43.423  0.00  0.00    +0.379 N 
ATOM     24  C   UNL     1      19.977  12.519  44.674  0.00  0.00    -0.096 C 
ATOM     25  H   UNL     1      19.892  14.257  43.502  0.00  0.00    -0.082 HD
ATOM     26  C   UNL     1      20.273  12.602  42.196  0.00  0.00    -0.064 C 
ATOM     27  C   UNL     1      19.832  13.350  40.907  0.00  0.00    +0.066 C 
ENDBRANCH  19  20
ENDBRANCH  18  19
ENDBRANCH  14  15
ENDBRANCH  12  13
TORSDOF 6
ENDMDL
MODEL 5
REMARK VINA RESULT:      -9.5      1.688      2.479
REMARK  Name = C:\Users\Docking\Desktop\test protocol\1iep_ligandH.pdb
REMARK  8 active torsions:
REMARK  status: ('A' for Active; 'I' for Inactive)
REMARK    1  A    between atoms: _5  and  _11
REMARK    2  A    between atoms: _19  and  _21
REMARK    3  A    between atoms: _22  and  _66
REMARK    4  A    between atoms: _27  and  _30
REMARK    5  A    between atoms: _32  and  _33
REMARK    6  A    between atoms: _38  and  _43
REMARK    7  A    between atoms: _43  and  _46
REMARK    8  A    between atoms: _53  and  _55
REMARK                            x       y       z     vdW  Elec       q    Type
REMARK                         _______ _______ _______ _____ _____    ______ ____
ROOT
ATOM     10  C   UNL     1      14.294  12.606  37.356  0.00  0.00    +0.038 A 
ATOM     11  C   UNL     1      14.397  11.901  36.130  0.00  0.00    +0.047 A 
ATOM     12  C   UNL     1      13.214  11.386  35.456  0.00  0.00    +0.035 A 
ATOM     32  C   UNL     1      11.942  11.610  36.059  0.00  0.00    +0.024 A 
ATOM     33  C   UNL     1      11.820  12.324  37.306  0.00  0.00    +0.007 A 
ATOM     34  C   UNL     1      12.982  12.832  37.976  0.00  0.00    -0.029 A 
ATOM     35  C   UNL     1      12.792  13.584  39.314  0.00  0.00    +0.045 C 
ENDROOT
BRANCH  10   9
ATOM      4  C   UNL     1      18.085  12.058  40.247  0.00  0.00    +0.077 A 
ATOM      5  C   UNL     1      17.692  10.726  40.608  0.00  0.00    +0.048 A 
ATOM      6  C   UNL     1      16.504  10.222  40.033  0.00  0.00    +0.116 A 
ATOM      7  N   UNL     1      15.772  11.001  39.163  0.00  0.00    -0.223 NA
ATOM      8  C   UNL     1      16.178  12.282  38.838  0.00  0.00    +0.220 A 
ATOM      9  N   UNL     1      15.462  13.079  37.959  0.00  0.00    -0.283 N 
ATOM     36  H   UNL     1      15.791  14.022  37.750  0.00  0.00    +0.155 HD
ATOM     37  N   UNL     1      17.308  12.786  39.374  0.00  0.00    -0.214 NA
BRANCH   4   3
ATOM      1  C   UNL     1      21.176  12.995  42.455  0.00  0.00    +0.020 A 
ATOM      2  C   UNL     1      19.988  12.313  41.995  0.00  0.00    +0.013 A 
ATOM      3  C   UNL     1      19.318  12.729  40.769  0.00  0.00    +0.019 A 
ATOM     38  C   UNL     1      19.880  13.847  40.026  0.00  0.00    +0.120 A 
ATOM     39  N   UNL     1      21.024  14.485  40.494  0.00  0.00    -0.263 NA
ATOM     40  C   UNL     1      21.677  14.095  41.673  0.00  0.00    +0.111 A 
ENDBRANCH   4   3
ENDBRANCH  10   9
BRANCH  12  13
ATOM     13  N   UNL     1      13.258  10.656  34.214  0.00  0.00    -0.281 N 
ATOM     14  C   UNL     1      12.779  11.053  32.976  0.00  0.00    +0.248 C 
ATOM     30  O   UNL     1      12.046  12.013  32.794  0.00  0.00    -0.270 OA
ATOM     31  H   UNL     1      13.694   9.734  34.252  0.00  0.00    +0.155 HD
BRANCH  14  15
ATOM     15  C   UNL     1      13.159  10.259  31.767  0.00  0.00    +0.037 A 
ATOM     16  C   UNL     1      14.459   9.590  31.675  0.00  0.00    +0.013 A 
ATOM     17  C   UNL     1      14.806   8.845  30.490  0.00  0.00    +0.005 A 
ATOM     18  C   UNL     1      13.850   8.765  29.389  0.00  0.00    -0.033 A 
ATOM     28  C   UNL     1      12.565   9.434  29.509  0.00  0.00    +0.005 A 
ATOM     29  C   UNL     1      12.222  10.166  30.668  0.00  0.00    +0.013 A 
BRANCH  18  19
ATOM     19  C   UNL     1      14.144   8.010  28.079  0.00  0.00    +0.119 C 
BRANCH  19  20
ATOM     20  N   UNL     1      15.561   7.613  27.822  0.00  0.00    -0.302 NA
ATOM     21  C   UNL     1      16.442   8.819  27.483  0.00  0.00    +0.066 C 
ATOM     22  C   UNL     1      17.926   8.389  27.240  0.00  0.00    -0.064 C 
ATOM     23  N   UNL     1      17.975   7.350  26.118  0.00  0.00    +0.379 N 
ATOM     24  C   UNL     1      19.373   6.986  25.847  0.00  0.00    -0.096 C 
ATOM     25  H   UNL     1      17.564   7.826  25.198  0.00  0.00    -0.082 HD
ATOM     26  C   UNL     1      17.099   6.149  26.446  0.00  0.00    -0.064 C 
ATOM     27  C   UNL     1      15.633   6.590  26.715  0.00  0.00    +0.066 C 
ENDBRANCH  19  20
ENDBRANCH  18  19
ENDBRANCH  14  15
ENDBRANCH  12  13
TORSDOF 6
ENDMDL
