MODEL 1
REMARK VINA RESULT:      -9.2      0.000      0.000
REMARK  Name = C:\Users\Docking\Desktop\test protocol\1iep_ligandH.pdb
REMARK  8 active torsions:
REMARK  status: ('A' for Active; 'I' for Inactive)
REMARK    1  A    between atoms: _5  and  _11
REMARK    2  A    between atoms: _19  and  _21
REMARK    3  A    between atoms: _22  and  _66
REMARK    4  A    between atoms: _27  and  _30
REMARK    5  A    between atoms: _32  and  _33
REMARK    6  A    between atoms: _38  and  _43
REMARK    7  A    between atoms: _43  and  _46
REMARK    8  A    between atoms: _53  and  _55
REMARK                            x       y       z     vdW  Elec       q    Type
REMARK                         _______ _______ _______ _____ _____    ______ ____
ROOT
ATOM     10  C   UNL     1      14.699  12.958  39.182  0.00  0.00    +0.038 A 
ATOM     11  C   UNL     1      14.861  12.452  37.867  0.00  0.00    +0.047 A 
ATOM     12  C   UNL     1      13.753  12.437  36.925  0.00  0.00    +0.035 A 
ATOM     32  C   UNL     1      12.493  12.948  37.354  0.00  0.00    +0.024 A 
ATOM     33  C   UNL     1      12.311  13.465  38.688  0.00  0.00    +0.007 A 
ATOM     34  C   UNL     1      13.399  13.480  39.622  0.00  0.00    -0.029 A 
ATOM     35  C   UNL     1      13.145  14.041  41.041  0.00  0.00    +0.045 C 
ENDROOT
BRANCH  10   9
ATOM      4  C   UNL     1      19.335  13.748  40.143  0.00  0.00    +0.077 A 
ATOM      5  C   UNL     1      19.598  14.191  38.804  0.00  0.00    +0.048 A 
ATOM      6  C   UNL     1      18.514  14.194  37.897  0.00  0.00    +0.116 A 
ATOM      7  N   UNL     1      17.265  13.783  38.309  0.00  0.00    -0.223 NA
ATOM      8  C   UNL     1      17.046  13.359  39.607  0.00  0.00    +0.220 A 
ATOM      9  N   UNL     1      15.797  12.949  40.045  0.00  0.00    -0.283 N 
ATOM     36  H   UNL     1      15.678  12.637  41.009  0.00  0.00    +0.155 HD
ATOM     37  N   UNL     1      18.065  13.346  40.492  0.00  0.00    -0.214 NA
BRANCH   4   3
ATOM      1  C   UNL     1      22.534  14.447  42.282  0.00  0.00    +0.020 A 
ATOM      2  C   UNL     1      21.559  14.542  41.220  0.00  0.00    +0.013 A 
ATOM      3  C   UNL     1      20.375  13.691  41.217  0.00  0.00    +0.019 A 
ATOM     38  C   UNL     1      20.207  12.748  42.313  0.00  0.00    +0.120 A 
ATOM     39  N   UNL     1      21.163  12.678  43.321  0.00  0.00    -0.263 NA
ATOM     40  C   UNL     1      22.307  13.490  43.334  0.00  0.00    +0.111 A 
ENDBRANCH   4   3
ENDBRANCH  10   9
BRANCH  12  13
ATOM     13  N   UNL     1      13.855  11.928  35.579  0.00  0.00    -0.281 N 
ATOM     14  C   UNL     1      13.993  10.610  35.176  0.00  0.00    +0.248 C 
ATOM     30  O   UNL     1      14.264   9.682  35.924  0.00  0.00    -0.270 OA
ATOM     31  H   UNL     1      13.823  12.624  34.834  0.00  0.00    +0.155 HD
BRANCH  14  15
ATOM     15  C   UNL     1      13.818  10.276  33.730  0.00  0.00    +0.037 A 
ATOM     16  C   UNL     1      13.313  11.267  32.776  0.00  0.00    +0.013 A 
ATOM     17  C   UNL     1      13.138  10.913  31.390  0.00  0.00    +0.005 A 
ATOM     18  C   UNL     1      13.469   9.561  30.948  0.00  0.00    -0.033 A 
ATOM     28  C   UNL     1      13.972   8.598  31.914  0.00  0.00    +0.005 A 
ATOM     29  C   UNL     1      14.145   8.941  33.274  0.00  0.00    +0.013 A 
BRANCH  18  19
ATOM     19  C   UNL     1      13.293   9.089  29.493  0.00  0.00    +0.119 C 
BRANCH  19  20
ATOM     20  N   UNL     1      14.325   8.160  28.945  0.00  0.00    -0.302 NA
ATOM     21  C   UNL     1      15.606   8.897  28.543  0.00  0.00    +0.066 C 
ATOM     22  C   UNL     1      16.684   7.906  27.993  0.00  0.00    -0.064 C 
ATOM     23  N   UNL     1      16.106   7.136  26.805  0.00  0.00    +0.379 N 
ATOM     24  C   UNL     1      17.135   6.246  26.250  0.00  0.00    -0.096 C 
ATOM     25  H   UNL     1      15.840   7.879  26.017  0.00  0.00    -0.082 HD
ATOM     26  C   UNL     1      14.830   6.402  27.196  0.00  0.00    -0.064 C 
ATOM     27  C   UNL     1      13.777   7.392  27.768  0.00  0.00    +0.066 C 
ENDBRANCH  19  20
ENDBRANCH  18  19
ENDBRANCH  14  15
ENDBRANCH  12  13
TORSDOF 6
ENDMDL
MODEL 2
REMARK VINA RESULT:      -8.9      1.736      2.707
REMARK  Name = C:\Users\Docking\Desktop\test protocol\1iep_ligandH.pdb
REMARK  8 active torsions:
REMARK  status: ('A' for Active; 'I' for Inactive)
REMARK    1  A    between atoms: _5  and  _11
REMARK    2  A    between atoms: _19  and  _21
REMARK    3  A    between atoms: _22  and  _66
REMARK    4  A    between atoms: _27  and  _30
REMARK    5  A    between atoms: _32  and  _33
REMARK    6  A    between atoms: _38  and  _43
REMARK    7  A    between atoms: _43  and  _46
REMARK    8  A    between atoms: _53  and  _55
REMARK                            x       y       z     vdW  Elec       q    Type
REMARK                         _______ _______ _______ _____ _____    ______ ____
ROOT
ATOM     10  C   UNL     1      14.273  12.473  37.049  0.00  0.00    +0.038 A 
ATOM     11  C   UNL     1      14.416  11.757  35.833  0.00  0.00    +0.047 A 
ATOM     12  C   UNL     1      13.260  11.201  35.147  0.00  0.00    +0.035 A 
ATOM     32  C   UNL     1      11.972  11.395  35.727  0.00  0.00    +0.024 A 
ATOM     33  C   UNL     1      11.809  12.120  36.963  0.00  0.00    +0.007 A 
ATOM     34  C   UNL     1      12.946  12.668  37.645  0.00  0.00    -0.029 A 
ATOM     35  C   UNL     1      12.712  13.430  38.971  0.00  0.00    +0.045 C 
ENDROOT
BRANCH  10   9
ATOM      4  C   UNL     1      17.969  12.104  40.090  0.00  0.00    +0.077 A 
ATOM      5  C   UNL     1      17.571  10.790  40.506  0.00  0.00    +0.048 A 
ATOM      6  C   UNL     1      16.406  10.247  39.919  0.00  0.00    +0.116 A 
ATOM      7  N   UNL     1      15.699  10.974  38.986  0.00  0.00    -0.223 NA
ATOM      8  C   UNL     1      16.109  12.240  38.608  0.00  0.00    +0.220 A 
ATOM      9  N   UNL     1      15.417  12.985  37.665  0.00  0.00    -0.283 N 
ATOM     36  H   UNL     1      15.748  13.918  37.419  0.00  0.00    +0.155 HD
ATOM     37  N   UNL     1      17.217  12.780  39.155  0.00  0.00    -0.214 NA
BRANCH   4   3
ATOM      1  C   UNL     1      20.937  13.224  42.378  0.00  0.00    +0.020 A 
ATOM      2  C   UNL     1      19.768  12.512  41.916  0.00  0.00    +0.013 A 
ATOM      3  C   UNL     1      19.179  12.811  40.617  0.00  0.00    +0.019 A 
ATOM     38  C   UNL     1      19.803  13.843  39.803  0.00  0.00    +0.120 A 
ATOM     39  N   UNL     1      20.927  14.512  40.274  0.00  0.00    -0.263 NA
ATOM     40  C   UNL     1      21.502  14.235  41.523  0.00  0.00    +0.111 A 
ENDBRANCH   4   3
ENDBRANCH  10   9
BRANCH  12  13
ATOM     13  N   UNL     1      13.344  10.458  33.914  0.00  0.00    -0.281 N 
ATOM     14  C   UNL     1      12.838  10.807  32.673  0.00  0.00    +0.248 C 
ATOM     30  O   UNL     1      12.046  11.718  32.481  0.00  0.00    -0.270 OA
ATOM     31  H   UNL     1      13.837   9.566  33.962  0.00  0.00    +0.155 HD
BRANCH  14  15
ATOM     15  C   UNL     1      13.261  10.023  31.474  0.00  0.00    +0.037 A 
ATOM     16  C   UNL     1      14.575   9.376  31.414  0.00  0.00    +0.013 A 
ATOM     17  C   UNL     1      14.965   8.639  30.238  0.00  0.00    +0.005 A 
ATOM     18  C   UNL     1      14.039   8.545  29.112  0.00  0.00    -0.033 A 
ATOM     28  C   UNL     1      12.740   9.192  29.200  0.00  0.00    +0.005 A 
ATOM     29  C   UNL     1      12.355   9.915  30.351  0.00  0.00    +0.013 A 
BRANCH  18  19
ATOM     19  C   UNL     1      14.380   7.797  27.809  0.00  0.00    +0.119 C 
BRANCH  19  20
ATOM     20  N   UNL     1      15.814   7.456  27.571  0.00  0.00    -0.302 NA
ATOM     21  C   UNL     1      16.677   8.706  27.374  0.00  0.00    +0.066 C 
ATOM     22  C   UNL     1      18.178   8.332  27.150  0.00  0.00    -0.064 C 
ATOM     23  N   UNL     1      18.293   7.399  25.943  0.00  0.00    +0.379 N 
ATOM     24  C   UNL     1      19.709   7.092  25.694  0.00  0.00    -0.096 C 
ATOM     25  H   UNL     1      17.904   7.947  25.054  0.00  0.00    -0.082 HD
ATOM     26  C   UNL     1      17.436   6.155  26.129  0.00  0.00    -0.064 C 
ATOM     27  C   UNL     1      15.951   6.539  26.381  0.00  0.00    +0.066 C 
ENDBRANCH  19  20
ENDBRANCH  18  19
ENDBRANCH  14  15
ENDBRANCH  12  13
TORSDOF 6
ENDMDL
MODEL 3
REMARK VINA RESULT:      -8.9     16.394     19.413
REMARK  Name = C:\Users\Docking\Desktop\test protocol\1iep_ligandH.pdb
REMARK  8 active torsions:
REMARK  status: ('A' for Active; 'I' for Inactive)
REMARK    1  A    between atoms: _5  and  _11
REMARK    2  A    between atoms: _19  and  _21
REMARK    3  A    between atoms: _22  and  _66
REMARK    4  A    between atoms: _27  and  _30
REMARK    5  A    between atoms: _32  and  _33
REMARK    6  A    between atoms: _38  and  _43
REMARK    7  A    between atoms: _43  and  _46
REMARK    8  A    between atoms: _53  and  _55
REMARK                            x       y       z     vdW  Elec       q    Type
REMARK                         _______ _______ _______ _____ _____    ______ ____
ROOT
ATOM     10  C   UNL     1      37.088  14.575  31.007  0.00  0.00    +0.038 A 
ATOM     11  C   UNL     1      36.032  13.922  30.322  0.00  0.00    +0.047 A 
ATOM     12  C   UNL     1      35.637  14.331  28.983  0.00  0.00    +0.035 A 
ATOM     32  C   UNL     1      36.343  15.407  28.370  0.00  0.00    +0.024 A 
ATOM     33  C   UNL     1      37.418  16.083  29.053  0.00  0.00    +0.007 A 
ATOM     34  C   UNL     1      37.810  15.686  30.375  0.00  0.00    -0.029 A 
ATOM     35  C   UNL     1      38.966  16.450  31.061  0.00  0.00    +0.045 C 
ENDROOT
BRANCH  10   9
ATOM      4  C   UNL     1      37.027  15.040  35.784  0.00  0.00    +0.077 A 
ATOM      5  C   UNL     1      36.283  16.265  35.715  0.00  0.00    +0.048 A 
ATOM      6  C   UNL     1      35.942  16.745  34.430  0.00  0.00    +0.116 A 
ATOM      7  N   UNL     1      36.322  16.044  33.306  0.00  0.00    -0.223 NA
ATOM      8  C   UNL     1      37.040  14.867  33.408  0.00  0.00    +0.220 A 
ATOM      9  N   UNL     1      37.426  14.141  32.291  0.00  0.00    -0.283 N 
ATOM     36  H   UNL     1      37.961  13.282  32.409  0.00  0.00    +0.155 HD
ATOM     37  N   UNL     1      37.379  14.388  34.623  0.00  0.00    -0.214 NA
BRANCH   4   3
ATOM      1  C   UNL     1      37.558  14.293  39.587  0.00  0.00    +0.020 A 
ATOM      2  C   UNL     1      37.117  14.947  38.377  0.00  0.00    +0.013 A 
ATOM      3  C   UNL     1      37.459  14.403  37.069  0.00  0.00    +0.019 A 
ATOM     38  C   UNL     1      38.254  13.186  37.019  0.00  0.00    +0.120 A 
ATOM     39  N   UNL     1      38.667  12.579  38.202  0.00  0.00    -0.263 NA
ATOM     40  C   UNL     1      38.345  13.094  39.466  0.00  0.00    +0.111 A 
ENDBRANCH   4   3
ENDBRANCH  10   9
BRANCH  12  13
ATOM     13  N   UNL     1      34.568  13.711  28.242  0.00  0.00    -0.281 N 
ATOM     14  C   UNL     1      34.583  12.493  27.582  0.00  0.00    +0.248 C 
ATOM     30  O   UNL     1      35.593  11.846  27.349  0.00  0.00    -0.270 OA
ATOM     31  H   UNL     1      33.693  14.233  28.198  0.00  0.00    +0.155 HD
BRANCH  14  15
ATOM     15  C   UNL     1      33.291  11.917  27.099  0.00  0.00    +0.037 A 
ATOM     16  C   UNL     1      32.989  11.822  25.669  0.00  0.00    +0.013 A 
ATOM     17  C   UNL     1      31.728  11.278  25.230  0.00  0.00    +0.005 A 
ATOM     18  C   UNL     1      30.760  10.823  26.225  0.00  0.00    -0.033 A 
ATOM     28  C   UNL     1      31.088  10.923  27.637  0.00  0.00    +0.005 A 
ATOM     29  C   UNL     1      32.322  11.457  28.071  0.00  0.00    +0.013 A 
BRANCH  18  19
ATOM     19  C   UNL     1      29.382  10.248  25.848  0.00  0.00    +0.119 C 
BRANCH  19  20
ATOM     20  N   UNL     1      28.340  10.214  26.917  0.00  0.00    -0.302 NA
ATOM     21  C   UNL     1      28.063   8.789  27.405  0.00  0.00    +0.066 C 
ATOM     22  C   UNL     1      26.987   8.775  28.539  0.00  0.00    -0.064 C 
ATOM     23  N   UNL     1      25.703   9.432  28.029  0.00  0.00    +0.379 N 
ATOM     24  C   UNL     1      24.670   9.368  29.073  0.00  0.00    -0.096 C 
ATOM     25  H   UNL     1      25.341   8.836  27.158  0.00  0.00    -0.082 HD
ATOM     26  C   UNL     1      25.970  10.848  27.539  0.00  0.00    -0.064 C 
ATOM     27  C   UNL     1      27.062  10.854  26.433  0.00  0.00    +0.066 C 
ENDBRANCH  19  20
ENDBRANCH  18  19
ENDBRANCH  14  15
ENDBRANCH  12  13
TORSDOF 6
ENDMDL
MODEL 4
REMARK VINA RESULT:      -8.9     17.943     23.342
REMARK  Name = C:\Users\Docking\Desktop\test protocol\1iep_ligandH.pdb
REMARK  8 active torsions:
REMARK  status: ('A' for Active; 'I' for Inactive)
REMARK    1  A    between atoms: _5  and  _11
REMARK    2  A    between atoms: _19  and  _21
REMARK    3  A    between atoms: _22  and  _66
REMARK    4  A    between atoms: _27  and  _30
REMARK    5  A    between atoms: _32  and  _33
REMARK    6  A    between atoms: _38  and  _43
REMARK    7  A    between atoms: _43  and  _46
REMARK    8  A    between atoms: _53  and  _55
REMARK                            x       y       z     vdW  Elec       q    Type
REMARK                         _______ _______ _______ _____ _____    ______ ____
ROOT
ATOM     10  C   UNL     1      30.679  11.225  26.866  0.00  0.00    +0.038 A 
ATOM     11  C   UNL     1      31.952  11.837  26.995  0.00  0.00    +0.047 A 
ATOM     12  C   UNL     1      32.804  11.569  28.143  0.00  0.00    +0.035 A 
ATOM     32  C   UNL     1      32.328  10.669  29.141  0.00  0.00    +0.024 A 
ATOM     33  C   UNL     1      31.037  10.039  29.027  0.00  0.00    +0.007 A 
ATOM     34  C   UNL     1      30.191  10.301  27.898  0.00  0.00    -0.029 A 
ATOM     35  C   UNL     1      28.813   9.602  27.831  0.00  0.00    +0.045 C 
ENDROOT
BRANCH  10   9
ATOM      4  C   UNL     1      29.076  10.232  22.453  0.00  0.00    +0.077 A 
ATOM      5  C   UNL     1      29.872   9.042  22.367  0.00  0.00    +0.048 A 
ATOM      6  C   UNL     1      30.687   8.725  23.477  0.00  0.00    +0.116 A 
ATOM      7  N   UNL     1      30.695   9.544  24.586  0.00  0.00    -0.223 NA
ATOM      8  C   UNL     1      29.916  10.685  24.635  0.00  0.00    +0.220 A 
ATOM      9  N   UNL     1      29.903  11.518  25.743  0.00  0.00    -0.283 N 
ATOM     36  H   UNL     1      29.319  12.355  25.738  0.00  0.00    +0.155 HD
ATOM     37  N   UNL     1      29.131  11.011  23.587  0.00  0.00    -0.214 NA
BRANCH   4   3
ATOM      1  C   UNL     1      27.598  12.177  19.397  0.00  0.00    +0.020 A 
ATOM      2  C   UNL     1      28.517  11.764  20.433  0.00  0.00    +0.013 A 
ATOM      3  C   UNL     1      28.162  10.699  21.363  0.00  0.00    +0.019 A 
ATOM     38  C   UNL     1      26.859  10.068  21.216  0.00  0.00    +0.120 A 
ATOM     39  N   UNL     1      25.994  10.488  20.210  0.00  0.00    -0.263 NA
ATOM     40  C   UNL     1      26.324  11.512  19.311  0.00  0.00    +0.111 A 
ENDBRANCH   4   3
ENDBRANCH  10   9
BRANCH  12  13
ATOM     13  N   UNL     1      34.102  12.168  28.331  0.00  0.00    -0.281 N 
ATOM     14  C   UNL     1      34.518  13.434  27.955  0.00  0.00    +0.248 C 
ATOM     30  O   UNL     1      33.897  14.172  27.205  0.00  0.00    -0.270 OA
ATOM     31  H   UNL     1      34.798  11.587  28.799  0.00  0.00    +0.155 HD
BRANCH  14  15
ATOM     15  C   UNL     1      35.820  13.951  28.477  0.00  0.00    +0.037 A 
ATOM     16  C   UNL     1      36.026  15.380  28.725  0.00  0.00    +0.013 A 
ATOM     17  C   UNL     1      37.297  15.854  29.212  0.00  0.00    +0.005 A 
ATOM     18  C   UNL     1      38.373  14.896  29.457  0.00  0.00    -0.033 A 
ATOM     28  C   UNL     1      38.139  13.483  29.208  0.00  0.00    +0.005 A 
ATOM     29  C   UNL     1      36.895  13.015  28.729  0.00  0.00    +0.013 A 
BRANCH  18  19
ATOM     19  C   UNL     1      39.768  15.314  29.957  0.00  0.00    +0.119 C 
BRANCH  19  20
ATOM     20  N   UNL     1      40.827  14.262  29.989  0.00  0.00    -0.302 NA
ATOM     21  C   UNL     1      41.556  14.221  31.335  0.00  0.00    +0.066 C 
ATOM     22  C   UNL     1      42.645  13.099  31.359  0.00  0.00    -0.064 C 
ATOM     23  N   UNL     1      43.633  13.328  30.214  0.00  0.00    +0.379 N 
ATOM     24  C   UNL     1      44.691  12.308  30.269  0.00  0.00    -0.096 C 
ATOM     25  H   UNL     1      44.112  14.322  30.375  0.00  0.00    -0.082 HD
ATOM     26  C   UNL     1      42.916  13.372  28.872  0.00  0.00    -0.064 C 
ATOM     27  C   UNL     1      41.817  14.470  28.869  0.00  0.00    +0.066 C 
ENDBRANCH  19  20
ENDBRANCH  18  19
ENDBRANCH  14  15
ENDBRANCH  12  13
TORSDOF 6
ENDMDL
MODEL 5
REMARK VINA RESULT:      -8.7      1.775      2.636
REMARK  Name = C:\Users\Docking\Desktop\test protocol\1iep_ligandH.pdb
REMARK  8 active torsions:
REMARK  status: ('A' for Active; 'I' for Inactive)
REMARK    1  A    between atoms: _5  and  _11
REMARK    2  A    between atoms: _19  and  _21
REMARK    3  A    between atoms: _22  and  _66
REMARK    4  A    between atoms: _27  and  _30
REMARK    5  A    between atoms: _32  and  _33
REMARK    6  A    between atoms: _38  and  _43
REMARK    7  A    between atoms: _43  and  _46
REMARK    8  A    between atoms: _53  and  _55
REMARK                            x       y       z     vdW  Elec       q    Type
REMARK                         _______ _______ _______ _____ _____    ______ ____
ROOT
ATOM     10  C   UNL     1      14.769  12.848  39.168  0.00  0.00    +0.038 A 
ATOM     11  C   UNL     1      14.900  12.356  37.844  0.00  0.00    +0.047 A 
ATOM     12  C   UNL     1      13.781  12.389  36.915  0.00  0.00    +0.035 A 
ATOM     32  C   UNL     1      12.544  12.933  37.366  0.00  0.00    +0.024 A 
ATOM     33  C   UNL     1      12.393  13.437  38.709  0.00  0.00    +0.007 A 
ATOM     34  C   UNL     1      13.492  13.404  39.631  0.00  0.00    -0.029 A 
ATOM     35  C   UNL     1      13.271  13.952  41.060  0.00  0.00    +0.045 C 
ENDROOT
BRANCH  10   9
ATOM      4  C   UNL     1      19.387  13.692  40.165  0.00  0.00    +0.077 A 
ATOM      5  C   UNL     1      19.622  14.271  38.873  0.00  0.00    +0.048 A 
ATOM      6  C   UNL     1      18.529  14.326  37.979  0.00  0.00    +0.116 A 
ATOM      7  N   UNL     1      17.298  13.836  38.359  0.00  0.00    -0.223 NA
ATOM      8  C   UNL     1      17.107  13.283  39.612  0.00  0.00    +0.220 A 
ATOM      9  N   UNL     1      15.876  12.791  40.018  0.00  0.00    -0.283 N 
ATOM     36  H   UNL     1      15.777  12.384  40.947  0.00  0.00    +0.155 HD
ATOM     37  N   UNL     1      18.134  13.217  40.483  0.00  0.00    -0.214 NA
BRANCH   4   3
ATOM      1  C   UNL     1      22.540  14.337  42.388  0.00  0.00    +0.020 A 
ATOM      2  C   UNL     1      21.549  14.504  41.350  0.00  0.00    +0.013 A 
ATOM      3  C   UNL     1      20.441  13.566  41.221  0.00  0.00    +0.019 A 
ATOM     38  C   UNL     1      20.363  12.463  42.167  0.00  0.00    +0.120 A 
ATOM     39  N   UNL     1      21.332  12.327  43.155  0.00  0.00    -0.263 NA
ATOM     40  C   UNL     1      22.405  13.222  43.288  0.00  0.00    +0.111 A 
ENDBRANCH   4   3
ENDBRANCH  10   9
BRANCH  12  13
ATOM     13  N   UNL     1      13.852  11.896  35.561  0.00  0.00    -0.281 N 
ATOM     14  C   UNL     1      13.886  10.579  35.135  0.00  0.00    +0.248 C 
ATOM     30  O   UNL     1      14.076   9.620  35.869  0.00  0.00    -0.270 OA
ATOM     31  H   UNL     1      13.882  12.605  34.828  0.00  0.00    +0.155 HD
BRANCH  14  15
ATOM     15  C   UNL     1      13.695  10.285  33.682  0.00  0.00    +0.037 A 
ATOM     16  C   UNL     1      13.085  11.266  32.782  0.00  0.00    +0.013 A 
ATOM     17  C   UNL     1      12.897  10.950  31.388  0.00  0.00    +0.005 A 
ATOM     18  C   UNL     1      13.322   9.646  30.886  0.00  0.00    -0.033 A 
ATOM     28  C   UNL     1      13.929   8.693  31.800  0.00  0.00    +0.005 A 
ATOM     29  C   UNL     1      14.114   8.999  33.167  0.00  0.00    +0.013 A 
BRANCH  18  19
ATOM     19  C   UNL     1      13.140   9.216  29.418  0.00  0.00    +0.119 C 
BRANCH  19  20
ATOM     20  N   UNL     1      11.761   9.286  28.850  0.00  0.00    -0.302 NA
ATOM     21  C   UNL     1      10.775   8.408  29.626  0.00  0.00    +0.066 C 
ATOM     22  C   UNL     1       9.333   8.510  29.032  0.00  0.00    -0.064 C 
ATOM     23  N   UNL     1       9.363   8.116  27.554  0.00  0.00    +0.379 N 
ATOM     24  C   UNL     1       7.998   8.155  27.008  0.00  0.00    -0.096 C 
ATOM     25  H   UNL     1       9.721   7.062  27.493  0.00  0.00    -0.082 HD
ATOM     26  C   UNL     1      10.343   8.982  26.776  0.00  0.00    -0.064 C 
ATOM     27  C   UNL     1      11.767   8.896  27.392  0.00  0.00    +0.066 C 
ENDBRANCH  19  20
ENDBRANCH  18  19
ENDBRANCH  14  15
ENDBRANCH  12  13
TORSDOF 6
ENDMDL
