MODEL 1
REMARK VINA RESULT:      -9.0      0.000      0.000
REMARK  Name = C:\Users\Docking\Desktop\test protocol\1iep_ligandH.pdb
REMARK  8 active torsions:
REMARK  status: ('A' for Active; 'I' for Inactive)
REMARK    1  A    between atoms: _5  and  _11
REMARK    2  A    between atoms: _19  and  _21
REMARK    3  A    between atoms: _22  and  _66
REMARK    4  A    between atoms: _27  and  _30
REMARK    5  A    between atoms: _32  and  _33
REMARK    6  A    between atoms: _38  and  _43
REMARK    7  A    between atoms: _43  and  _46
REMARK    8  A    between atoms: _53  and  _55
REMARK                            x       y       z     vdW  Elec       q    Type
REMARK                         _______ _______ _______ _____ _____    ______ ____
ROOT
ATOM     10  C   UNL     1      14.671  12.881  39.094  0.00  0.00    +0.038 A 
ATOM     11  C   UNL     1      14.815  12.376  37.776  0.00  0.00    +0.047 A 
ATOM     12  C   UNL     1      13.702  12.391  36.839  0.00  0.00    +0.035 A 
ATOM     32  C   UNL     1      12.458  12.930  37.277  0.00  0.00    +0.024 A 
ATOM     33  C   UNL     1      12.294  13.446  38.614  0.00  0.00    +0.007 A 
ATOM     34  C   UNL     1      13.387  13.432  39.543  0.00  0.00    -0.029 A 
ATOM     35  C   UNL     1      13.152  13.992  40.965  0.00  0.00    +0.045 C 
ENDROOT
BRANCH  10   9
ATOM      4  C   UNL     1      19.305  13.662  40.071  0.00  0.00    +0.077 A 
ATOM      5  C   UNL     1      19.560  14.165  38.751  0.00  0.00    +0.048 A 
ATOM      6  C   UNL     1      18.472  14.200  37.850  0.00  0.00    +0.116 A 
ATOM      7  N   UNL     1      17.228  13.762  38.248  0.00  0.00    -0.223 NA
ATOM      8  C   UNL     1      17.018  13.280  39.527  0.00  0.00    +0.220 A 
ATOM      9  N   UNL     1      15.773  12.842  39.952  0.00  0.00    -0.283 N 
ATOM     36  H   UNL     1      15.660  12.487  40.901  0.00  0.00    +0.155 HD
ATOM     37  N   UNL     1      18.040  13.236  40.407  0.00  0.00    -0.214 NA
BRANCH   4   3
ATOM      1  C   UNL     1      22.469  14.340  42.270  0.00  0.00    +0.020 A 
ATOM      2  C   UNL     1      21.487  14.476  41.218  0.00  0.00    +0.013 A 
ATOM      3  C   UNL     1      20.351  13.566  41.138  0.00  0.00    +0.019 A 
ATOM     38  C   UNL     1      20.237  12.521  42.144  0.00  0.00    +0.120 A 
ATOM     39  N   UNL     1      21.199  12.414  43.144  0.00  0.00    -0.263 NA
ATOM     40  C   UNL     1      22.297  13.282  43.231  0.00  0.00    +0.111 A 
ENDBRANCH   4   3
ENDBRANCH  10   9
BRANCH  12  13
ATOM     13  N   UNL     1      13.787  11.885  35.492  0.00  0.00    -0.281 N 
ATOM     14  C   UNL     1      13.959  10.573  35.084  0.00  0.00    +0.248 C 
ATOM     30  O   UNL     1      14.283   9.656  35.824  0.00  0.00    -0.270 OA
ATOM     31  H   UNL     1      13.710  12.579  34.748  0.00  0.00    +0.155 HD
BRANCH  14  15
ATOM     15  C   UNL     1      13.757  10.232  33.643  0.00  0.00    +0.037 A 
ATOM     16  C   UNL     1      13.214  11.212  32.699  0.00  0.00    +0.013 A 
ATOM     17  C   UNL     1      13.013  10.852  31.318  0.00  0.00    +0.005 A 
ATOM     18  C   UNL     1      13.357   9.504  30.872  0.00  0.00    -0.033 A 
ATOM     28  C   UNL     1      13.898   8.553  31.828  0.00  0.00    +0.005 A 
ATOM     29  C   UNL     1      14.096   8.902  33.183  0.00  0.00    +0.013 A 
BRANCH  18  19
ATOM     19  C   UNL     1      13.156   9.026  29.421  0.00  0.00    +0.119 C 
BRANCH  19  20
ATOM     20  N   UNL     1      14.184   8.102  28.857  0.00  0.00    -0.302 NA
ATOM     21  C   UNL     1      15.453   8.846  28.431  0.00  0.00    +0.066 C 
ATOM     22  C   UNL     1      16.527   7.861  27.864  0.00  0.00    -0.064 C 
ATOM     23  N   UNL     1      15.933   7.085  26.687  0.00  0.00    +0.379 N 
ATOM     24  C   UNL     1      16.958   6.200  26.115  0.00  0.00    -0.096 C 
ATOM     25  H   UNL     1      15.649   7.826  25.904  0.00  0.00    -0.082 HD
ATOM     26  C   UNL     1      14.669   6.345  27.101  0.00  0.00    -0.064 C 
ATOM     27  C   UNL     1      13.620   7.329  27.691  0.00  0.00    +0.066 C 
ENDBRANCH  19  20
ENDBRANCH  18  19
ENDBRANCH  14  15
ENDBRANCH  12  13
TORSDOF 6
ENDMDL
MODEL 2
REMARK VINA RESULT:      -9.0      2.474     12.483
REMARK  Name = C:\Users\Docking\Desktop\test protocol\1iep_ligandH.pdb
REMARK  8 active torsions:
REMARK  status: ('A' for Active; 'I' for Inactive)
REMARK    1  A    between atoms: _5  and  _11
REMARK    2  A    between atoms: _19  and  _21
REMARK    3  A    between atoms: _22  and  _66
REMARK    4  A    between atoms: _27  and  _30
REMARK    5  A    between atoms: _32  and  _33
REMARK    6  A    between atoms: _38  and  _43
REMARK    7  A    between atoms: _43  and  _46
REMARK    8  A    between atoms: _53  and  _55
REMARK                            x       y       z     vdW  Elec       q    Type
REMARK                         _______ _______ _______ _____ _____    ______ ____
ROOT
ATOM     10  C   UNL     1      14.457  12.599  37.090  0.00  0.00    +0.038 A 
ATOM     11  C   UNL     1      15.745  12.506  37.676  0.00  0.00    +0.047 A 
ATOM     12  C   UNL     1      15.959  12.825  39.079  0.00  0.00    +0.035 A 
ATOM     32  C   UNL     1      14.837  13.233  39.857  0.00  0.00    +0.024 A 
ATOM     33  C   UNL     1      13.520  13.334  39.278  0.00  0.00    +0.007 A 
ATOM     34  C   UNL     1      13.304  13.023  37.894  0.00  0.00    -0.029 A 
ATOM     35  C   UNL     1      11.872  13.155  37.325  0.00  0.00    +0.045 C 
ENDROOT
BRANCH  10   9
ATOM      4  C   UNL     1      13.862   9.441  33.526  0.00  0.00    +0.077 A 
ATOM      5  C   UNL     1      13.874   8.328  34.431  0.00  0.00    +0.048 A 
ATOM      6  C   UNL     1      14.043   8.610  35.805  0.00  0.00    +0.116 A 
ATOM      7  N   UNL     1      14.187   9.913  36.231  0.00  0.00    -0.223 NA
ATOM      8  C   UNL     1      14.173  10.963  35.331  0.00  0.00    +0.220 A 
ATOM      9  N   UNL     1      14.309  12.281  35.738  0.00  0.00    -0.283 N 
ATOM     36  H   UNL     1      14.300  13.027  35.043  0.00  0.00    +0.155 HD
ATOM     37  N   UNL     1      14.015  10.719  34.014  0.00  0.00    -0.214 NA
BRANCH   4   3
ATOM      1  C   UNL     1      14.524   8.695  29.743  0.00  0.00    +0.020 A 
ATOM      2  C   UNL     1      14.742   8.808  31.167  0.00  0.00    +0.013 A 
ATOM      3  C   UNL     1      13.690   9.304  32.045  0.00  0.00    +0.019 A 
ATOM     38  C   UNL     1      12.418   9.679  31.445  0.00  0.00    +0.120 A 
ATOM     39  N   UNL     1      12.238   9.561  30.071  0.00  0.00    -0.263 NA
ATOM     40  C   UNL     1      13.244   9.087  29.216  0.00  0.00    +0.111 A 
ENDBRANCH   4   3
ENDBRANCH  10   9
BRANCH  12  13
ATOM     13  N   UNL     1      17.245  12.757  39.726  0.00  0.00    -0.281 N 
ATOM     14  C   UNL     1      18.298  13.652  39.626  0.00  0.00    +0.248 C 
ATOM     30  O   UNL     1      18.370  14.543  38.793  0.00  0.00    -0.270 OA
ATOM     31  H   UNL     1      17.399  11.950  40.331  0.00  0.00    +0.155 HD
BRANCH  14  15
ATOM     15  C   UNL     1      19.441  13.532  40.582  0.00  0.00    +0.037 A 
ATOM     16  C   UNL     1      19.397  12.594  41.706  0.00  0.00    +0.013 A 
ATOM     17  C   UNL     1      20.506  12.510  42.622  0.00  0.00    +0.005 A 
ATOM     18  C   UNL     1      21.671  13.368  42.417  0.00  0.00    -0.033 A 
ATOM     28  C   UNL     1      21.691  14.286  41.290  0.00  0.00    +0.005 A 
ATOM     29  C   UNL     1      20.605  14.372  40.391  0.00  0.00    +0.013 A 
BRANCH  18  19
ATOM     19  C   UNL     1      22.891  13.361  43.357  0.00  0.00    +0.119 C 
BRANCH  19  20
ATOM     20  N   UNL     1      24.230  13.132  42.738  0.00  0.00    -0.302 NA
ATOM     21  C   UNL     1      24.979  11.972  43.401  0.00  0.00    +0.066 C 
ATOM     22  C   UNL     1      26.369  11.732  42.726  0.00  0.00    -0.064 C 
ATOM     23  N   UNL     1      27.194  13.018  42.792  0.00  0.00    +0.379 N 
ATOM     24  C   UNL     1      28.523  12.779  42.209  0.00  0.00    -0.096 C 
ATOM     25  H   UNL     1      27.337  13.273  43.867  0.00  0.00    -0.082 HD
ATOM     26  C   UNL     1      26.455  14.177  42.137  0.00  0.00    -0.064 C 
ATOM     27  C   UNL     1      25.064  14.388  42.796  0.00  0.00    +0.066 C 
ENDBRANCH  19  20
ENDBRANCH  18  19
ENDBRANCH  14  15
ENDBRANCH  12  13
TORSDOF 6
ENDMDL
MODEL 3
REMARK VINA RESULT:      -8.9      1.733      2.655
REMARK  Name = C:\Users\Docking\Desktop\test protocol\1iep_ligandH.pdb
REMARK  8 active torsions:
REMARK  status: ('A' for Active; 'I' for Inactive)
REMARK    1  A    between atoms: _5  and  _11
REMARK    2  A    between atoms: _19  and  _21
REMARK    3  A    between atoms: _22  and  _66
REMARK    4  A    between atoms: _27  and  _30
REMARK    5  A    between atoms: _32  and  _33
REMARK    6  A    between atoms: _38  and  _43
REMARK    7  A    between atoms: _43  and  _46
REMARK    8  A    between atoms: _53  and  _55
REMARK                            x       y       z     vdW  Elec       q    Type
REMARK                         _______ _______ _______ _____ _____    ______ ____
ROOT
ATOM     10  C   UNL     1      14.116  12.517  37.085  0.00  0.00    +0.038 A 
ATOM     11  C   UNL     1      14.259  11.813  35.863  0.00  0.00    +0.047 A 
ATOM     12  C   UNL     1      13.104  11.256  35.175  0.00  0.00    +0.035 A 
ATOM     32  C   UNL     1      11.817  11.438  35.761  0.00  0.00    +0.024 A 
ATOM     33  C   UNL     1      11.654  12.150  37.004  0.00  0.00    +0.007 A 
ATOM     34  C   UNL     1      12.790  12.699  37.688  0.00  0.00    -0.029 A 
ATOM     35  C   UNL     1      12.556  13.447  39.021  0.00  0.00    +0.045 C 
ENDROOT
BRANCH  10   9
ATOM      4  C   UNL     1      17.956  12.064  39.929  0.00  0.00    +0.077 A 
ATOM      5  C   UNL     1      17.644  10.697  40.232  0.00  0.00    +0.048 A 
ATOM      6  C   UNL     1      16.483  10.150  39.642  0.00  0.00    +0.116 A 
ATOM      7  N   UNL     1      15.700  10.922  38.811  0.00  0.00    -0.223 NA
ATOM      8  C   UNL     1      16.028  12.238  38.541  0.00  0.00    +0.220 A 
ATOM      9  N   UNL     1      15.259  13.030  37.702  0.00  0.00    -0.283 N 
ATOM     36  H   UNL     1      15.531  13.998  37.534  0.00  0.00    +0.155 HD
ATOM     37  N   UNL     1      17.131  12.784  39.093  0.00  0.00    -0.214 NA
BRANCH   4   3
ATOM      1  C   UNL     1      20.884  13.209  42.257  0.00  0.00    +0.020 A 
ATOM      2  C   UNL     1      19.728  12.485  41.778  0.00  0.00    +0.013 A 
ATOM      3  C   UNL     1      19.152  12.782  40.473  0.00  0.00    +0.019 A 
ATOM     38  C   UNL     1      19.774  13.825  39.670  0.00  0.00    +0.120 A 
ATOM     39  N   UNL     1      20.885  14.505  40.158  0.00  0.00    -0.263 NA
ATOM     40  C   UNL     1      21.447  14.229  41.413  0.00  0.00    +0.111 A 
ENDBRANCH   4   3
ENDBRANCH  10   9
BRANCH  12  13
ATOM     13  N   UNL     1      13.188  10.525  33.935  0.00  0.00    -0.281 N 
ATOM     14  C   UNL     1      12.798  10.941  32.673  0.00  0.00    +0.248 C 
ATOM     30  O   UNL     1      12.117  11.931  32.452  0.00  0.00    -0.270 OA
ATOM     31  H   UNL     1      13.583   9.586  33.996  0.00  0.00    +0.155 HD
BRANCH  14  15
ATOM     15  C   UNL     1      13.213  10.133  31.486  0.00  0.00    +0.037 A 
ATOM     16  C   UNL     1      14.546   9.530  31.405  0.00  0.00    +0.013 A 
ATOM     17  C   UNL     1      14.927   8.770  30.241  0.00  0.00    +0.005 A 
ATOM     18  C   UNL     1      13.971   8.607  29.148  0.00  0.00    -0.033 A 
ATOM     28  C   UNL     1      12.654   9.211  29.257  0.00  0.00    +0.005 A 
ATOM     29  C   UNL     1      12.277   9.958  30.396  0.00  0.00    +0.013 A 
BRANCH  18  19
ATOM     19  C   UNL     1      14.299   7.830  27.860  0.00  0.00    +0.119 C 
BRANCH  19  20
ATOM     20  N   UNL     1      15.725   7.445  27.637  0.00  0.00    -0.302 NA
ATOM     21  C   UNL     1      16.604   8.658  27.321  0.00  0.00    +0.066 C 
ATOM     22  C   UNL     1      18.096   8.240  27.113  0.00  0.00    -0.064 C 
ATOM     23  N   UNL     1      18.181   7.203  25.993  0.00  0.00    +0.379 N 
ATOM     24  C   UNL     1      19.589   6.851  25.756  0.00  0.00    -0.096 C 
ATOM     25  H   UNL     1      17.790   7.677  25.063  0.00  0.00    -0.082 HD
ATOM     26  C   UNL     1      17.307   5.995  26.298  0.00  0.00    -0.064 C 
ATOM     27  C   UNL     1      15.832   6.424  26.531  0.00  0.00    +0.066 C 
ENDBRANCH  19  20
ENDBRANCH  18  19
ENDBRANCH  14  15
ENDBRANCH  12  13
TORSDOF 6
ENDMDL
MODEL 4
REMARK VINA RESULT:      -8.9     17.513     19.700
REMARK  Name = C:\Users\Docking\Desktop\test protocol\1iep_ligandH.pdb
REMARK  8 active torsions:
REMARK  status: ('A' for Active; 'I' for Inactive)
REMARK    1  A    between atoms: _5  and  _11
REMARK    2  A    between atoms: _19  and  _21
REMARK    3  A    between atoms: _22  and  _66
REMARK    4  A    between atoms: _27  and  _30
REMARK    5  A    between atoms: _32  and  _33
REMARK    6  A    between atoms: _38  and  _43
REMARK    7  A    between atoms: _43  and  _46
REMARK    8  A    between atoms: _53  and  _55
REMARK                            x       y       z     vdW  Elec       q    Type
REMARK                         _______ _______ _______ _____ _____    ______ ____
ROOT
ATOM     10  C   UNL     1      32.469  10.395  28.368  0.00  0.00    +0.038 A 
ATOM     11  C   UNL     1      31.760  10.556  27.150  0.00  0.00    +0.047 A 
ATOM     12  C   UNL     1      30.836   9.537  26.677  0.00  0.00    +0.035 A 
ATOM     32  C   UNL     1      30.656   8.367  27.471  0.00  0.00    +0.024 A 
ATOM     33  C   UNL     1      31.370   8.187  28.711  0.00  0.00    +0.007 A 
ATOM     34  C   UNL     1      32.284   9.188  29.182  0.00  0.00    -0.029 A 
ATOM     35  C   UNL     1      33.026   8.938  30.515  0.00  0.00    +0.045 C 
ENDROOT
BRANCH  10   9
ATOM      4  C   UNL     1      36.834  12.376  28.598  0.00  0.00    +0.077 A 
ATOM      5  C   UNL     1      37.429  11.293  27.868  0.00  0.00    +0.048 A 
ATOM      6  C   UNL     1      36.578  10.243  27.458  0.00  0.00    +0.116 A 
ATOM      7  N   UNL     1      35.234  10.283  27.760  0.00  0.00    -0.223 NA
ATOM      8  C   UNL     1      34.693  11.341  28.467  0.00  0.00    +0.220 A 
ATOM      9  N   UNL     1      33.343  11.406  28.775  0.00  0.00    -0.283 N 
ATOM     36  H   UNL     1      32.984  12.200  29.304  0.00  0.00    +0.155 HD
ATOM     37  N   UNL     1      35.485  12.356  28.871  0.00  0.00    -0.214 NA
BRANCH   4   3
ATOM      1  C   UNL     1      37.793  15.995  29.733  0.00  0.00    +0.020 A 
ATOM      2  C   UNL     1      37.008  14.884  29.247  0.00  0.00    +0.013 A 
ATOM      3  C   UNL     1      37.602  13.561  29.096  0.00  0.00    +0.019 A 
ATOM     38  C   UNL     1      39.004  13.395  29.449  0.00  0.00    +0.120 A 
ATOM     39  N   UNL     1      39.736  14.484  29.913  0.00  0.00    -0.263 NA
ATOM     40  C   UNL     1      39.175  15.761  30.061  0.00  0.00    +0.111 A 
ENDBRANCH   4   3
ENDBRANCH  10   9
BRANCH  12  13
ATOM     13  N   UNL     1      30.095   9.641  25.445  0.00  0.00    -0.281 N 
ATOM     14  C   UNL     1      28.973  10.412  25.188  0.00  0.00    +0.248 C 
ATOM     30  O   UNL     1      28.306  10.968  26.048  0.00  0.00    -0.270 OA
ATOM     31  H   UNL     1      30.440   9.079  24.666  0.00  0.00    +0.155 HD
BRANCH  14  15
ATOM     15  C   UNL     1      28.517  10.576  23.774  0.00  0.00    +0.037 A 
ATOM     16  C   UNL     1      27.325   9.885  23.275  0.00  0.00    +0.013 A 
ATOM     17  C   UNL     1      26.917  10.047  21.902  0.00  0.00    +0.005 A 
ATOM     18  C   UNL     1      27.702  10.906  21.019  0.00  0.00    -0.033 A 
ATOM     28  C   UNL     1      28.877  11.584  21.541  0.00  0.00    +0.005 A 
ATOM     29  C   UNL     1      29.281  11.426  22.886  0.00  0.00    +0.013 A 
BRANCH  18  19
ATOM     19  C   UNL     1      27.353  11.121  19.534  0.00  0.00    +0.119 C 
BRANCH  19  20
ATOM     20  N   UNL     1      28.087  12.200  18.808  0.00  0.00    -0.302 NA
ATOM     21  C   UNL     1      27.451  13.575  19.027  0.00  0.00    +0.066 C 
ATOM     22  C   UNL     1      28.245  14.695  18.279  0.00  0.00    -0.064 C 
ATOM     23  N   UNL     1      28.310  14.360  16.787  0.00  0.00    +0.379 N 
ATOM     24  C   UNL     1      29.006  15.440  16.072  0.00  0.00    -0.096 C 
ATOM     25  H   UNL     1      27.264  14.319  16.404  0.00  0.00    -0.082 HD
ATOM     26  C   UNL     1      28.939  12.993  16.560  0.00  0.00    -0.064 C 
ATOM     27  C   UNL     1      28.160  11.891  17.332  0.00  0.00    +0.066 C 
ENDBRANCH  19  20
ENDBRANCH  18  19
ENDBRANCH  14  15
ENDBRANCH  12  13
TORSDOF 6
ENDMDL
MODEL 5
REMARK VINA RESULT:      -8.9     18.366     23.731
REMARK  Name = C:\Users\Docking\Desktop\test protocol\1iep_ligandH.pdb
REMARK  8 active torsions:
REMARK  status: ('A' for Active; 'I' for Inactive)
REMARK    1  A    between atoms: _5  and  _11
REMARK    2  A    between atoms: _19  and  _21
REMARK    3  A    between atoms: _22  and  _66
REMARK    4  A    between atoms: _27  and  _30
REMARK    5  A    between atoms: _32  and  _33
REMARK    6  A    between atoms: _38  and  _43
REMARK    7  A    between atoms: _43  and  _46
REMARK    8  A    between atoms: _53  and  _55
REMARK                            x       y       z     vdW  Elec       q    Type
REMARK                         _______ _______ _______ _____ _____    ______ ____
ROOT
ATOM     10  C   UNL     1      30.621  11.502  26.106  0.00  0.00    +0.038 A 
ATOM     11  C   UNL     1      31.964  11.898  26.331  0.00  0.00    +0.047 A 
ATOM     12  C   UNL     1      32.649  11.568  27.571  0.00  0.00    +0.035 A 
ATOM     32  C   UNL     1      31.936  10.830  28.560  0.00  0.00    +0.024 A 
ATOM     33  C   UNL     1      30.570  10.420  28.349  0.00  0.00    +0.007 A 
ATOM     34  C   UNL     1      29.889  10.745  27.129  0.00  0.00    -0.029 A 
ATOM     35  C   UNL     1      28.422  10.285  26.959  0.00  0.00    +0.045 C 
ENDROOT
BRANCH  10   9
ATOM      4  C   UNL     1      29.053  10.425  21.700  0.00  0.00    +0.077 A 
ATOM      5  C   UNL     1      29.508   9.069  21.805  0.00  0.00    +0.048 A 
ATOM      6  C   UNL     1      30.148   8.690  23.007  0.00  0.00    +0.116 A 
ATOM      7  N   UNL     1      30.313   9.608  24.021  0.00  0.00    -0.223 NA
ATOM      8  C   UNL     1      29.864  10.909  23.887  0.00  0.00    +0.220 A 
ATOM      9  N   UNL     1      30.013  11.846  24.897  0.00  0.00    -0.283 N 
ATOM     36  H   UNL     1      29.674  12.798  24.756  0.00  0.00    +0.155 HD
ATOM     37  N   UNL     1      29.251  11.295  22.748  0.00  0.00    -0.214 NA
BRANCH   4   3
ATOM      1  C   UNL     1      27.922  12.790  18.796  0.00  0.00    +0.020 A 
ATOM      2  C   UNL     1      28.622  12.307  19.964  0.00  0.00    +0.013 A 
ATOM      3  C   UNL     1      28.356  10.975  20.494  0.00  0.00    +0.019 A 
ATOM     38  C   UNL     1      27.368  10.151  19.814  0.00  0.00    +0.120 A 
ATOM     39  N   UNL     1      26.709  10.644  18.692  0.00  0.00    -0.263 NA
ATOM     40  C   UNL     1      26.956  11.924  18.174  0.00  0.00    +0.111 A 
ENDBRANCH   4   3
ENDBRANCH  10   9
BRANCH  12  13
ATOM     13  N   UNL     1      34.009  11.950  27.859  0.00  0.00    -0.281 N 
ATOM     14  C   UNL     1      34.575  13.212  27.774  0.00  0.00    +0.248 C 
ATOM     30  O   UNL     1      34.048  14.171  27.230  0.00  0.00    -0.270 OA
ATOM     31  H   UNL     1      34.630  11.200  28.161  0.00  0.00    +0.155 HD
BRANCH  14  15
ATOM     15  C   UNL     1      35.929  13.437  28.367  0.00  0.00    +0.037 A 
ATOM     16  C   UNL     1      36.925  12.364  28.417  0.00  0.00    +0.013 A 
ATOM     17  C   UNL     1      38.217  12.604  29.009  0.00  0.00    +0.005 A 
ATOM     18  C   UNL     1      38.520  13.924  29.557  0.00  0.00    -0.033 A 
ATOM     28  C   UNL     1      37.515  14.972  29.490  0.00  0.00    +0.005 A 
ATOM     29  C   UNL     1      36.247  14.740  28.911  0.00  0.00    +0.013 A 
BRANCH  18  19
ATOM     19  C   UNL     1      39.865  14.263  30.227  0.00  0.00    +0.119 C 
BRANCH  19  20
ATOM     20  N   UNL     1      41.004  14.621  29.331  0.00  0.00    -0.302 NA
ATOM     21  C   UNL     1      41.559  13.400  28.591  0.00  0.00    +0.066 C 
ATOM     22  C   UNL     1      42.736  13.797  27.641  0.00  0.00    -0.064 C 
ATOM     23  N   UNL     1      43.835  14.483  28.454  0.00  0.00    +0.379 N 
ATOM     24  C   UNL     1      44.967  14.806  27.573  0.00  0.00    -0.096 C 
ATOM     25  H   UNL     1      44.195  13.755  29.217  0.00  0.00    -0.082 HD
ATOM     26  C   UNL     1      43.291  15.697  29.195  0.00  0.00    -0.064 C 
ATOM     27  C   UNL     1      42.103  15.296  30.114  0.00  0.00    +0.066 C 
ENDBRANCH  19  20
ENDBRANCH  18  19
ENDBRANCH  14  15
ENDBRANCH  12  13
TORSDOF 6
ENDMDL
