MODEL 1
REMARK VINA RESULT:      -8.7      0.000      0.000
REMARK  Name = C:\Users\Docking\Desktop\test protocol\1iep_ligandH.pdb
REMARK  8 active torsions:
REMARK  status: ('A' for Active; 'I' for Inactive)
REMARK    1  A    between atoms: _5  and  _11
REMARK    2  A    between atoms: _19  and  _21
REMARK    3  A    between atoms: _22  and  _66
REMARK    4  A    between atoms: _27  and  _30
REMARK    5  A    between atoms: _32  and  _33
REMARK    6  A    between atoms: _38  and  _43
REMARK    7  A    between atoms: _43  and  _46
REMARK    8  A    between atoms: _53  and  _55
REMARK                            x       y       z     vdW  Elec       q    Type
REMARK                         _______ _______ _______ _____ _____    ______ ____
ROOT
ATOM     10  C   UNL     1      14.671  12.656  37.271  0.00  0.00    +0.038 A 
ATOM     11  C   UNL     1      15.970  12.557  37.832  0.00  0.00    +0.047 A 
ATOM     12  C   UNL     1      16.209  12.864  39.234  0.00  0.00    +0.035 A 
ATOM     32  C   UNL     1      15.102  13.266  40.036  0.00  0.00    +0.024 A 
ATOM     33  C   UNL     1      13.775  13.373  39.481  0.00  0.00    +0.007 A 
ATOM     34  C   UNL     1      13.533  13.074  38.099  0.00  0.00    -0.029 A 
ATOM     35  C   UNL     1      12.092  13.212  37.557  0.00  0.00    +0.045 C 
ENDROOT
BRANCH  10   9
ATOM      4  C   UNL     1      13.905   9.538  33.703  0.00  0.00    +0.077 A 
ATOM      5  C   UNL     1      13.873   8.423  34.604  0.00  0.00    +0.048 A 
ATOM      6  C   UNL     1      14.065   8.694  35.978  0.00  0.00    +0.116 A 
ATOM      7  N   UNL     1      14.272   9.987  36.406  0.00  0.00    -0.223 NA
ATOM      8  C   UNL     1      14.299  11.039  35.510  0.00  0.00    +0.220 A 
ATOM      9  N   UNL     1      14.498  12.349  35.919  0.00  0.00    -0.283 N 
ATOM     36  H   UNL     1      14.518  13.096  35.226  0.00  0.00    +0.155 HD
ATOM     37  N   UNL     1      14.120  10.807  34.193  0.00  0.00    -0.214 NA
BRANCH   4   3
ATOM      1  C   UNL     1      14.466   8.694  29.925  0.00  0.00    +0.020 A 
ATOM      2  C   UNL     1      14.698   8.789  31.347  0.00  0.00    +0.013 A 
ATOM      3  C   UNL     1      13.715   9.414  32.223  0.00  0.00    +0.019 A 
ATOM     38  C   UNL     1      12.497   9.937  31.622  0.00  0.00    +0.120 A 
ATOM     39  N   UNL     1      12.301   9.833  30.248  0.00  0.00    -0.263 NA
ATOM     40  C   UNL     1      13.241   9.235  29.396  0.00  0.00    +0.111 A 
ENDBRANCH   4   3
ENDBRANCH  10   9
BRANCH  12  13
ATOM     13  N   UNL     1      17.507  12.789  39.857  0.00  0.00    -0.281 N 
ATOM     14  C   UNL     1      18.569  13.668  39.720  0.00  0.00    +0.248 C 
ATOM     30  O   UNL     1      18.638  14.542  38.869  0.00  0.00    -0.270 OA
ATOM     31  H   UNL     1      17.662  11.992  40.474  0.00  0.00    +0.155 HD
BRANCH  14  15
ATOM     15  C   UNL     1      19.730  13.549  40.655  0.00  0.00    +0.037 A 
ATOM     16  C   UNL     1      19.783  12.493  41.669  0.00  0.00    +0.013 A 
ATOM     17  C   UNL     1      20.906  12.411  42.569  0.00  0.00    +0.005 A 
ATOM     18  C   UNL     1      21.986  13.389  42.458  0.00  0.00    -0.033 A 
ATOM     28  C   UNL     1      21.909  14.423  41.440  0.00  0.00    +0.005 A 
ATOM     29  C   UNL     1      20.810  14.507  40.556  0.00  0.00    +0.013 A 
BRANCH  18  19
ATOM     19  C   UNL     1      23.212  13.391  43.390  0.00  0.00    +0.119 C 
BRANCH  19  20
ATOM     20  N   UNL     1      24.558  13.488  42.750  0.00  0.00    -0.302 NA
ATOM     21  C   UNL     1      25.253  12.126  42.666  0.00  0.00    +0.066 C 
ATOM     22  C   UNL     1      26.650  12.243  41.973  0.00  0.00    -0.064 C 
ATOM     23  N   UNL     1      27.514  13.246  42.739  0.00  0.00    +0.379 N 
ATOM     24  C   UNL     1      28.848  13.314  42.124  0.00  0.00    -0.096 C 
ATOM     25  H   UNL     1      27.639  12.860  43.777  0.00  0.00    -0.082 HD
ATOM     26  C   UNL     1      26.829  14.602  42.829  0.00  0.00    -0.064 C 
ATOM     27  C   UNL     1      25.429  14.470  43.493  0.00  0.00    +0.066 C 
ENDBRANCH  19  20
ENDBRANCH  18  19
ENDBRANCH  14  15
ENDBRANCH  12  13
TORSDOF 6
ENDMDL
MODEL 2
REMARK VINA RESULT:      -8.6     17.337     22.583
REMARK  Name = C:\Users\Docking\Desktop\test protocol\1iep_ligandH.pdb
REMARK  8 active torsions:
REMARK  status: ('A' for Active; 'I' for Inactive)
REMARK    1  A    between atoms: _5  and  _11
REMARK    2  A    between atoms: _19  and  _21
REMARK    3  A    between atoms: _22  and  _66
REMARK    4  A    between atoms: _27  and  _30
REMARK    5  A    between atoms: _32  and  _33
REMARK    6  A    between atoms: _38  and  _43
REMARK    7  A    between atoms: _43  and  _46
REMARK    8  A    between atoms: _53  and  _55
REMARK                            x       y       z     vdW  Elec       q    Type
REMARK                         _______ _______ _______ _____ _____    ______ ____
ROOT
ATOM     10  C   UNL     1      32.039  10.127  28.364  0.00  0.00    +0.038 A 
ATOM     11  C   UNL     1      31.363  10.349  27.138  0.00  0.00    +0.047 A 
ATOM     12  C   UNL     1      30.487   9.338  26.567  0.00  0.00    +0.035 A 
ATOM     32  C   UNL     1      30.320   8.112  27.274  0.00  0.00    +0.024 A 
ATOM     33  C   UNL     1      31.000   7.868  28.522  0.00  0.00    +0.007 A 
ATOM     34  C   UNL     1      31.867   8.861  29.089  0.00  0.00    -0.029 A 
ATOM     35  C   UNL     1      32.576   8.544  30.426  0.00  0.00    +0.045 C 
ENDROOT
BRANCH  10   9
ATOM      4  C   UNL     1      36.264  12.388  28.633  0.00  0.00    +0.077 A 
ATOM      5  C   UNL     1      36.879  11.472  27.716  0.00  0.00    +0.048 A 
ATOM      6  C   UNL     1      36.076  10.429  27.203  0.00  0.00    +0.116 A 
ATOM      7  N   UNL     1      34.756  10.320  27.586  0.00  0.00    -0.223 NA
ATOM      8  C   UNL     1      34.195  11.219  28.474  0.00  0.00    +0.220 A 
ATOM      9  N   UNL     1      32.868  11.132  28.867  0.00  0.00    -0.283 N 
ATOM     36  H   UNL     1      32.493  11.811  29.529  0.00  0.00    +0.155 HD
ATOM     37  N   UNL     1      34.941  12.223  28.979  0.00  0.00    -0.214 NA
BRANCH   4   3
ATOM      1  C   UNL     1      37.501  16.003  29.468  0.00  0.00    +0.020 A 
ATOM      2  C   UNL     1      36.784  14.923  28.831  0.00  0.00    +0.013 A 
ATOM      3  C   UNL     1      36.981  13.544  29.258  0.00  0.00    +0.019 A 
ATOM     38  C   UNL     1      37.919  13.289  30.341  0.00  0.00    +0.120 A 
ATOM     39  N   UNL     1      38.597  14.350  30.935  0.00  0.00    -0.263 NA
ATOM     40  C   UNL     1      38.416  15.681  30.532  0.00  0.00    +0.111 A 
ENDBRANCH   4   3
ENDBRANCH  10   9
BRANCH  12  13
ATOM     13  N   UNL     1      29.781   9.504  25.321  0.00  0.00    -0.281 N 
ATOM     14  C   UNL     1      28.804  10.437  25.013  0.00  0.00    +0.248 C 
ATOM     30  O   UNL     1      28.233  11.137  25.837  0.00  0.00    -0.270 OA
ATOM     31  H   UNL     1      30.032   8.856  24.574  0.00  0.00    +0.155 HD
BRANCH  14  15
ATOM     15  C   UNL     1      28.390  10.606  23.587  0.00  0.00    +0.037 A 
ATOM     16  C   UNL     1      27.207   9.926  23.053  0.00  0.00    +0.013 A 
ATOM     17  C   UNL     1      26.840  10.093  21.669  0.00  0.00    +0.005 A 
ATOM     18  C   UNL     1      27.658  10.946  20.809  0.00  0.00    -0.033 A 
ATOM     28  C   UNL     1      28.823  11.612  21.366  0.00  0.00    +0.005 A 
ATOM     29  C   UNL     1      29.186  11.450  22.722  0.00  0.00    +0.013 A 
BRANCH  18  19
ATOM     19  C   UNL     1      27.353  11.164  19.316  0.00  0.00    +0.119 C 
BRANCH  19  20
ATOM     20  N   UNL     1      28.111  12.243  18.614  0.00  0.00    -0.302 NA
ATOM     21  C   UNL     1      27.482  13.622  18.830  0.00  0.00    +0.066 C 
ATOM     22  C   UNL     1      28.300  14.741  18.108  0.00  0.00    -0.064 C 
ATOM     23  N   UNL     1      28.395  14.417  16.616  0.00  0.00    +0.379 N 
ATOM     24  C   UNL     1      29.114  15.497  15.925  0.00  0.00    -0.096 C 
ATOM     25  H   UNL     1      27.357  14.388  16.210  0.00  0.00    -0.082 HD
ATOM     26  C   UNL     1      29.017  13.046  16.392  0.00  0.00    -0.064 C 
ATOM     27  C   UNL     1      28.213  11.945  17.138  0.00  0.00    +0.066 C 
ENDBRANCH  19  20
ENDBRANCH  18  19
ENDBRANCH  14  15
ENDBRANCH  12  13
TORSDOF 6
ENDMDL
MODEL 3
REMARK VINA RESULT:      -8.6      2.503     12.565
REMARK  Name = C:\Users\Docking\Desktop\test protocol\1iep_ligandH.pdb
REMARK  8 active torsions:
REMARK  status: ('A' for Active; 'I' for Inactive)
REMARK    1  A    between atoms: _5  and  _11
REMARK    2  A    between atoms: _19  and  _21
REMARK    3  A    between atoms: _22  and  _66
REMARK    4  A    between atoms: _27  and  _30
REMARK    5  A    between atoms: _32  and  _33
REMARK    6  A    between atoms: _38  and  _43
REMARK    7  A    between atoms: _43  and  _46
REMARK    8  A    between atoms: _53  and  _55
REMARK                            x       y       z     vdW  Elec       q    Type
REMARK                         _______ _______ _______ _____ _____    ______ ____
ROOT
ATOM     10  C   UNL     1      14.677  12.837  39.097  0.00  0.00    +0.038 A 
ATOM     11  C   UNL     1      14.826  12.336  37.778  0.00  0.00    +0.047 A 
ATOM     12  C   UNL     1      13.718  12.353  36.837  0.00  0.00    +0.035 A 
ATOM     32  C   UNL     1      12.471  12.891  37.271  0.00  0.00    +0.024 A 
ATOM     33  C   UNL     1      12.301  13.404  38.608  0.00  0.00    +0.007 A 
ATOM     34  C   UNL     1      13.391  13.387  39.542  0.00  0.00    -0.029 A 
ATOM     35  C   UNL     1      13.150  13.944  40.964  0.00  0.00    +0.045 C 
ENDROOT
BRANCH  10   9
ATOM      4  C   UNL     1      19.298  13.651  40.109  0.00  0.00    +0.077 A 
ATOM      5  C   UNL     1      19.553  14.178  38.799  0.00  0.00    +0.048 A 
ATOM      6  C   UNL     1      18.470  14.216  37.893  0.00  0.00    +0.116 A 
ATOM      7  N   UNL     1      17.228  13.758  38.278  0.00  0.00    -0.223 NA
ATOM      8  C   UNL     1      17.017  13.254  39.548  0.00  0.00    +0.220 A 
ATOM      9  N   UNL     1      15.775  12.795  39.959  0.00  0.00    -0.283 N 
ATOM     36  H   UNL     1      15.661  12.424  40.902  0.00  0.00    +0.155 HD
ATOM     37  N   UNL     1      18.035  13.206  40.432  0.00  0.00    -0.214 NA
BRANCH   4   3
ATOM      1  C   UNL     1      21.310  12.507  43.262  0.00  0.00    +0.020 A 
ATOM      2  C   UNL     1      20.278  12.564  42.253  0.00  0.00    +0.013 A 
ATOM      3  C   UNL     1      20.339  13.548  41.179  0.00  0.00    +0.019 A 
ATOM     38  C   UNL     1      21.468  14.466  41.155  0.00  0.00    +0.120 A 
ATOM     39  N   UNL     1      22.447  14.388  42.141  0.00  0.00    -0.263 NA
ATOM     40  C   UNL     1      22.397  13.446  43.180  0.00  0.00    +0.111 A 
ENDBRANCH   4   3
ENDBRANCH  10   9
BRANCH  12  13
ATOM     13  N   UNL     1      13.807  11.851  35.488  0.00  0.00    -0.281 N 
ATOM     14  C   UNL     1      13.995  10.541  35.078  0.00  0.00    +0.248 C 
ATOM     30  O   UNL     1      14.328   9.626  35.817  0.00  0.00    -0.270 OA
ATOM     31  H   UNL     1      13.723  12.545  34.746  0.00  0.00    +0.155 HD
BRANCH  14  15
ATOM     15  C   UNL     1      13.796  10.200  33.636  0.00  0.00    +0.037 A 
ATOM     16  C   UNL     1      13.249  11.179  32.693  0.00  0.00    +0.013 A 
ATOM     17  C   UNL     1      13.052  10.819  31.311  0.00  0.00    +0.005 A 
ATOM     18  C   UNL     1      13.404   9.473  30.864  0.00  0.00    -0.033 A 
ATOM     28  C   UNL     1      13.950   8.524  31.820  0.00  0.00    +0.005 A 
ATOM     29  C   UNL     1      14.143   8.873  33.176  0.00  0.00    +0.013 A 
BRANCH  18  19
ATOM     19  C   UNL     1      13.207   8.996  29.413  0.00  0.00    +0.119 C 
BRANCH  19  20
ATOM     20  N   UNL     1      14.252   8.093  28.843  0.00  0.00    -0.302 NA
ATOM     21  C   UNL     1      15.505   8.862  28.415  0.00  0.00    +0.066 C 
ATOM     22  C   UNL     1      16.595   7.900  27.842  0.00  0.00    -0.064 C 
ATOM     23  N   UNL     1      16.012   7.116  26.665  0.00  0.00    +0.379 N 
ATOM     24  C   UNL     1      17.053   6.253  26.087  0.00  0.00    -0.096 C 
ATOM     25  H   UNL     1      15.712   7.853  25.884  0.00  0.00    -0.082 HD
ATOM     26  C   UNL     1      14.765   6.351  27.081  0.00  0.00    -0.064 C 
ATOM     27  C   UNL     1      13.699   7.312  27.676  0.00  0.00    +0.066 C 
ENDBRANCH  19  20
ENDBRANCH  18  19
ENDBRANCH  14  15
ENDBRANCH  12  13
TORSDOF 6
ENDMDL
MODEL 4
REMARK VINA RESULT:      -8.5      3.250     12.453
REMARK  Name = C:\Users\Docking\Desktop\test protocol\1iep_ligandH.pdb
REMARK  8 active torsions:
REMARK  status: ('A' for Active; 'I' for Inactive)
REMARK    1  A    between atoms: _5  and  _11
REMARK    2  A    between atoms: _19  and  _21
REMARK    3  A    between atoms: _22  and  _66
REMARK    4  A    between atoms: _27  and  _30
REMARK    5  A    between atoms: _32  and  _33
REMARK    6  A    between atoms: _38  and  _43
REMARK    7  A    between atoms: _43  and  _46
REMARK    8  A    between atoms: _53  and  _55
REMARK                            x       y       z     vdW  Elec       q    Type
REMARK                         _______ _______ _______ _____ _____    ______ ____
ROOT
ATOM     10  C   UNL     1      14.177  12.526  37.175  0.00  0.00    +0.038 A 
ATOM     11  C   UNL     1      14.317  11.830  35.946  0.00  0.00    +0.047 A 
ATOM     12  C   UNL     1      13.162  11.268  35.264  0.00  0.00    +0.035 A 
ATOM     32  C   UNL     1      11.878  11.436  35.860  0.00  0.00    +0.024 A 
ATOM     33  C   UNL     1      11.718  12.139  37.109  0.00  0.00    +0.007 A 
ATOM     34  C   UNL     1      12.854  12.693  37.788  0.00  0.00    -0.029 A 
ATOM     35  C   UNL     1      12.624  13.431  39.127  0.00  0.00    +0.045 C 
ENDROOT
BRANCH  10   9
ATOM      4  C   UNL     1      18.023  12.098  40.014  0.00  0.00    +0.077 A 
ATOM      5  C   UNL     1      17.714  10.732  40.327  0.00  0.00    +0.048 A 
ATOM      6  C   UNL     1      16.553  10.180  39.742  0.00  0.00    +0.116 A 
ATOM      7  N   UNL     1      15.767  10.945  38.908  0.00  0.00    -0.223 NA
ATOM      8  C   UNL     1      16.092  12.259  38.629  0.00  0.00    +0.220 A 
ATOM      9  N   UNL     1      15.321  13.045  37.786  0.00  0.00    -0.283 N 
ATOM     36  H   UNL     1      15.591  14.012  37.611  0.00  0.00    +0.155 HD
ATOM     37  N   UNL     1      17.196  12.811  39.176  0.00  0.00    -0.214 NA
BRANCH   4   3
ATOM      1  C   UNL     1      20.954  13.261  42.329  0.00  0.00    +0.020 A 
ATOM      2  C   UNL     1      19.799  12.533  41.857  0.00  0.00    +0.013 A 
ATOM      3  C   UNL     1      19.218  12.822  40.552  0.00  0.00    +0.019 A 
ATOM     38  C   UNL     1      19.836  13.861  39.742  0.00  0.00    +0.120 A 
ATOM     39  N   UNL     1      20.947  14.547  40.223  0.00  0.00    -0.263 NA
ATOM     40  C   UNL     1      21.513  14.279  41.479  0.00  0.00    +0.111 A 
ENDBRANCH   4   3
ENDBRANCH  10   9
BRANCH  12  13
ATOM     13  N   UNL     1      13.243  10.546  34.019  0.00  0.00    -0.281 N 
ATOM     14  C   UNL     1      12.830  10.962  32.764  0.00  0.00    +0.248 C 
ATOM     30  O   UNL     1      12.129  11.942  32.557  0.00  0.00    -0.270 OA
ATOM     31  H   UNL     1      13.655   9.614  34.069  0.00  0.00    +0.155 HD
BRANCH  14  15
ATOM     15  C   UNL     1      13.244  10.168  31.568  0.00  0.00    +0.037 A 
ATOM     16  C   UNL     1      14.566   9.540  31.492  0.00  0.00    +0.013 A 
ATOM     17  C   UNL     1      14.946   8.794  30.319  0.00  0.00    +0.005 A 
ATOM     18  C   UNL     1      14.001   8.670  29.212  0.00  0.00    -0.033 A 
ATOM     28  C   UNL     1      12.694   9.298  29.315  0.00  0.00    +0.005 A 
ATOM     29  C   UNL     1      12.318  10.031  30.463  0.00  0.00    +0.013 A 
BRANCH  18  19
ATOM     19  C   UNL     1      14.329   7.910  27.913  0.00  0.00    +0.119 C 
BRANCH  19  20
ATOM     20  N   UNL     1      15.759   7.549  27.674  0.00  0.00    -0.302 NA
ATOM     21  C   UNL     1      16.630   8.785  27.432  0.00  0.00    +0.066 C 
ATOM     22  C   UNL     1      18.126   8.391  27.207  0.00  0.00    -0.064 C 
ATOM     23  N   UNL     1      18.223   7.421  26.029  0.00  0.00    +0.379 N 
ATOM     24  C   UNL     1      19.634   7.094  25.778  0.00  0.00    -0.096 C 
ATOM     25  H   UNL     1      17.831   7.945  25.126  0.00  0.00    -0.082 HD
ATOM     26  C   UNL     1      17.358   6.190  26.260  0.00  0.00    -0.064 C 
ATOM     27  C   UNL     1      15.878   6.595  26.512  0.00  0.00    +0.066 C 
ENDBRANCH  19  20
ENDBRANCH  18  19
ENDBRANCH  14  15
ENDBRANCH  12  13
TORSDOF 6
ENDMDL
MODEL 5
REMARK VINA RESULT:      -8.5     13.842     21.811
REMARK  Name = C:\Users\Docking\Desktop\test protocol\1iep_ligandH.pdb
REMARK  8 active torsions:
REMARK  status: ('A' for Active; 'I' for Inactive)
REMARK    1  A    between atoms: _5  and  _11
REMARK    2  A    between atoms: _19  and  _21
REMARK    3  A    between atoms: _22  and  _66
REMARK    4  A    between atoms: _27  and  _30
REMARK    5  A    between atoms: _32  and  _33
REMARK    6  A    between atoms: _38  and  _43
REMARK    7  A    between atoms: _43  and  _46
REMARK    8  A    between atoms: _53  and  _55
REMARK                            x       y       z     vdW  Elec       q    Type
REMARK                         _______ _______ _______ _____ _____    ______ ____
ROOT
ATOM     10  C   UNL     1      37.171  14.574  31.168  0.00  0.00    +0.038 A 
ATOM     11  C   UNL     1      36.115  13.923  30.478  0.00  0.00    +0.047 A 
ATOM     12  C   UNL     1      35.755  14.305  29.122  0.00  0.00    +0.035 A 
ATOM     32  C   UNL     1      36.493  15.352  28.496  0.00  0.00    +0.024 A 
ATOM     33  C   UNL     1      37.568  16.024  29.182  0.00  0.00    +0.007 A 
ATOM     34  C   UNL     1      37.926  15.653  30.521  0.00  0.00    -0.029 A 
ATOM     35  C   UNL     1      39.083  16.413  31.211  0.00  0.00    +0.045 C 
ENDROOT
BRANCH  10   9
ATOM      4  C   UNL     1      36.995  15.144  35.930  0.00  0.00    +0.077 A 
ATOM      5  C   UNL     1      36.260  16.370  35.815  0.00  0.00    +0.048 A 
ATOM      6  C   UNL     1      35.953  16.823  34.513  0.00  0.00    +0.116 A 
ATOM      7  N   UNL     1      36.356  16.096  33.414  0.00  0.00    -0.223 NA
ATOM      8  C   UNL     1      37.065  14.918  33.560  0.00  0.00    +0.220 A 
ATOM      9  N   UNL     1      37.474  14.167  32.469  0.00  0.00    -0.283 N 
ATOM     36  H   UNL     1      38.002  13.307  32.618  0.00  0.00    +0.155 HD
ATOM     37  N   UNL     1      37.372  14.465  34.793  0.00  0.00    -0.214 NA
BRANCH   4   3
ATOM      1  C   UNL     1      37.564  14.555  39.755  0.00  0.00    +0.020 A 
ATOM      2  C   UNL     1      37.162  15.188  38.520  0.00  0.00    +0.013 A 
ATOM      3  C   UNL     1      37.392  14.534  37.238  0.00  0.00    +0.019 A 
ATOM     38  C   UNL     1      38.036  13.229  37.241  0.00  0.00    +0.120 A 
ATOM     39  N   UNL     1      38.414  12.644  38.446  0.00  0.00    -0.263 NA
ATOM     40  C   UNL     1      38.199  13.266  39.685  0.00  0.00    +0.111 A 
ENDBRANCH   4   3
ENDBRANCH  10   9
BRANCH  12  13
ATOM     13  N   UNL     1      34.688  13.686  28.375  0.00  0.00    -0.281 N 
ATOM     14  C   UNL     1      34.716  12.486  27.685  0.00  0.00    +0.248 C 
ATOM     30  O   UNL     1      35.734  11.861  27.426  0.00  0.00    -0.270 OA
ATOM     31  H   UNL     1      33.804  14.196  28.352  0.00  0.00    +0.155 HD
BRANCH  14  15
ATOM     15  C   UNL     1      33.428  11.901  27.200  0.00  0.00    +0.037 A 
ATOM     16  C   UNL     1      33.105  11.856  25.772  0.00  0.00    +0.013 A 
ATOM     17  C   UNL     1      31.849  11.303  25.332  0.00  0.00    +0.005 A 
ATOM     18  C   UNL     1      30.907  10.788  26.323  0.00  0.00    -0.033 A 
ATOM     28  C   UNL     1      31.255  10.841  27.733  0.00  0.00    +0.005 A 
ATOM     29  C   UNL     1      32.485  11.383  28.168  0.00  0.00    +0.013 A 
BRANCH  18  19
ATOM     19  C   UNL     1      29.534  10.199  25.945  0.00  0.00    +0.119 C 
BRANCH  19  20
ATOM     20  N   UNL     1      28.447  10.292  26.965  0.00  0.00    -0.302 NA
ATOM     21  C   UNL     1      28.207   8.955  27.672  0.00  0.00    +0.066 C 
ATOM     22  C   UNL     1      27.081   9.076  28.750  0.00  0.00    -0.064 C 
ATOM     23  N   UNL     1      25.797   9.577  28.089  0.00  0.00    +0.379 N 
ATOM     24  C   UNL     1      24.721   9.636  29.089  0.00  0.00    -0.096 C 
ATOM     25  H   UNL     1      25.500   8.830  27.317  0.00  0.00    -0.082 HD
ATOM     26  C   UNL     1      26.027  10.905  27.381  0.00  0.00    -0.064 C 
ATOM     27  C   UNL     1      27.167  10.781  26.332  0.00  0.00    +0.066 C 
ENDBRANCH  19  20
ENDBRANCH  18  19
ENDBRANCH  14  15
ENDBRANCH  12  13
TORSDOF 6
ENDMDL
