MODEL 1
REMARK VINA RESULT:      -7.7      0.000      0.000
REMARK  Name = C:\Users\Docking\Desktop\test protocol\1iep_ligandH.pdb
REMARK  8 active torsions:
REMARK  status: ('A' for Active; 'I' for Inactive)
REMARK    1  A    between atoms: _5  and  _11
REMARK    2  A    between atoms: _19  and  _21
REMARK    3  A    between atoms: _22  and  _66
REMARK    4  A    between atoms: _27  and  _30
REMARK    5  A    between atoms: _32  and  _33
REMARK    6  A    between atoms: _38  and  _43
REMARK    7  A    between atoms: _43  and  _46
REMARK    8  A    between atoms: _53  and  _55
REMARK                            x       y       z     vdW  Elec       q    Type
REMARK                         _______ _______ _______ _____ _____    ______ ____
ROOT
ATOM     10  C   UNL     1      43.448   4.122  11.908  0.00  0.00    +0.038 A 
ATOM     11  C   UNL     1      43.152   4.654  13.189  0.00  0.00    +0.047 A 
ATOM     12  C   UNL     1      43.851   4.189  14.376  0.00  0.00    +0.035 A 
ATOM     32  C   UNL     1      44.850   3.184  14.222  0.00  0.00    +0.024 A 
ATOM     33  C   UNL     1      45.163   2.632  12.928  0.00  0.00    +0.007 A 
ATOM     34  C   UNL     1      44.474   3.084  11.753  0.00  0.00    -0.029 A 
ATOM     35  C   UNL     1      44.847   2.452  10.392  0.00  0.00    +0.045 C 
ENDROOT
BRANCH  10   9
ATOM      4  C   UNL     1      42.880   7.197   8.267  0.00  0.00    +0.077 A 
ATOM      5  C   UNL     1      44.070   7.920   8.614  0.00  0.00    +0.048 A 
ATOM      6  C   UNL     1      44.795   7.473   9.741  0.00  0.00    +0.116 A 
ATOM      7  N   UNL     1      44.355   6.382  10.459  0.00  0.00    -0.223 NA
ATOM      8  C   UNL     1      43.202   5.709  10.098  0.00  0.00    +0.220 A 
ATOM      9  N   UNL     1      42.745   4.605  10.801  0.00  0.00    -0.283 N 
ATOM     36  H   UNL     1      41.887   4.140  10.507  0.00  0.00    +0.155 HD
ATOM     37  N   UNL     1      42.491   6.117   9.027  0.00  0.00    -0.214 NA
BRANCH   4   3
ATOM      1  C   UNL     1      40.254   8.959   5.964  0.00  0.00    +0.020 A 
ATOM      2  C   UNL     1      41.073   8.664   7.117  0.00  0.00    +0.013 A 
ATOM      3  C   UNL     1      42.008   7.546   7.101  0.00  0.00    +0.019 A 
ATOM     38  C   UNL     1      42.091   6.740   5.892  0.00  0.00    +0.120 A 
ATOM     39  N   UNL     1      41.288   7.047   4.798  0.00  0.00    -0.263 NA
ATOM     40  C   UNL     1      40.384   8.119   4.803  0.00  0.00    +0.111 A 
ENDBRANCH   4   3
ENDBRANCH  10   9
BRANCH  12  13
ATOM     13  N   UNL     1      43.587   4.686  15.704  0.00  0.00    -0.281 N 
ATOM     14  C   UNL     1      44.179   5.763  16.344  0.00  0.00    +0.248 C 
ATOM     30  O   UNL     1      45.184   6.335  15.948  0.00  0.00    -0.270 OA
ATOM     31  H   UNL     1      42.878   4.183  16.237  0.00  0.00    +0.155 HD
BRANCH  14  15
ATOM     15  C   UNL     1      43.577   6.268  17.615  0.00  0.00    +0.037 A 
ATOM     16  C   UNL     1      42.229   5.869  18.028  0.00  0.00    +0.013 A 
ATOM     17  C   UNL     1      41.665   6.384  19.251  0.00  0.00    +0.005 A 
ATOM     18  C   UNL     1      42.451   7.304  20.070  0.00  0.00    -0.033 A 
ATOM     28  C   UNL     1      43.787   7.679  19.639  0.00  0.00    +0.005 A 
ATOM     29  C   UNL     1      44.343   7.177  18.441  0.00  0.00    +0.013 A 
BRANCH  18  19
ATOM     19  C   UNL     1      41.921   7.919  21.378  0.00  0.00    +0.119 C 
BRANCH  19  20
ATOM     20  N   UNL     1      41.104   7.039  22.266  0.00  0.00    -0.302 NA
ATOM     21  C   UNL     1      39.795   7.710  22.693  0.00  0.00    +0.066 C 
ATOM     22  C   UNL     1      38.943   6.767  23.603  0.00  0.00    -0.064 C 
ATOM     23  N   UNL     1      39.767   6.361  24.826  0.00  0.00    +0.379 N 
ATOM     24  C   UNL     1      38.949   5.521  25.713  0.00  0.00    -0.096 C 
ATOM     25  H   UNL     1      40.025   7.291  25.384  0.00  0.00    -0.082 HD
ATOM     26  C   UNL     1      41.072   5.696  24.411  0.00  0.00    -0.064 C 
ATOM     27  C   UNL     1      41.898   6.630  23.483  0.00  0.00    +0.066 C 
ENDBRANCH  19  20
ENDBRANCH  18  19
ENDBRANCH  14  15
ENDBRANCH  12  13
TORSDOF 6
ENDMDL
MODEL 2
REMARK VINA RESULT:      -7.5      3.676     13.824
REMARK  Name = C:\Users\Docking\Desktop\test protocol\1iep_ligandH.pdb
REMARK  8 active torsions:
REMARK  status: ('A' for Active; 'I' for Inactive)
REMARK    1  A    between atoms: _5  and  _11
REMARK    2  A    between atoms: _19  and  _21
REMARK    3  A    between atoms: _22  and  _66
REMARK    4  A    between atoms: _27  and  _30
REMARK    5  A    between atoms: _32  and  _33
REMARK    6  A    between atoms: _38  and  _43
REMARK    7  A    between atoms: _43  and  _46
REMARK    8  A    between atoms: _53  and  _55
REMARK                            x       y       z     vdW  Elec       q    Type
REMARK                         _______ _______ _______ _____ _____    ______ ____
ROOT
ATOM     10  C   UNL     1      41.307   8.545  21.732  0.00  0.00    +0.038 A 
ATOM     11  C   UNL     1      41.527   7.885  20.496  0.00  0.00    +0.047 A 
ATOM     12  C   UNL     1      42.531   8.362  19.557  0.00  0.00    +0.035 A 
ATOM     32  C   UNL     1      43.295   9.512  19.910  0.00  0.00    +0.024 A 
ATOM     33  C   UNL     1      43.084  10.195  21.162  0.00  0.00    +0.007 A 
ATOM     34  C   UNL     1      42.094   9.731  22.091  0.00  0.00    -0.029 A 
ATOM     35  C   UNL     1      41.906  10.507  23.416  0.00  0.00    +0.045 C 
ENDROOT
BRANCH  10   9
ATOM      4  C   UNL     1      39.931   5.842  25.451  0.00  0.00    +0.077 A 
ATOM      5  C   UNL     1      41.265   5.365  25.675  0.00  0.00    +0.048 A 
ATOM      6  C   UNL     1      42.276   5.835  24.807  0.00  0.00    +0.116 A 
ATOM      7  N   UNL     1      41.964   6.715  23.793  0.00  0.00    -0.223 NA
ATOM      8  C   UNL     1      40.666   7.153  23.604  0.00  0.00    +0.220 A 
ATOM      9  N   UNL     1      40.331   8.044  22.596  0.00  0.00    -0.283 N 
ATOM     36  H   UNL     1      39.361   8.338  22.485  0.00  0.00    +0.155 HD
ATOM     37  N   UNL     1      39.683   6.719  24.419  0.00  0.00    -0.214 NA
BRANCH   4   3
ATOM      1  C   UNL     1      37.163   3.724  27.228  0.00  0.00    +0.020 A 
ATOM      2  C   UNL     1      38.304   4.059  26.408  0.00  0.00    +0.013 A 
ATOM      3  C   UNL     1      38.755   5.440  26.287  0.00  0.00    +0.019 A 
ATOM     38  C   UNL     1      38.025   6.465  27.016  0.00  0.00    +0.120 A 
ATOM     39  N   UNL     1      36.928   6.113  27.797  0.00  0.00    -0.263 NA
ATOM     40  C   UNL     1      36.484   4.788  27.920  0.00  0.00    +0.111 A 
ENDBRANCH   4   3
ENDBRANCH  10   9
BRANCH  12  13
ATOM     13  N   UNL     1      42.793   7.738  18.283  0.00  0.00    -0.281 N 
ATOM     14  C   UNL     1      43.261   6.457  18.043  0.00  0.00    +0.248 C 
ATOM     30  O   UNL     1      43.731   5.721  18.898  0.00  0.00    -0.270 OA
ATOM     31  H   UNL     1      42.611   8.311  17.459  0.00  0.00    +0.155 HD
BRANCH  14  15
ATOM     15  C   UNL     1      43.214   5.920  16.649  0.00  0.00    +0.037 A 
ATOM     16  C   UNL     1      43.745   6.689  15.520  0.00  0.00    +0.013 A 
ATOM     17  C   UNL     1      43.672   6.155  14.183  0.00  0.00    +0.005 A 
ATOM     18  C   UNL     1      43.065   4.844  13.968  0.00  0.00    -0.033 A 
ATOM     28  C   UNL     1      42.550   4.101  15.106  0.00  0.00    +0.005 A 
ATOM     29  C   UNL     1      42.619   4.621  16.418  0.00  0.00    +0.013 A 
BRANCH  18  19
ATOM     19  C   UNL     1      42.924   4.206  12.573  0.00  0.00    +0.119 C 
BRANCH  19  20
ATOM     20  N   UNL     1      44.048   3.344  12.100  0.00  0.00    -0.302 NA
ATOM     21  C   UNL     1      44.580   3.791  10.735  0.00  0.00    +0.066 C 
ATOM     22  C   UNL     1      45.769   2.892  10.265  0.00  0.00    -0.064 C 
ATOM     23  N   UNL     1      45.314   1.433  10.217  0.00  0.00    +0.379 N 
ATOM     24  C   UNL     1      46.413   0.592   9.720  0.00  0.00    -0.096 C 
ATOM     25  H   UNL     1      44.477   1.364   9.484  0.00  0.00    -0.082 HD
ATOM     26  C   UNL     1      44.781   0.981  11.569  0.00  0.00    -0.064 C 
ATOM     27  C   UNL     1      43.619   1.898  12.040  0.00  0.00    +0.066 C 
ENDBRANCH  19  20
ENDBRANCH  18  19
ENDBRANCH  14  15
ENDBRANCH  12  13
TORSDOF 6
ENDMDL
MODEL 3
REMARK VINA RESULT:      -7.5      3.681     13.937
REMARK  Name = C:\Users\Docking\Desktop\test protocol\1iep_ligandH.pdb
REMARK  8 active torsions:
REMARK  status: ('A' for Active; 'I' for Inactive)
REMARK    1  A    between atoms: _5  and  _11
REMARK    2  A    between atoms: _19  and  _21
REMARK    3  A    between atoms: _22  and  _66
REMARK    4  A    between atoms: _27  and  _30
REMARK    5  A    between atoms: _32  and  _33
REMARK    6  A    between atoms: _38  and  _43
REMARK    7  A    between atoms: _43  and  _46
REMARK    8  A    between atoms: _53  and  _55
REMARK                            x       y       z     vdW  Elec       q    Type
REMARK                         _______ _______ _______ _____ _____    ______ ____
ROOT
ATOM     10  C   UNL     1      43.580   7.515  22.488  0.00  0.00    +0.038 A 
ATOM     11  C   UNL     1      43.568   6.830  21.246  0.00  0.00    +0.047 A 
ATOM     12  C   UNL     1      43.921   7.508  20.009  0.00  0.00    +0.035 A 
ATOM     32  C   UNL     1      44.284   8.885  20.073  0.00  0.00    +0.024 A 
ATOM     33  C   UNL     1      44.300   9.598  21.326  0.00  0.00    +0.007 A 
ATOM     34  C   UNL     1      43.951   8.934  22.550  0.00  0.00    -0.029 A 
ATOM     35  C   UNL     1      43.980   9.750  23.864  0.00  0.00    +0.045 C 
ENDROOT
BRANCH  10   9
ATOM      4  C   UNL     1      40.349   5.464  25.385  0.00  0.00    +0.077 A 
ATOM      5  C   UNL     1      39.258   5.843  24.534  0.00  0.00    +0.048 A 
ATOM      6  C   UNL     1      39.570   6.571  23.364  0.00  0.00    +0.116 A 
ATOM      7  N   UNL     1      40.880   6.891  23.076  0.00  0.00    -0.223 NA
ATOM      8  C   UNL     1      41.908   6.512  23.919  0.00  0.00    +0.220 A 
ATOM      9  N   UNL     1      43.233   6.815  23.645  0.00  0.00    -0.283 N 
ATOM     36  H   UNL     1      43.962   6.524  24.296  0.00  0.00    +0.155 HD
ATOM     37  N   UNL     1      41.636   5.817  25.043  0.00  0.00    -0.214 NA
BRANCH   4   3
ATOM      1  C   UNL     1      38.789   3.410  28.325  0.00  0.00    +0.020 A 
ATOM      2  C   UNL     1      38.898   4.152  27.090  0.00  0.00    +0.013 A 
ATOM      3  C   UNL     1      40.180   4.690  26.655  0.00  0.00    +0.019 A 
ATOM     38  C   UNL     1      41.343   4.457  27.498  0.00  0.00    +0.120 A 
ATOM     39  N   UNL     1      41.208   3.740  28.683  0.00  0.00    -0.263 NA
ATOM     40  C   UNL     1      39.978   3.219  29.113  0.00  0.00    +0.111 A 
ENDBRANCH   4   3
ENDBRANCH  10   9
BRANCH  12  13
ATOM     13  N   UNL     1      43.919   6.866  18.718  0.00  0.00    -0.281 N 
ATOM     14  C   UNL     1      42.873   6.202  18.099  0.00  0.00    +0.248 C 
ATOM     30  O   UNL     1      41.836   5.873  18.657  0.00  0.00    -0.270 OA
ATOM     31  H   UNL     1      44.795   6.906  18.197  0.00  0.00    +0.155 HD
BRANCH  14  15
ATOM     15  C   UNL     1      43.002   5.837  16.655  0.00  0.00    +0.037 A 
ATOM     16  C   UNL     1      43.779   6.665  15.729  0.00  0.00    +0.013 A 
ATOM     17  C   UNL     1      43.874   6.301  14.338  0.00  0.00    +0.005 A 
ATOM     18  C   UNL     1      43.189   5.100  13.864  0.00  0.00    -0.033 A 
ATOM     28  C   UNL     1      42.430   4.294  14.805  0.00  0.00    +0.005 A 
ATOM     29  C   UNL     1      42.334   4.649  16.169  0.00  0.00    +0.013 A 
BRANCH  18  19
ATOM     19  C   UNL     1      43.218   4.646  12.393  0.00  0.00    +0.119 C 
BRANCH  19  20
ATOM     20  N   UNL     1      44.235   3.620  12.013  0.00  0.00    -0.302 NA
ATOM     21  C   UNL     1      44.893   3.934  10.666  0.00  0.00    +0.066 C 
ATOM     22  C   UNL     1      45.970   2.863  10.296  0.00  0.00    -0.064 C 
ATOM     23  N   UNL     1      45.320   1.478  10.271  0.00  0.00    +0.379 N 
ATOM     24  C   UNL     1      46.317   0.476   9.867  0.00  0.00    -0.096 C 
ATOM     25  H   UNL     1      44.520   1.494   9.495  0.00  0.00    -0.082 HD
ATOM     26  C   UNL     1      44.661   1.159  11.606  0.00  0.00    -0.064 C 
ATOM     27  C   UNL     1      43.614   2.246  11.979  0.00  0.00    +0.066 C 
ENDBRANCH  19  20
ENDBRANCH  18  19
ENDBRANCH  14  15
ENDBRANCH  12  13
TORSDOF 6
ENDMDL
MODEL 4
REMARK VINA RESULT:      -7.4      3.852     12.733
REMARK  Name = C:\Users\Docking\Desktop\test protocol\1iep_ligandH.pdb
REMARK  8 active torsions:
REMARK  status: ('A' for Active; 'I' for Inactive)
REMARK    1  A    between atoms: _5  and  _11
REMARK    2  A    between atoms: _19  and  _21
REMARK    3  A    between atoms: _22  and  _66
REMARK    4  A    between atoms: _27  and  _30
REMARK    5  A    between atoms: _32  and  _33
REMARK    6  A    between atoms: _38  and  _43
REMARK    7  A    between atoms: _43  and  _46
REMARK    8  A    between atoms: _53  and  _55
REMARK                            x       y       z     vdW  Elec       q    Type
REMARK                         _______ _______ _______ _____ _____    ______ ____
ROOT
ATOM     10  C   UNL     1      40.827   8.517  21.352  0.00  0.00    +0.038 A 
ATOM     11  C   UNL     1      41.066   7.988  20.058  0.00  0.00    +0.047 A 
ATOM     12  C   UNL     1      42.418   7.837  19.544  0.00  0.00    +0.035 A 
ATOM     32  C   UNL     1      43.505   8.234  20.377  0.00  0.00    +0.024 A 
ATOM     33  C   UNL     1      43.281   8.774  21.694  0.00  0.00    +0.007 A 
ATOM     34  C   UNL     1      41.948   8.927  22.205  0.00  0.00    -0.029 A 
ATOM     35  C   UNL     1      41.767   9.519  23.622  0.00  0.00    +0.045 C 
ENDROOT
BRANCH  10   9
ATOM      4  C   UNL     1      36.675  10.903  21.676  0.00  0.00    +0.077 A 
ATOM      5  C   UNL     1      37.185  12.012  20.922  0.00  0.00    +0.048 A 
ATOM      6  C   UNL     1      38.523  11.932  20.475  0.00  0.00    +0.116 A 
ATOM      7  N   UNL     1      39.285  10.821  20.766  0.00  0.00    -0.223 NA
ATOM      8  C   UNL     1      38.763   9.770  21.497  0.00  0.00    +0.220 A 
ATOM      9  N   UNL     1      39.508   8.639  21.795  0.00  0.00    -0.283 N 
ATOM     36  H   UNL     1      39.089   7.888  22.343  0.00  0.00    +0.155 HD
ATOM     37  N   UNL     1      37.488   9.822  21.937  0.00  0.00    -0.214 NA
BRANCH   4   3
ATOM      1  C   UNL     1      33.534   9.939  23.798  0.00  0.00    +0.020 A 
ATOM      2  C   UNL     1      34.895   9.963  23.315  0.00  0.00    +0.013 A 
ATOM      3  C   UNL     1      35.280  10.838  22.214  0.00  0.00    +0.019 A 
ATOM     38  C   UNL     1      34.254  11.682  21.620  0.00  0.00    +0.120 A 
ATOM     39  N   UNL     1      32.951  11.636  22.104  0.00  0.00    -0.263 NA
ATOM     40  C   UNL     1      32.569  10.797  23.162  0.00  0.00    +0.111 A 
ENDBRANCH   4   3
ENDBRANCH  10   9
BRANCH  12  13
ATOM     13  N   UNL     1      42.722   7.314  18.235  0.00  0.00    -0.281 N 
ATOM     14  C   UNL     1      43.181   6.048  17.910  0.00  0.00    +0.248 C 
ATOM     30  O   UNL     1      43.607   5.238  18.720  0.00  0.00    -0.270 OA
ATOM     31  H   UNL     1      42.580   7.954  17.454  0.00  0.00    +0.155 HD
BRANCH  14  15
ATOM     15  C   UNL     1      43.181   5.627  16.476  0.00  0.00    +0.037 A 
ATOM     16  C   UNL     1      43.615   6.540  15.415  0.00  0.00    +0.013 A 
ATOM     17  C   UNL     1      43.589   6.114  14.039  0.00  0.00    +0.005 A 
ATOM     18  C   UNL     1      43.129   4.766  13.715  0.00  0.00    -0.033 A 
ATOM     28  C   UNL     1      42.710   3.878  14.787  0.00  0.00    +0.005 A 
ATOM     29  C   UNL     1      42.733   4.293  16.137  0.00  0.00    +0.013 A 
BRANCH  18  19
ATOM     19  C   UNL     1      43.048   4.234  12.271  0.00  0.00    +0.119 C 
BRANCH  19  20
ATOM     20  N   UNL     1      44.178   3.382  11.792  0.00  0.00    -0.302 NA
ATOM     21  C   UNL     1      44.647   3.785  10.392  0.00  0.00    +0.066 C 
ATOM     22  C   UNL     1      45.844   2.899   9.916  0.00  0.00    -0.064 C 
ATOM     23  N   UNL     1      45.428   1.427   9.944  0.00  0.00    +0.379 N 
ATOM     24  C   UNL     1      46.531   0.596   9.442  0.00  0.00    -0.096 C 
ATOM     25  H   UNL     1      44.567   1.306   9.246  0.00  0.00    -0.082 HD
ATOM     26  C   UNL     1      44.957   1.018  11.333  0.00  0.00    -0.064 C 
ATOM     27  C   UNL     1      43.787   1.925  11.809  0.00  0.00    +0.066 C 
ENDBRANCH  19  20
ENDBRANCH  18  19
ENDBRANCH  14  15
ENDBRANCH  12  13
TORSDOF 6
ENDMDL
MODEL 5
REMARK VINA RESULT:      -7.3      4.602      8.137
REMARK  Name = C:\Users\Docking\Desktop\test protocol\1iep_ligandH.pdb
REMARK  8 active torsions:
REMARK  status: ('A' for Active; 'I' for Inactive)
REMARK    1  A    between atoms: _5  and  _11
REMARK    2  A    between atoms: _19  and  _21
REMARK    3  A    between atoms: _22  and  _66
REMARK    4  A    between atoms: _27  and  _30
REMARK    5  A    between atoms: _32  and  _33
REMARK    6  A    between atoms: _38  and  _43
REMARK    7  A    between atoms: _43  and  _46
REMARK    8  A    between atoms: _53  and  _55
REMARK                            x       y       z     vdW  Elec       q    Type
REMARK                         _______ _______ _______ _____ _____    ______ ____
ROOT
ATOM     10  C   UNL     1      43.495   6.425  18.857  0.00  0.00    +0.038 A 
ATOM     11  C   UNL     1      42.193   6.735  19.327  0.00  0.00    +0.047 A 
ATOM     12  C   UNL     1      41.963   7.861  20.218  0.00  0.00    +0.035 A 
ATOM     32  C   UNL     1      43.082   8.653  20.609  0.00  0.00    +0.024 A 
ATOM     33  C   UNL     1      44.412   8.352  20.142  0.00  0.00    +0.007 A 
ATOM     34  C   UNL     1      44.646   7.240  19.265  0.00  0.00    -0.029 A 
ATOM     35  C   UNL     1      46.094   6.960  18.800  0.00  0.00    +0.045 C 
ENDROOT
BRANCH  10   9
ATOM      4  C   UNL     1      43.860   4.493  14.479  0.00  0.00    +0.077 A 
ATOM      5  C   UNL     1      43.684   5.765  13.838  0.00  0.00    +0.048 A 
ATOM      6  C   UNL     1      43.495   6.890  14.671  0.00  0.00    +0.116 A 
ATOM      7  N   UNL     1      43.486   6.743  16.041  0.00  0.00    -0.223 NA
ATOM      8  C   UNL     1      43.657   5.502  16.627  0.00  0.00    +0.220 A 
ATOM      9  N   UNL     1      43.658   5.332  18.003  0.00  0.00    -0.283 N 
ATOM     36  H   UNL     1      43.780   4.399  18.396  0.00  0.00    +0.155 HD
ATOM     37  N   UNL     1      43.837   4.412  15.853  0.00  0.00    -0.214 NA
BRANCH   4   3
ATOM      1  C   UNL     1      43.482   0.823  13.179  0.00  0.00    +0.020 A 
ATOM      2  C   UNL     1      43.234   2.036  13.924  0.00  0.00    +0.013 A 
ATOM      3  C   UNL     1      44.074   3.212  13.734  0.00  0.00    +0.019 A 
ATOM     38  C   UNL     1      45.166   3.127  12.776  0.00  0.00    +0.120 A 
ATOM     39  N   UNL     1      45.382   1.945  12.074  0.00  0.00    -0.263 NA
ATOM     40  C   UNL     1      44.581   0.806  12.250  0.00  0.00    +0.111 A 
ENDBRANCH   4   3
ENDBRANCH  10   9
BRANCH  12  13
ATOM     13  N   UNL     1      40.665   8.220  20.734  0.00  0.00    -0.281 N 
ATOM     14  C   UNL     1      40.132   7.924  21.978  0.00  0.00    +0.248 C 
ATOM     30  O   UNL     1      40.611   7.119  22.762  0.00  0.00    -0.270 OA
ATOM     31  H   UNL     1      40.067   8.756  20.106  0.00  0.00    +0.155 HD
BRANCH  14  15
ATOM     15  C   UNL     1      38.876   8.612  22.407  0.00  0.00    +0.037 A 
ATOM     16  C   UNL     1      38.119   9.459  21.481  0.00  0.00    +0.013 A 
ATOM     17  C   UNL     1      36.920  10.125  21.926  0.00  0.00    +0.005 A 
ATOM     18  C   UNL     1      36.470   9.944  23.304  0.00  0.00    -0.033 A 
ATOM     28  C   UNL     1      37.237   9.094  24.199  0.00  0.00    +0.005 A 
ATOM     29  C   UNL     1      38.413   8.440  23.767  0.00  0.00    +0.013 A 
BRANCH  18  19
ATOM     19  C   UNL     1      35.214  10.632  23.870  0.00  0.00    +0.119 C 
BRANCH  19  20
ATOM     20  N   UNL     1      33.889  10.156  23.371  0.00  0.00    -0.302 NA
ATOM     21  C   UNL     1      32.872  11.295  23.263  0.00  0.00    +0.066 C 
ATOM     22  C   UNL     1      31.499  10.783  22.719  0.00  0.00    -0.064 C 
ATOM     23  N   UNL     1      30.974   9.673  23.631  0.00  0.00    +0.379 N 
ATOM     24  C   UNL     1      29.656   9.229  23.155  0.00  0.00    -0.096 C 
ATOM     25  H   UNL     1      30.837  10.108  24.648  0.00  0.00    -0.082 HD
ATOM     26  C   UNL     1      31.980   8.537  23.746  0.00  0.00    -0.064 C 
ATOM     27  C   UNL     1      33.350   9.062  24.260  0.00  0.00    +0.066 C 
ENDBRANCH  19  20
ENDBRANCH  18  19
ENDBRANCH  14  15
ENDBRANCH  12  13
TORSDOF 6
ENDMDL
