MODEL 1
REMARK VINA RESULT:      -8.1      0.000      0.000
REMARK  Name = C:\Users\Docking\Desktop\test protocol\1iep_ligandH.pdb
REMARK  8 active torsions:
REMARK  status: ('A' for Active; 'I' for Inactive)
REMARK    1  A    between atoms: _5  and  _11
REMARK    2  A    between atoms: _19  and  _21
REMARK    3  A    between atoms: _22  and  _66
REMARK    4  A    between atoms: _27  and  _30
REMARK    5  A    between atoms: _32  and  _33
REMARK    6  A    between atoms: _38  and  _43
REMARK    7  A    between atoms: _43  and  _46
REMARK    8  A    between atoms: _53  and  _55
REMARK                            x       y       z     vdW  Elec       q    Type
REMARK                         _______ _______ _______ _____ _____    ______ ____
ROOT
ATOM     10  C   UNL     1      39.118   2.562 103.741  0.00  0.00    +0.038 A 
ATOM     11  C   UNL     1      38.830   3.517 102.733  0.00  0.00    +0.047 A 
ATOM     12  C   UNL     1      39.525   4.794 102.686  0.00  0.00    +0.035 A 
ATOM     32  C   UNL     1      40.510   5.064 103.680  0.00  0.00    +0.024 A 
ATOM     33  C   UNL     1      40.815   4.104 104.712  0.00  0.00    +0.007 A 
ATOM     34  C   UNL     1      40.131   2.844 104.765  0.00  0.00    -0.029 A 
ATOM     35  C   UNL     1      40.493   1.856 105.898  0.00  0.00    +0.045 C 
ENDROOT
BRANCH  10   9
ATOM      4  C   UNL     1      38.431  -1.925 102.180  0.00  0.00    +0.077 A 
ATOM      5  C   UNL     1      39.539  -1.842 101.273  0.00  0.00    +0.048 A 
ATOM      6  C   UNL     1      40.256  -0.625 101.233  0.00  0.00    +0.116 A 
ATOM      7  N   UNL     1      39.883   0.424 102.045  0.00  0.00    -0.223 NA
ATOM      8  C   UNL     1      38.808   0.312 102.907  0.00  0.00    +0.220 A 
ATOM      9  N   UNL     1      38.420   1.352 103.738  0.00  0.00    -0.283 N 
ATOM     36  H   UNL     1      37.617   1.232 104.355  0.00  0.00    +0.155 HD
ATOM     37  N   UNL     1      38.106  -0.839 102.963  0.00  0.00    -0.214 NA
BRANCH   4   3
ATOM      1  C   UNL     1      35.446  -4.445 101.980  0.00  0.00    +0.020 A 
ATOM      2  C   UNL     1      36.227  -3.244 101.799  0.00  0.00    +0.013 A 
ATOM      3  C   UNL     1      37.578  -3.145 102.339  0.00  0.00    +0.019 A 
ATOM     38  C   UNL     1      38.113  -4.290 103.061  0.00  0.00    +0.120 A 
ATOM     39  N   UNL     1      37.336  -5.433 103.221  0.00  0.00    -0.263 NA
ATOM     40  C   UNL     1      36.035  -5.539 102.708  0.00  0.00    +0.111 A 
ENDBRANCH   4   3
ENDBRANCH  10   9
BRANCH  12  13
ATOM     13  N   UNL     1      39.269   5.806 101.691  0.00  0.00    -0.281 N 
ATOM     14  C   UNL     1      39.356   5.688 100.314  0.00  0.00    +0.248 C 
ATOM     30  O   UNL     1      39.878   4.748  99.732  0.00  0.00    -0.270 OA
ATOM     31  H   UNL     1      38.989   6.721 102.046  0.00  0.00    +0.155 HD
BRANCH  14  15
ATOM     15  C   UNL     1      38.796   6.779  99.459  0.00  0.00    +0.037 A 
ATOM     16  C   UNL     1      37.758   7.681  99.962  0.00  0.00    +0.013 A 
ATOM     17  C   UNL     1      37.222   8.714  99.110  0.00  0.00    +0.005 A 
ATOM     18  C   UNL     1      37.727   8.850  97.746  0.00  0.00    -0.033 A 
ATOM     28  C   UNL     1      38.762   7.945  97.274  0.00  0.00    +0.005 A 
ATOM     29  C   UNL     1      39.288   6.931  98.106  0.00  0.00    +0.013 A 
BRANCH  18  19
ATOM     19  C   UNL     1      37.199   9.910  96.761  0.00  0.00    +0.119 C 
BRANCH  19  20
ATOM     20  N   UNL     1      35.844   9.684  96.176  0.00  0.00    -0.302 NA
ATOM     21  C   UNL     1      35.916   9.262  94.705  0.00  0.00    +0.066 C 
ATOM     22  C   UNL     1      34.491   9.009  94.115  0.00  0.00    -0.064 C 
ATOM     23  N   UNL     1      33.643  10.272  94.275  0.00  0.00    +0.379 N 
ATOM     24  C   UNL     1      32.321  10.056  93.670  0.00  0.00    -0.096 C 
ATOM     25  H   UNL     1      34.146  11.090  93.708  0.00  0.00    -0.082 HD
ATOM     26  C   UNL     1      33.569  10.700  95.734  0.00  0.00    -0.064 C 
ATOM     27  C   UNL     1      34.992  10.921  96.319  0.00  0.00    +0.066 C 
ENDBRANCH  19  20
ENDBRANCH  18  19
ENDBRANCH  14  15
ENDBRANCH  12  13
TORSDOF 6
ENDMDL
MODEL 2
REMARK VINA RESULT:      -7.9     18.042     22.178
REMARK  Name = C:\Users\Docking\Desktop\test protocol\1iep_ligandH.pdb
REMARK  8 active torsions:
REMARK  status: ('A' for Active; 'I' for Inactive)
REMARK    1  A    between atoms: _5  and  _11
REMARK    2  A    between atoms: _19  and  _21
REMARK    3  A    between atoms: _22  and  _66
REMARK    4  A    between atoms: _27  and  _30
REMARK    5  A    between atoms: _32  and  _33
REMARK    6  A    between atoms: _38  and  _43
REMARK    7  A    between atoms: _43  and  _46
REMARK    8  A    between atoms: _53  and  _55
REMARK                            x       y       z     vdW  Elec       q    Type
REMARK                         _______ _______ _______ _____ _____    ______ ____
ROOT
ATOM     10  C   UNL     1      33.300   6.443 117.854  0.00  0.00    +0.038 A 
ATOM     11  C   UNL     1      31.978   5.929 117.831  0.00  0.00    +0.047 A 
ATOM     12  C   UNL     1      31.194   5.815 119.051  0.00  0.00    +0.035 A 
ATOM     32  C   UNL     1      31.787   6.237 120.277  0.00  0.00    +0.024 A 
ATOM     33  C   UNL     1      33.129   6.761 120.318  0.00  0.00    +0.007 A 
ATOM     34  C   UNL     1      33.908   6.873 119.118  0.00  0.00    -0.029 A 
ATOM     35  C   UNL     1      35.345   7.436 119.222  0.00  0.00    +0.045 C 
ENDROOT
BRANCH  10   9
ATOM      4  C   UNL     1      34.624   8.790 113.882  0.00  0.00    +0.077 A 
ATOM      5  C   UNL     1      33.817   9.929 114.215  0.00  0.00    +0.048 A 
ATOM      6  C   UNL     1      33.071   9.867 115.413  0.00  0.00    +0.116 A 
ATOM      7  N   UNL     1      33.135   8.746 116.211  0.00  0.00    -0.223 NA
ATOM      8  C   UNL     1      33.922   7.664 115.860  0.00  0.00    +0.220 A 
ATOM      9  N   UNL     1      34.007   6.530 116.652  0.00  0.00    -0.283 N 
ATOM     36  H   UNL     1      34.593   5.750 116.355  0.00  0.00    +0.155 HD
ATOM     37  N   UNL     1      34.642   7.698 114.720  0.00  0.00    -0.214 NA
BRANCH   4   3
ATOM      1  C   UNL     1      36.244   7.554 110.543  0.00  0.00    +0.020 A 
ATOM      2  C   UNL     1      35.403   7.587 111.717  0.00  0.00    +0.013 A 
ATOM      3  C   UNL     1      35.471   8.705 112.651  0.00  0.00    +0.019 A 
ATOM     38  C   UNL     1      36.407   9.781 112.363  0.00  0.00    +0.120 A 
ATOM     39  N   UNL     1      37.205   9.721 111.225  0.00  0.00    -0.263 NA
ATOM     40  C   UNL     1      37.149   8.650 110.320  0.00  0.00    +0.111 A 
ENDBRANCH   4   3
ENDBRANCH  10   9
BRANCH  12  13
ATOM     13  N   UNL     1      29.850   5.293 119.091  0.00  0.00    -0.281 N 
ATOM     14  C   UNL     1      29.334   4.335 119.948  0.00  0.00    +0.248 C 
ATOM     30  O   UNL     1      30.010   3.621 120.674  0.00  0.00    -0.270 OA
ATOM     31  H   UNL     1      29.201   5.677 118.405  0.00  0.00    +0.155 HD
BRANCH  14  15
ATOM     15  C   UNL     1      27.855   4.128 119.993  0.00  0.00    +0.037 A 
ATOM     16  C   UNL     1      27.055   4.093 118.766  0.00  0.00    +0.013 A 
ATOM     17  C   UNL     1      25.627   3.909 118.839  0.00  0.00    +0.005 A 
ATOM     18  C   UNL     1      24.990   3.758 120.145  0.00  0.00    -0.033 A 
ATOM     28  C   UNL     1      25.808   3.792 121.346  0.00  0.00    +0.005 A 
ATOM     29  C   UNL     1      27.208   3.972 121.278  0.00  0.00    +0.013 A 
BRANCH  18  19
ATOM     19  C   UNL     1      23.470   3.579 120.318  0.00  0.00    +0.119 C 
BRANCH  19  20
ATOM     20  N   UNL     1      23.010   2.513 121.258  0.00  0.00    -0.302 NA
ATOM     21  C   UNL     1      22.760   1.183 120.540  0.00  0.00    +0.066 C 
ATOM     22  C   UNL     1      22.301   0.073 121.541  0.00  0.00    -0.064 C 
ATOM     23  N   UNL     1      21.041   0.539 122.272  0.00  0.00    +0.379 N 
ATOM     24  C   UNL     1      20.574  -0.525 123.172  0.00  0.00    -0.096 C 
ATOM     25  H   UNL     1      20.248   0.707 121.506  0.00  0.00    -0.082 HD
ATOM     26  C   UNL     1      21.280   1.862 122.987  0.00  0.00    -0.064 C 
ATOM     27  C   UNL     1      21.764   2.950 121.988  0.00  0.00    +0.066 C 
ENDBRANCH  19  20
ENDBRANCH  18  19
ENDBRANCH  14  15
ENDBRANCH  12  13
TORSDOF 6
ENDMDL
MODEL 3
REMARK VINA RESULT:      -7.7      3.064     12.015
REMARK  Name = C:\Users\Docking\Desktop\test protocol\1iep_ligandH.pdb
REMARK  8 active torsions:
REMARK  status: ('A' for Active; 'I' for Inactive)
REMARK    1  A    between atoms: _5  and  _11
REMARK    2  A    between atoms: _19  and  _21
REMARK    3  A    between atoms: _22  and  _66
REMARK    4  A    between atoms: _27  and  _30
REMARK    5  A    between atoms: _32  and  _33
REMARK    6  A    between atoms: _38  and  _43
REMARK    7  A    between atoms: _43  and  _46
REMARK    8  A    between atoms: _53  and  _55
REMARK                            x       y       z     vdW  Elec       q    Type
REMARK                         _______ _______ _______ _____ _____    ______ ____
ROOT
ATOM     10  C   UNL     1      39.211   2.617 103.966  0.00  0.00    +0.038 A 
ATOM     11  C   UNL     1      38.502   1.508 103.437  0.00  0.00    +0.047 A 
ATOM     12  C   UNL     1      38.812   0.149 103.853  0.00  0.00    +0.035 A 
ATOM     32  C   UNL     1      39.849  -0.045 104.811  0.00  0.00    +0.024 A 
ATOM     33  C   UNL     1      40.581   1.071 105.358  0.00  0.00    +0.007 A 
ATOM     34  C   UNL     1      40.281   2.414 104.951  0.00  0.00    -0.029 A 
ATOM     35  C   UNL     1      41.102   3.571 105.566  0.00  0.00    +0.045 C 
ENDROOT
BRANCH  10   9
ATOM      4  C   UNL     1      38.692   5.922 100.525  0.00  0.00    +0.077 A 
ATOM      5  C   UNL     1      39.163   5.024  99.509  0.00  0.00    +0.048 A 
ATOM      6  C   UNL     1      39.535   3.723  99.916  0.00  0.00    +0.116 A 
ATOM      7  N   UNL     1      39.439   3.357 101.241  0.00  0.00    -0.223 NA
ATOM      8  C   UNL     1      38.983   4.248 102.195  0.00  0.00    +0.220 A 
ATOM      9  N   UNL     1      38.872   3.900 103.532  0.00  0.00    -0.283 N 
ATOM     36  H   UNL     1      38.538   4.588 104.206  0.00  0.00    +0.155 HD
ATOM     37  N   UNL     1      38.623   5.497 101.833  0.00  0.00    -0.214 NA
BRANCH   4   3
ATOM      1  C   UNL     1      36.867   9.043  99.032  0.00  0.00    +0.020 A 
ATOM      2  C   UNL     1      37.250   7.668  99.256  0.00  0.00    +0.013 A 
ATOM      3  C   UNL     1      38.259   7.328 100.252  0.00  0.00    +0.019 A 
ATOM     38  C   UNL     1      38.864   8.412 101.011  0.00  0.00    +0.120 A 
ATOM     39  N   UNL     1      38.476   9.727 100.772  0.00  0.00    -0.263 NA
ATOM     40  C   UNL     1      37.508  10.066  99.815  0.00  0.00    +0.111 A 
ENDBRANCH   4   3
ENDBRANCH  10   9
BRANCH  12  13
ATOM     13  N   UNL     1      38.132  -1.016 103.344  0.00  0.00    -0.281 N 
ATOM     14  C   UNL     1      38.439  -1.756 102.214  0.00  0.00    +0.248 C 
ATOM     30  O   UNL     1      39.221  -1.400 101.346  0.00  0.00    -0.270 OA
ATOM     31  H   UNL     1      37.326  -1.334 103.883  0.00  0.00    +0.155 HD
BRANCH  14  15
ATOM     15  C   UNL     1      37.769  -3.077 102.012  0.00  0.00    +0.037 A 
ATOM     16  C   UNL     1      36.309  -3.199 102.027  0.00  0.00    +0.013 A 
ATOM     17  C   UNL     1      35.688  -4.487 101.846  0.00  0.00    +0.005 A 
ATOM     18  C   UNL     1      36.529  -5.665 101.647  0.00  0.00    -0.033 A 
ATOM     28  C   UNL     1      37.975  -5.515 101.631  0.00  0.00    +0.005 A 
ATOM     29  C   UNL     1      38.587  -4.254 101.809  0.00  0.00    +0.013 A 
BRANCH  18  19
ATOM     19  C   UNL     1      35.954  -7.083 101.467  0.00  0.00    +0.119 C 
BRANCH  19  20
ATOM     20  N   UNL     1      36.103  -7.715 100.122  0.00  0.00    -0.302 NA
ATOM     21  C   UNL     1      35.399  -6.909  99.027  0.00  0.00    +0.066 C 
ATOM     22  C   UNL     1      35.584  -7.573  97.624  0.00  0.00    -0.064 C 
ATOM     23  N   UNL     1      35.053  -9.007  97.667  0.00  0.00    +0.379 N 
ATOM     24  C   UNL     1      35.172  -9.615  96.334  0.00  0.00    -0.096 C 
ATOM     25  H   UNL     1      33.968  -8.958  97.921  0.00  0.00    -0.082 HD
ATOM     26  C   UNL     1      35.745  -9.815  98.756  0.00  0.00    -0.064 C 
ATOM     27  C   UNL     1      35.580  -9.131 100.141  0.00  0.00    +0.066 C 
ENDBRANCH  19  20
ENDBRANCH  18  19
ENDBRANCH  14  15
ENDBRANCH  12  13
TORSDOF 6
ENDMDL
MODEL 4
REMARK VINA RESULT:      -7.4     15.466     19.690
REMARK  Name = C:\Users\Docking\Desktop\test protocol\1iep_ligandH.pdb
REMARK  8 active torsions:
REMARK  status: ('A' for Active; 'I' for Inactive)
REMARK    1  A    between atoms: _5  and  _11
REMARK    2  A    between atoms: _19  and  _21
REMARK    3  A    between atoms: _22  and  _66
REMARK    4  A    between atoms: _27  and  _30
REMARK    5  A    between atoms: _32  and  _33
REMARK    6  A    between atoms: _38  and  _43
REMARK    7  A    between atoms: _43  and  _46
REMARK    8  A    between atoms: _53  and  _55
REMARK                            x       y       z     vdW  Elec       q    Type
REMARK                         _______ _______ _______ _____ _____    ______ ____
ROOT
ATOM     10  C   UNL     1      27.685  -6.986 110.148  0.00  0.00    +0.038 A 
ATOM     11  C   UNL     1      28.475  -6.082 110.904  0.00  0.00    +0.047 A 
ATOM     12  C   UNL     1      29.905  -6.291 111.072  0.00  0.00    +0.035 A 
ATOM     32  C   UNL     1      30.498  -7.430 110.454  0.00  0.00    +0.024 A 
ATOM     33  C   UNL     1      29.710  -8.360 109.684  0.00  0.00    +0.007 A 
ATOM     34  C   UNL     1      28.299  -8.161 109.517  0.00  0.00    -0.029 A 
ATOM     35  C   UNL     1      27.503  -9.194 108.686  0.00  0.00    +0.045 C 
ENDROOT
BRANCH  10   9
ATOM      4  C   UNL     1      23.199  -7.015 111.854  0.00  0.00    +0.077 A 
ATOM      5  C   UNL     1      23.612  -7.600 113.097  0.00  0.00    +0.048 A 
ATOM      6  C   UNL     1      24.987  -7.885 113.254  0.00  0.00    +0.116 A 
ATOM      7  N   UNL     1      25.874  -7.601 112.238  0.00  0.00    -0.223 NA
ATOM      8  C   UNL     1      25.442  -7.038 111.052  0.00  0.00    +0.220 A 
ATOM      9  N   UNL     1      26.317  -6.737 110.020  0.00  0.00    -0.283 N 
ATOM     36  H   UNL     1      25.958  -6.329 109.157  0.00  0.00    +0.155 HD
ATOM     37  N   UNL     1      24.134  -6.758 110.876  0.00  0.00    -0.214 NA
BRANCH   4   3
ATOM      1  C   UNL     1      19.834  -5.049 111.518  0.00  0.00    +0.020 A 
ATOM      2  C   UNL     1      21.209  -5.348 111.845  0.00  0.00    +0.013 A 
ATOM      3  C   UNL     1      21.781  -6.653 111.538  0.00  0.00    +0.019 A 
ATOM     38  C   UNL     1      20.928  -7.641 110.894  0.00  0.00    +0.120 A 
ATOM     39  N   UNL     1      19.607  -7.325 110.593  0.00  0.00    -0.263 NA
ATOM     40  C   UNL     1      19.045  -6.074 110.885  0.00  0.00    +0.111 A 
ENDBRANCH   4   3
ENDBRANCH  10   9
BRANCH  12  13
ATOM     13  N   UNL     1      30.756  -5.411 111.834  0.00  0.00    -0.281 N 
ATOM     14  C   UNL     1      31.032  -5.457 113.190  0.00  0.00    +0.248 C 
ATOM     30  O   UNL     1      30.416  -6.137 113.998  0.00  0.00    -0.270 OA
ATOM     31  H   UNL     1      31.211  -4.664 111.309  0.00  0.00    +0.155 HD
BRANCH  14  15
ATOM     15  C   UNL     1      32.142  -4.615 113.731  0.00  0.00    +0.037 A 
ATOM     16  C   UNL     1      32.872  -3.678 112.873  0.00  0.00    +0.013 A 
ATOM     17  C   UNL     1      33.950  -2.890 113.415  0.00  0.00    +0.005 A 
ATOM     18  C   UNL     1      34.305  -3.036 114.825  0.00  0.00    -0.033 A 
ATOM     28  C   UNL     1      33.561  -3.970 115.655  0.00  0.00    +0.005 A 
ATOM     29  C   UNL     1      32.504  -4.744 115.126  0.00  0.00    +0.013 A 
BRANCH  18  19
ATOM     19  C   UNL     1      35.455  -2.252 115.484  0.00  0.00    +0.119 C 
BRANCH  19  20
ATOM     20  N   UNL     1      36.775  -2.259 114.785  0.00  0.00    -0.302 NA
ATOM     21  C   UNL     1      37.926  -2.604 115.736  0.00  0.00    +0.066 C 
ATOM     22  C   UNL     1      39.297  -2.629 114.984  0.00  0.00    -0.064 C 
ATOM     23  N   UNL     1      39.533  -1.274 114.315  0.00  0.00    +0.379 N 
ATOM     24  C   UNL     1      40.848  -1.275 113.657  0.00  0.00    -0.096 C 
ATOM     25  H   UNL     1      39.558  -0.500 115.118  0.00  0.00    -0.082 HD
ATOM     26  C   UNL     1      38.393  -0.922 113.371  0.00  0.00    -0.064 C 
ATOM     27  C   UNL     1      37.032  -0.929 114.121  0.00  0.00    +0.066 C 
ENDBRANCH  19  20
ENDBRANCH  18  19
ENDBRANCH  14  15
ENDBRANCH  12  13
TORSDOF 6
ENDMDL
MODEL 5
REMARK VINA RESULT:      -7.3      3.210     12.569
REMARK  Name = C:\Users\Docking\Desktop\test protocol\1iep_ligandH.pdb
REMARK  8 active torsions:
REMARK  status: ('A' for Active; 'I' for Inactive)
REMARK    1  A    between atoms: _5  and  _11
REMARK    2  A    between atoms: _19  and  _21
REMARK    3  A    between atoms: _22  and  _66
REMARK    4  A    between atoms: _27  and  _30
REMARK    5  A    between atoms: _32  and  _33
REMARK    6  A    between atoms: _38  and  _43
REMARK    7  A    between atoms: _43  and  _46
REMARK    8  A    between atoms: _53  and  _55
REMARK                            x       y       z     vdW  Elec       q    Type
REMARK                         _______ _______ _______ _____ _____    ______ ____
ROOT
ATOM     10  C   UNL     1      39.129   2.386 103.947  0.00  0.00    +0.038 A 
ATOM     11  C   UNL     1      38.426   1.342 103.293  0.00  0.00    +0.047 A 
ATOM     12  C   UNL     1      38.648  -0.051 103.647  0.00  0.00    +0.035 A 
ATOM     32  C   UNL     1      39.593  -0.345 104.673  0.00  0.00    +0.024 A 
ATOM     33  C   UNL     1      40.317   0.703 105.347  0.00  0.00    +0.007 A 
ATOM     34  C   UNL     1      40.104   2.080 105.001  0.00  0.00    -0.029 A 
ATOM     35  C   UNL     1      40.913   3.162 105.752  0.00  0.00    +0.045 C 
ENDROOT
BRANCH  10   9
ATOM      4  C   UNL     1      38.754   5.841 100.637  0.00  0.00    +0.077 A 
ATOM      5  C   UNL     1      39.119   4.947  99.576  0.00  0.00    +0.048 A 
ATOM      6  C   UNL     1      39.402   3.607  99.926  0.00  0.00    +0.116 A 
ATOM      7  N   UNL     1      39.323   3.204 101.241  0.00  0.00    -0.223 NA
ATOM      8  C   UNL     1      38.970   4.093 102.240  0.00  0.00    +0.220 A 
ATOM      9  N   UNL     1      38.876   3.707 103.568  0.00  0.00    -0.283 N 
ATOM     36  H   UNL     1      38.620   4.394 104.276  0.00  0.00    +0.155 HD
ATOM     37  N   UNL     1      38.696   5.377 101.932  0.00  0.00    -0.214 NA
BRANCH   4   3
ATOM      1  C   UNL     1      37.189   9.150  99.255  0.00  0.00    +0.020 A 
ATOM      2  C   UNL     1      37.474   7.743  99.418  0.00  0.00    +0.013 A 
ATOM      3  C   UNL     1      38.422   7.286 100.426  0.00  0.00    +0.019 A 
ATOM     38  C   UNL     1      39.069   8.287 101.261  0.00  0.00    +0.120 A 
ATOM     39  N   UNL     1      38.776   9.635 101.081  0.00  0.00    -0.263 NA
ATOM     40  C   UNL     1      37.866  10.086 100.113  0.00  0.00    +0.111 A 
ENDBRANCH   4   3
ENDBRANCH  10   9
BRANCH  12  13
ATOM     13  N   UNL     1      37.970  -1.154 103.012  0.00  0.00    -0.281 N 
ATOM     14  C   UNL     1      38.429  -1.957 101.981  0.00  0.00    +0.248 C 
ATOM     30  O   UNL     1      39.414  -1.711 101.300  0.00  0.00    -0.270 OA
ATOM     31  H   UNL     1      37.038  -1.369 103.367  0.00  0.00    +0.155 HD
BRANCH  14  15
ATOM     15  C   UNL     1      37.678  -3.206 101.649  0.00  0.00    +0.037 A 
ATOM     16  C   UNL     1      38.275  -4.252 100.815  0.00  0.00    +0.013 A 
ATOM     17  C   UNL     1      37.522  -5.439 100.496  0.00  0.00    +0.005 A 
ATOM     18  C   UNL     1      36.164  -5.587 101.013  0.00  0.00    -0.033 A 
ATOM     28  C   UNL     1      35.599  -4.536 101.843  0.00  0.00    +0.005 A 
ATOM     29  C   UNL     1      36.333  -3.370 102.157  0.00  0.00    +0.013 A 
BRANCH  18  19
ATOM     19  C   UNL     1      35.280  -6.810 100.706  0.00  0.00    +0.119 C 
BRANCH  19  20
ATOM     20  N   UNL     1      35.064  -7.792 101.810  0.00  0.00    -0.302 NA
ATOM     21  C   UNL     1      35.275  -9.236 101.344  0.00  0.00    +0.066 C 
ATOM     22  C   UNL     1      35.066 -10.248 102.517  0.00  0.00    -0.064 C 
ATOM     23  N   UNL     1      33.664 -10.067 103.101  0.00  0.00    +0.379 N 
ATOM     24  C   UNL     1      33.445 -11.057 104.166  0.00  0.00    -0.096 C 
ATOM     25  H   UNL     1      32.930 -10.275 102.288  0.00  0.00    -0.082 HD
ATOM     26  C   UNL     1      33.446  -8.634 103.564  0.00  0.00    -0.064 C 
ATOM     27  C   UNL     1      33.684  -7.634 102.398  0.00  0.00    +0.066 C 
ENDBRANCH  19  20
ENDBRANCH  18  19
ENDBRANCH  14  15
ENDBRANCH  12  13
TORSDOF 6
ENDMDL
