MODEL 1
REMARK VINA RESULT:      -7.8      0.000      0.000
REMARK  Name = C:\Users\Docking\Desktop\test protocol\1iep_ligandH.pdb
REMARK  8 active torsions:
REMARK  status: ('A' for Active; 'I' for Inactive)
REMARK    1  A    between atoms: _5  and  _11
REMARK    2  A    between atoms: _19  and  _21
REMARK    3  A    between atoms: _22  and  _66
REMARK    4  A    between atoms: _27  and  _30
REMARK    5  A    between atoms: _32  and  _33
REMARK    6  A    between atoms: _38  and  _43
REMARK    7  A    between atoms: _43  and  _46
REMARK    8  A    between atoms: _53  and  _55
REMARK                            x       y       z     vdW  Elec       q    Type
REMARK                         _______ _______ _______ _____ _____    ______ ____
ROOT
ATOM     10  C   UNL     1      -0.749   7.686  42.847  0.00  0.00    +0.038 A 
ATOM     11  C   UNL     1       0.277   8.434  43.479  0.00  0.00    +0.047 A 
ATOM     12  C   UNL     1       1.112   7.843  44.514  0.00  0.00    +0.035 A 
ATOM     32  C   UNL     1       0.876   6.486  44.878  0.00  0.00    +0.024 A 
ATOM     33  C   UNL     1      -0.162   5.710  44.247  0.00  0.00    +0.007 A 
ATOM     34  C   UNL     1      -0.991   6.289  43.228  0.00  0.00    -0.029 A 
ATOM     35  C   UNL     1      -2.094   5.412  42.590  0.00  0.00    +0.045 C 
ENDROOT
BRANCH  10   9
ATOM      4  C   UNL     1      -1.656   8.810  38.270  0.00  0.00    +0.077 A 
ATOM      5  C   UNL     1      -0.478   8.133  37.809  0.00  0.00    +0.048 A 
ATOM      6  C   UNL     1       0.338   7.514  38.782  0.00  0.00    +0.116 A 
ATOM      7  N   UNL     1      -0.008   7.574  40.115  0.00  0.00    -0.223 NA
ATOM      8  C   UNL     1      -1.149   8.237  40.526  0.00  0.00    +0.220 A 
ATOM      9  N   UNL     1      -1.520   8.303  41.860  0.00  0.00    -0.283 N 
ATOM     36  H   UNL     1      -2.366   8.808  42.124  0.00  0.00    +0.155 HD
ATOM     37  N   UNL     1      -1.944   8.837  39.616  0.00  0.00    -0.214 NA
BRANCH   4   3
ATOM      1  C   UNL     1      -4.587   9.536  35.784  0.00  0.00    +0.020 A 
ATOM      2  C   UNL     1      -3.682   8.813  36.648  0.00  0.00    +0.013 A 
ATOM      3  C   UNL     1      -2.620   9.509  37.363  0.00  0.00    +0.019 A 
ATOM     38  C   UNL     1      -2.501  10.948  37.182  0.00  0.00    +0.120 A 
ATOM     39  N   UNL     1      -3.386  11.617  36.342  0.00  0.00    -0.263 NA
ATOM     40  C   UNL     1      -4.411  10.957  35.648  0.00  0.00    +0.111 A 
ENDBRANCH   4   3
ENDBRANCH  10   9
BRANCH  12  13
ATOM     13  N   UNL     1       2.163   8.557  45.196  0.00  0.00    -0.281 N 
ATOM     14  C   UNL     1       2.054   9.370  46.312  0.00  0.00    +0.248 C 
ATOM     30  O   UNL     1       0.997   9.781  46.768  0.00  0.00    -0.270 OA
ATOM     31  H   UNL     1       3.100   8.449  44.810  0.00  0.00    +0.155 HD
BRANCH  14  15
ATOM     15  C   UNL     1       3.300   9.802  47.015  0.00  0.00    +0.037 A 
ATOM     16  C   UNL     1       4.171  10.837  46.451  0.00  0.00    +0.013 A 
ATOM     17  C   UNL     1       5.376  11.223  47.141  0.00  0.00    +0.005 A 
ATOM     18  C   UNL     1       5.717  10.574  48.405  0.00  0.00    -0.033 A 
ATOM     28  C   UNL     1       4.833   9.554  48.944  0.00  0.00    +0.005 A 
ATOM     29  C   UNL     1       3.651   9.173  48.270  0.00  0.00    +0.013 A 
BRANCH  18  19
ATOM     19  C   UNL     1       6.994  10.908  49.199  0.00  0.00    +0.119 C 
BRANCH  19  20
ATOM     20  N   UNL     1       7.957   9.793  49.445  0.00  0.00    -0.302 NA
ATOM     21  C   UNL     1       9.004  10.161  50.500  0.00  0.00    +0.066 C 
ATOM     22  C   UNL     1       9.990   8.976  50.761  0.00  0.00    -0.064 C 
ATOM     23  N   UNL     1      10.663   8.577  49.447  0.00  0.00    +0.379 N 
ATOM     24  C   UNL     1      11.633   7.502  49.699  0.00  0.00    -0.096 C 
ATOM     25  H   UNL     1      11.228   9.463  49.075  0.00  0.00    -0.082 HD
ATOM     26  C   UNL     1       9.629   8.212  48.391  0.00  0.00    -0.064 C 
ATOM     27  C   UNL     1       8.637   9.386  48.160  0.00  0.00    +0.066 C 
ENDBRANCH  19  20
ENDBRANCH  18  19
ENDBRANCH  14  15
ENDBRANCH  12  13
TORSDOF 6
ENDMDL
MODEL 2
REMARK VINA RESULT:      -7.8      9.898     17.136
REMARK  Name = C:\Users\Docking\Desktop\test protocol\1iep_ligandH.pdb
REMARK  8 active torsions:
REMARK  status: ('A' for Active; 'I' for Inactive)
REMARK    1  A    between atoms: _5  and  _11
REMARK    2  A    between atoms: _19  and  _21
REMARK    3  A    between atoms: _22  and  _66
REMARK    4  A    between atoms: _27  and  _30
REMARK    5  A    between atoms: _32  and  _33
REMARK    6  A    between atoms: _38  and  _43
REMARK    7  A    between atoms: _43  and  _46
REMARK    8  A    between atoms: _53  and  _55
REMARK                            x       y       z     vdW  Elec       q    Type
REMARK                         _______ _______ _______ _____ _____    ______ ____
ROOT
ATOM     10  C   UNL     1      14.738   6.737  49.514  0.00  0.00    +0.038 A 
ATOM     11  C   UNL     1      14.973   5.385  49.157  0.00  0.00    +0.047 A 
ATOM     12  C   UNL     1      16.214   4.716  49.514  0.00  0.00    +0.035 A 
ATOM     32  C   UNL     1      17.195   5.455  50.239  0.00  0.00    +0.024 A 
ATOM     33  C   UNL     1      16.973   6.830  50.610  0.00  0.00    +0.007 A 
ATOM     34  C   UNL     1      15.752   7.496  50.258  0.00  0.00    -0.029 A 
ATOM     35  C   UNL     1      15.571   8.973  50.676  0.00  0.00    +0.045 C 
ENDROOT
BRANCH  10   9
ATOM      4  C   UNL     1      10.039   7.498  50.124  0.00  0.00    +0.077 A 
ATOM      5  C   UNL     1       9.984   6.620  51.258  0.00  0.00    +0.048 A 
ATOM      6  C   UNL     1      11.185   5.987  51.647  0.00  0.00    +0.116 A 
ATOM      7  N   UNL     1      12.349   6.222  50.948  0.00  0.00    -0.223 NA
ATOM      8  C   UNL     1      12.368   7.072  49.858  0.00  0.00    +0.220 A 
ATOM      9  N   UNL     1      13.528   7.329  49.145  0.00  0.00    -0.283 N 
ATOM     36  H   UNL     1      13.499   7.957  48.343  0.00  0.00    +0.155 HD
ATOM     37  N   UNL     1      11.233   7.688  49.466  0.00  0.00    -0.214 NA
BRANCH   4   3
ATOM      1  C   UNL     1       6.370   8.627  49.371  0.00  0.00    +0.020 A 
ATOM      2  C   UNL     1       7.479   7.874  49.910  0.00  0.00    +0.013 A 
ATOM      3  C   UNL     1       8.854   8.242  49.593  0.00  0.00    +0.019 A 
ATOM     38  C   UNL     1       9.073   9.387  48.722  0.00  0.00    +0.120 A 
ATOM     39  N   UNL     1       7.985  10.093  48.217  0.00  0.00    -0.263 NA
ATOM     40  C   UNL     1       6.658   9.746  48.514  0.00  0.00    +0.111 A 
ENDBRANCH   4   3
ENDBRANCH  10   9
BRANCH  12  13
ATOM     13  N   UNL     1      16.512   3.348  49.171  0.00  0.00    -0.281 N 
ATOM     14  C   UNL     1      17.160   2.398  49.944  0.00  0.00    +0.248 C 
ATOM     30  O   UNL     1      17.775   2.644  50.971  0.00  0.00    -0.270 OA
ATOM     31  H   UNL     1      16.208   3.042  48.247  0.00  0.00    +0.155 HD
BRANCH  14  15
ATOM     15  C   UNL     1      17.133   0.969  49.505  0.00  0.00    +0.037 A 
ATOM     16  C   UNL     1      15.999   0.427  48.752  0.00  0.00    +0.013 A 
ATOM     17  C   UNL     1      15.991  -0.959  48.356  0.00  0.00    +0.005 A 
ATOM     18  C   UNL     1      17.123  -1.812  48.710  0.00  0.00    -0.033 A 
ATOM     28  C   UNL     1      18.238  -1.246  49.452  0.00  0.00    +0.005 A 
ATOM     29  C   UNL     1      18.249   0.111  49.843  0.00  0.00    +0.013 A 
BRANCH  18  19
ATOM     19  C   UNL     1      17.190  -3.307  48.346  0.00  0.00    +0.119 C 
BRANCH  19  20
ATOM     20  N   UNL     1      18.355  -4.085  48.863  0.00  0.00    -0.302 NA
ATOM     21  C   UNL     1      18.901  -5.064  47.819  0.00  0.00    +0.066 C 
ATOM     22  C   UNL     1      20.133  -5.853  48.369  0.00  0.00    -0.064 C 
ATOM     23  N   UNL     1      19.733  -6.592  49.647  0.00  0.00    +0.379 N 
ATOM     24  C   UNL     1      20.874  -7.382  50.134  0.00  0.00    -0.096 C 
ATOM     25  H   UNL     1      18.917  -7.304  49.384  0.00  0.00    -0.082 HD
ATOM     26  C   UNL     1      19.187  -5.627  50.689  0.00  0.00    -0.064 C 
ATOM     27  C   UNL     1      17.981  -4.827  50.123  0.00  0.00    +0.066 C 
ENDBRANCH  19  20
ENDBRANCH  18  19
ENDBRANCH  14  15
ENDBRANCH  12  13
TORSDOF 6
ENDMDL
MODEL 3
REMARK VINA RESULT:      -7.7      1.470      1.922
REMARK  Name = C:\Users\Docking\Desktop\test protocol\1iep_ligandH.pdb
REMARK  8 active torsions:
REMARK  status: ('A' for Active; 'I' for Inactive)
REMARK    1  A    between atoms: _5  and  _11
REMARK    2  A    between atoms: _19  and  _21
REMARK    3  A    between atoms: _22  and  _66
REMARK    4  A    between atoms: _27  and  _30
REMARK    5  A    between atoms: _32  and  _33
REMARK    6  A    between atoms: _38  and  _43
REMARK    7  A    between atoms: _43  and  _46
REMARK    8  A    between atoms: _53  and  _55
REMARK                            x       y       z     vdW  Elec       q    Type
REMARK                         _______ _______ _______ _____ _____    ______ ____
ROOT
ATOM     10  C   UNL     1      -0.772   6.424  44.486  0.00  0.00    +0.038 A 
ATOM     11  C   UNL     1       0.274   7.243  44.982  0.00  0.00    +0.047 A 
ATOM     12  C   UNL     1       1.028   6.865  46.167  0.00  0.00    +0.035 A 
ATOM     32  C   UNL     1       0.693   5.643  46.820  0.00  0.00    +0.024 A 
ATOM     33  C   UNL     1      -0.368   4.799  46.330  0.00  0.00    +0.007 A 
ATOM     34  C   UNL     1      -1.118   5.168  45.163  0.00  0.00    -0.029 A 
ATOM     35  C   UNL     1      -2.249   4.227  44.686  0.00  0.00    +0.045 C 
ENDROOT
BRANCH  10   9
ATOM      4  C   UNL     1      -0.904   7.939  39.933  0.00  0.00    +0.077 A 
ATOM      5  C   UNL     1       0.526   7.936  39.829  0.00  0.00    +0.048 A 
ATOM      6  C   UNL     1       1.260   7.545  40.971  0.00  0.00    +0.116 A 
ATOM      7  N   UNL     1       0.601   7.185  42.127  0.00  0.00    -0.223 NA
ATOM      8  C   UNL     1      -0.780   7.201  42.195  0.00  0.00    +0.220 A 
ATOM      9  N   UNL     1      -1.464   6.835  43.344  0.00  0.00    -0.283 N 
ATOM     36  H   UNL     1      -2.483   6.867  43.356  0.00  0.00    +0.155 HD
ATOM     37  N   UNL     1      -1.503   7.572  41.118  0.00  0.00    -0.214 NA
BRANCH   4   3
ATOM      1  C   UNL     1      -3.901   9.415  37.898  0.00  0.00    +0.020 A 
ATOM      2  C   UNL     1      -3.055   9.067  39.016  0.00  0.00    +0.013 A 
ATOM      3  C   UNL     1      -1.818   8.324  38.811  0.00  0.00    +0.019 A 
ATOM     38  C   UNL     1      -1.462   7.947  37.452  0.00  0.00    +0.120 A 
ATOM     39  N   UNL     1      -2.298   8.294  36.395  0.00  0.00    -0.263 NA
ATOM     40  C   UNL     1      -3.492   9.007  36.580  0.00  0.00    +0.111 A 
ENDBRANCH   4   3
ENDBRANCH  10   9
BRANCH  12  13
ATOM     13  N   UNL     1       2.095   7.660  46.722  0.00  0.00    -0.281 N 
ATOM     14  C   UNL     1       2.099   8.369  47.912  0.00  0.00    +0.248 C 
ATOM     30  O   UNL     1       1.103   8.601  48.581  0.00  0.00    -0.270 OA
ATOM     31  H   UNL     1       2.952   7.707  46.170  0.00  0.00    +0.155 HD
BRANCH  14  15
ATOM     15  C   UNL     1       3.393   8.911  48.426  0.00  0.00    +0.037 A 
ATOM     16  C   UNL     1       3.962  10.152  47.894  0.00  0.00    +0.013 A 
ATOM     17  C   UNL     1       5.221  10.644  48.396  0.00  0.00    +0.005 A 
ATOM     18  C   UNL     1       5.919   9.894  49.437  0.00  0.00    -0.033 A 
ATOM     28  C   UNL     1       5.330   8.668  49.950  0.00  0.00    +0.005 A 
ATOM     29  C   UNL     1       4.096   8.183  49.460  0.00  0.00    +0.013 A 
BRANCH  18  19
ATOM     19  C   UNL     1       7.277  10.332  50.016  0.00  0.00    +0.119 C 
BRANCH  19  20
ATOM     20  N   UNL     1       8.359   9.304  50.077  0.00  0.00    -0.302 NA
ATOM     21  C   UNL     1       9.525   9.749  50.965  0.00  0.00    +0.066 C 
ATOM     22  C   UNL     1      10.637   8.652  51.035  0.00  0.00    -0.064 C 
ATOM     23  N   UNL     1      11.125   8.334  49.620  0.00  0.00    +0.379 N 
ATOM     24  C   UNL     1      12.211   7.345  49.687  0.00  0.00    -0.096 C 
ATOM     25  H   UNL     1      11.546   9.271  49.189  0.00  0.00    -0.082 HD
ATOM     26  C   UNL     1       9.971   7.894  48.730  0.00  0.00    -0.064 C 
ATOM     27  C   UNL     1       8.858   8.978  48.691  0.00  0.00    +0.066 C 
ENDBRANCH  19  20
ENDBRANCH  18  19
ENDBRANCH  14  15
ENDBRANCH  12  13
TORSDOF 6
ENDMDL
MODEL 4
REMARK VINA RESULT:      -7.6     10.312     17.801
REMARK  Name = C:\Users\Docking\Desktop\test protocol\1iep_ligandH.pdb
REMARK  8 active torsions:
REMARK  status: ('A' for Active; 'I' for Inactive)
REMARK    1  A    between atoms: _5  and  _11
REMARK    2  A    between atoms: _19  and  _21
REMARK    3  A    between atoms: _22  and  _66
REMARK    4  A    between atoms: _27  and  _30
REMARK    5  A    between atoms: _32  and  _33
REMARK    6  A    between atoms: _38  and  _43
REMARK    7  A    between atoms: _43  and  _46
REMARK    8  A    between atoms: _53  and  _55
REMARK                            x       y       z     vdW  Elec       q    Type
REMARK                         _______ _______ _______ _____ _____    ______ ____
ROOT
ATOM     10  C   UNL     1      15.499   5.835  49.655  0.00  0.00    +0.038 A 
ATOM     11  C   UNL     1      15.655   4.426  49.622  0.00  0.00    +0.047 A 
ATOM     12  C   UNL     1      16.910   3.799  50.008  0.00  0.00    +0.035 A 
ATOM     32  C   UNL     1      17.984   4.638  50.424  0.00  0.00    +0.024 A 
ATOM     33  C   UNL     1      17.843   6.072  50.462  0.00  0.00    +0.007 A 
ATOM     34  C   UNL     1      16.609   6.696  50.080  0.00  0.00    -0.029 A 
ATOM     35  C   UNL     1      16.516   8.239  50.134  0.00  0.00    +0.045 C 
ENDROOT
BRANCH  10   9
ATOM      4  C   UNL     1      10.937   7.031  50.548  0.00  0.00    +0.077 A 
ATOM      5  C   UNL     1      10.994   6.493  51.877  0.00  0.00    +0.048 A 
ATOM      6  C   UNL     1      12.214   5.911  52.290  0.00  0.00    +0.116 A 
ATOM      7  N   UNL     1      13.290   5.876  51.429  0.00  0.00    -0.223 NA
ATOM      8  C   UNL     1      13.200   6.402  50.153  0.00  0.00    +0.220 A 
ATOM      9  N   UNL     1      14.272   6.384  49.274  0.00  0.00    -0.283 N 
ATOM     36  H   UNL     1      14.163   6.776  48.339  0.00  0.00    +0.155 HD
ATOM     37  N   UNL     1      12.046   6.962  49.735  0.00  0.00    -0.214 NA
BRANCH   4   3
ATOM      1  C   UNL     1       7.289   8.351  50.050  0.00  0.00    +0.020 A 
ATOM      2  C   UNL     1       8.434   7.709  50.654  0.00  0.00    +0.013 A 
ATOM      3  C   UNL     1       9.720   7.681  49.969  0.00  0.00    +0.019 A 
ATOM     38  C   UNL     1       9.814   8.318  48.663  0.00  0.00    +0.120 A 
ATOM     39  N   UNL     1       8.695   8.927  48.106  0.00  0.00    -0.263 NA
ATOM     40  C   UNL     1       7.451   8.959  48.756  0.00  0.00    +0.111 A 
ENDBRANCH   4   3
ENDBRANCH  10   9
BRANCH  12  13
ATOM     13  N   UNL     1      17.130   2.374  49.987  0.00  0.00    -0.281 N 
ATOM     14  C   UNL     1      16.833   1.481  48.971  0.00  0.00    +0.248 C 
ATOM     30  O   UNL     1      16.134   1.742  48.003  0.00  0.00    -0.270 OA
ATOM     31  H   UNL     1      17.556   1.975  50.824  0.00  0.00    +0.155 HD
BRANCH  14  15
ATOM     15  C   UNL     1      17.381   0.092  49.047  0.00  0.00    +0.037 A 
ATOM     16  C   UNL     1      18.611  -0.200  49.787  0.00  0.00    +0.013 A 
ATOM     17  C   UNL     1      19.127  -1.545  49.831  0.00  0.00    +0.005 A 
ATOM     18  C   UNL     1      18.410  -2.610  49.132  0.00  0.00    -0.033 A 
ATOM     28  C   UNL     1      17.189  -2.293  48.410  0.00  0.00    +0.005 A 
ATOM     29  C   UNL     1      16.681  -0.975  48.364  0.00  0.00    +0.013 A 
BRANCH  18  19
ATOM     19  C   UNL     1      18.899  -4.070  49.107  0.00  0.00    +0.119 C 
BRANCH  19  20
ATOM     20  N   UNL     1      18.002  -5.102  49.708  0.00  0.00    -0.302 NA
ATOM     21  C   UNL     1      17.687  -4.804  51.177  0.00  0.00    +0.066 C 
ATOM     22  C   UNL     1      16.730  -5.881  51.783  0.00  0.00    -0.064 C 
ATOM     23  N   UNL     1      17.364  -7.265  51.634  0.00  0.00    +0.379 N 
ATOM     24  C   UNL     1      16.492  -8.274  52.255  0.00  0.00    -0.096 C 
ATOM     25  H   UNL     1      18.327  -7.258  52.196  0.00  0.00    -0.082 HD
ATOM     26  C   UNL     1      17.682  -7.568  50.177  0.00  0.00    -0.064 C 
ATOM     27  C   UNL     1      18.611  -6.476  49.576  0.00  0.00    +0.066 C 
ENDBRANCH  19  20
ENDBRANCH  18  19
ENDBRANCH  14  15
ENDBRANCH  12  13
TORSDOF 6
ENDMDL
MODEL 5
REMARK VINA RESULT:      -7.5      7.000     12.849
REMARK  Name = C:\Users\Docking\Desktop\test protocol\1iep_ligandH.pdb
REMARK  8 active torsions:
REMARK  status: ('A' for Active; 'I' for Inactive)
REMARK    1  A    between atoms: _5  and  _11
REMARK    2  A    between atoms: _19  and  _21
REMARK    3  A    between atoms: _22  and  _66
REMARK    4  A    between atoms: _27  and  _30
REMARK    5  A    between atoms: _32  and  _33
REMARK    6  A    between atoms: _38  and  _43
REMARK    7  A    between atoms: _43  and  _46
REMARK    8  A    between atoms: _53  and  _55
REMARK                            x       y       z     vdW  Elec       q    Type
REMARK                         _______ _______ _______ _____ _____    ______ ____
ROOT
ATOM     10  C   UNL     1      -3.147   1.306  46.790  0.00  0.00    +0.038 A 
ATOM     11  C   UNL     1      -2.770   2.205  45.760  0.00  0.00    +0.047 A 
ATOM     12  C   UNL     1      -2.787   3.644  45.973  0.00  0.00    +0.035 A 
ATOM     32  C   UNL     1      -3.191   4.133  47.250  0.00  0.00    +0.024 A 
ATOM     33  C   UNL     1      -3.578   3.233  48.308  0.00  0.00    +0.007 A 
ATOM     34  C   UNL     1      -3.565   1.813  48.103  0.00  0.00    -0.029 A 
ATOM     35  C   UNL     1      -3.996   0.896  49.271  0.00  0.00    +0.045 C 
ENDROOT
BRANCH  10   9
ATOM      4  C   UNL     1      -5.174  -2.765  45.257  0.00  0.00    +0.077 A 
ATOM      5  C   UNL     1      -6.418  -2.108  44.973  0.00  0.00    +0.048 A 
ATOM      6  C   UNL     1      -6.497  -0.724  45.243  0.00  0.00    +0.116 A 
ATOM      7  N   UNL     1      -5.407  -0.056  45.758  0.00  0.00    -0.223 NA
ATOM      8  C   UNL     1      -4.223  -0.719  46.021  0.00  0.00    +0.220 A 
ATOM      9  N   UNL     1      -3.111  -0.066  46.531  0.00  0.00    -0.283 N 
ATOM     36  H   UNL     1      -2.259  -0.593  46.718  0.00  0.00    +0.155 HD
ATOM     37  N   UNL     1      -4.123  -2.042  45.773  0.00  0.00    -0.214 NA
BRANCH   4   3
ATOM      1  C   UNL     1      -4.235  -6.172  43.579  0.00  0.00    +0.020 A 
ATOM      2  C   UNL     1      -4.451  -4.754  43.753  0.00  0.00    +0.013 A 
ATOM      3  C   UNL     1      -4.934  -4.224  45.022  0.00  0.00    +0.019 A 
ATOM     38  C   UNL     1      -5.192  -5.164  46.103  0.00  0.00    +0.120 A 
ATOM     39  N   UNL     1      -4.976  -6.524  45.906  0.00  0.00    -0.263 NA
ATOM     40  C   UNL     1      -4.512  -7.045  44.689  0.00  0.00    +0.111 A 
ENDBRANCH   4   3
ENDBRANCH  10   9
BRANCH  12  13
ATOM     13  N   UNL     1      -2.423   4.605  44.962  0.00  0.00    -0.281 N 
ATOM     14  C   UNL     1      -1.154   5.040  44.618  0.00  0.00    +0.248 C 
ATOM     30  O   UNL     1      -0.148   4.826  45.277  0.00  0.00    -0.270 OA
ATOM     31  H   UNL     1      -3.196   5.015  44.436  0.00  0.00    +0.155 HD
BRANCH  14  15
ATOM     15  C   UNL     1      -0.979   5.842  43.369  0.00  0.00    +0.037 A 
ATOM     16  C   UNL     1      -2.056   5.955  42.382  0.00  0.00    +0.013 A 
ATOM     17  C   UNL     1      -1.855   6.721  41.177  0.00  0.00    +0.005 A 
ATOM     18  C   UNL     1      -0.571   7.381  40.954  0.00  0.00    -0.033 A 
ATOM     28  C   UNL     1       0.478   7.257  41.952  0.00  0.00    +0.005 A 
ATOM     29  C   UNL     1       0.285   6.506  43.134  0.00  0.00    +0.013 A 
BRANCH  18  19
ATOM     19  C   UNL     1      -0.262   8.201  39.687  0.00  0.00    +0.119 C 
BRANCH  19  20
ATOM     20  N   UNL     1      -1.422   8.781  38.947  0.00  0.00    -0.302 NA
ATOM     21  C   UNL     1      -1.520   8.240  37.518  0.00  0.00    +0.066 C 
ATOM     22  C   UNL     1      -2.753   8.839  36.766  0.00  0.00    -0.064 C 
ATOM     23  N   UNL     1      -2.650  10.366  36.761  0.00  0.00    +0.379 N 
ATOM     24  C   UNL     1      -3.777  10.930  36.005  0.00  0.00    -0.096 C 
ATOM     25  H   UNL     1      -1.712  10.640  36.226  0.00  0.00    -0.082 HD
ATOM     26  C   UNL     1      -2.549  10.912  38.178  0.00  0.00    -0.064 C 
ATOM     27  C   UNL     1      -1.339  10.288  38.927  0.00  0.00    +0.066 C 
ENDBRANCH  19  20
ENDBRANCH  18  19
ENDBRANCH  14  15
ENDBRANCH  12  13
TORSDOF 6
ENDMDL
