MODEL 1
REMARK VINA RESULT:      -8.4      0.000      0.000
REMARK  Name = C:\Users\Docking\Desktop\test protocol\1iep_ligandH.pdb
REMARK  8 active torsions:
REMARK  status: ('A' for Active; 'I' for Inactive)
REMARK    1  A    between atoms: _5  and  _11
REMARK    2  A    between atoms: _19  and  _21
REMARK    3  A    between atoms: _22  and  _66
REMARK    4  A    between atoms: _27  and  _30
REMARK    5  A    between atoms: _32  and  _33
REMARK    6  A    between atoms: _38  and  _43
REMARK    7  A    between atoms: _43  and  _46
REMARK    8  A    between atoms: _53  and  _55
REMARK                            x       y       z     vdW  Elec       q    Type
REMARK                         _______ _______ _______ _____ _____    ______ ____
ROOT
ATOM     10  C   UNL     1      19.949  24.967   3.646  0.00  0.00    +0.038 A 
ATOM     11  C   UNL     1      18.692  24.751   4.268  0.00  0.00    +0.047 A 
ATOM     12  C   UNL     1      18.029  23.459   4.196  0.00  0.00    +0.035 A 
ATOM     32  C   UNL     1      18.676  22.406   3.485  0.00  0.00    +0.024 A 
ATOM     33  C   UNL     1      19.953  22.608   2.847  0.00  0.00    +0.007 A 
ATOM     34  C   UNL     1      20.610  23.881   2.912  0.00  0.00    -0.029 A 
ATOM     35  C   UNL     1      21.975  24.042   2.203  0.00  0.00    +0.045 C 
ENDROOT
BRANCH  10   9
ATOM      4  C   UNL     1      20.988  29.307   1.880  0.00  0.00    +0.077 A 
ATOM      5  C   UNL     1      20.319  29.029   0.642  0.00  0.00    +0.048 A 
ATOM      6  C   UNL     1      19.726  27.754   0.497  0.00  0.00    +0.116 A 
ATOM      7  N   UNL     1      19.803  26.835   1.521  0.00  0.00    -0.223 NA
ATOM      8  C   UNL     1      20.458  27.134   2.701  0.00  0.00    +0.220 A 
ATOM      9  N   UNL     1      20.540  26.228   3.747  0.00  0.00    -0.283 N 
ATOM     36  H   UNL     1      21.038  26.485   4.598  0.00  0.00    +0.155 HD
ATOM     37  N   UNL     1      21.033  28.344   2.864  0.00  0.00    -0.214 NA
BRANCH   4   3
ATOM      1  C   UNL     1      22.245  32.515   3.731  0.00  0.00    +0.020 A 
ATOM      2  C   UNL     1      21.577  31.258   3.488  0.00  0.00    +0.013 A 
ATOM      3  C   UNL     1      21.660  30.609   2.185  0.00  0.00    +0.019 A 
ATOM     38  C   UNL     1      22.434  31.265   1.142  0.00  0.00    +0.120 A 
ATOM     39  N   UNL     1      23.066  32.476   1.405  0.00  0.00    -0.263 NA
ATOM     40  C   UNL     1      22.992  33.110   2.654  0.00  0.00    +0.111 A 
ENDBRANCH   4   3
ENDBRANCH  10   9
BRANCH  12  13
ATOM     13  N   UNL     1      16.749  23.183   4.800  0.00  0.00    -0.281 N 
ATOM     14  C   UNL     1      16.470  22.321   5.848  0.00  0.00    +0.248 C 
ATOM     30  O   UNL     1      17.252  21.491   6.287  0.00  0.00    -0.270 OA
ATOM     31  H   UNL     1      15.952  23.685   4.408  0.00  0.00    +0.155 HD
BRANCH  14  15
ATOM     15  C   UNL     1      15.122  22.380   6.492  0.00  0.00    +0.037 A 
ATOM     16  C   UNL     1      14.920  21.936   7.874  0.00  0.00    +0.013 A 
ATOM     17  C   UNL     1      13.607  21.988   8.465  0.00  0.00    +0.005 A 
ATOM     18  C   UNL     1      12.484  22.487   7.674  0.00  0.00    -0.033 A 
ATOM     28  C   UNL     1      12.714  22.926   6.308  0.00  0.00    +0.005 A 
ATOM     29  C   UNL     1      14.000  22.876   5.724  0.00  0.00    +0.013 A 
BRANCH  18  19
ATOM     19  C   UNL     1      11.045  22.558   8.217  0.00  0.00    +0.119 C 
BRANCH  19  20
ATOM     20  N   UNL     1      10.372  23.891   8.198  0.00  0.00    -0.302 NA
ATOM     21  C   UNL     1      11.250  24.987   8.808  0.00  0.00    +0.066 C 
ATOM     22  C   UNL     1      10.539  26.379   8.759  0.00  0.00    -0.064 C 
ATOM     23  N   UNL     1       9.199  26.289   9.491  0.00  0.00    +0.379 N 
ATOM     24  C   UNL     1       8.555  27.611   9.497  0.00  0.00    -0.096 C 
ATOM     25  H   UNL     1       9.410  26.011  10.550  0.00  0.00    -0.082 HD
ATOM     26  C   UNL     1       8.320  25.200   8.893  0.00  0.00    -0.064 C 
ATOM     27  C   UNL     1       9.048  23.827   8.919  0.00  0.00    +0.066 C 
ENDBRANCH  19  20
ENDBRANCH  18  19
ENDBRANCH  14  15
ENDBRANCH  12  13
TORSDOF 6
ENDMDL
MODEL 2
REMARK VINA RESULT:      -8.3      3.487     12.272
REMARK  Name = C:\Users\Docking\Desktop\test protocol\1iep_ligandH.pdb
REMARK  8 active torsions:
REMARK  status: ('A' for Active; 'I' for Inactive)
REMARK    1  A    between atoms: _5  and  _11
REMARK    2  A    between atoms: _19  and  _21
REMARK    3  A    between atoms: _22  and  _66
REMARK    4  A    between atoms: _27  and  _30
REMARK    5  A    between atoms: _32  and  _33
REMARK    6  A    between atoms: _38  and  _43
REMARK    7  A    between atoms: _43  and  _46
REMARK    8  A    between atoms: _53  and  _55
REMARK                            x       y       z     vdW  Elec       q    Type
REMARK                         _______ _______ _______ _____ _____    ______ ____
ROOT
ATOM     10  C   UNL     1      12.551  22.711   7.843  0.00  0.00    +0.038 A 
ATOM     11  C   UNL     1      13.749  23.101   7.191  0.00  0.00    +0.047 A 
ATOM     12  C   UNL     1      15.039  22.576   7.610  0.00  0.00    +0.035 A 
ATOM     32  C   UNL     1      15.073  21.652   8.695  0.00  0.00    +0.024 A 
ATOM     33  C   UNL     1      13.865  21.245   9.369  0.00  0.00    +0.007 A 
ATOM     34  C   UNL     1      12.590  21.762   8.962  0.00  0.00    -0.029 A 
ATOM     35  C   UNL     1      11.329  21.295   9.726  0.00  0.00    +0.045 C 
ENDROOT
BRANCH  10   9
ATOM      4  C   UNL     1       9.209  26.155   7.800  0.00  0.00    +0.077 A 
ATOM      5  C   UNL     1       9.923  26.942   8.764  0.00  0.00    +0.048 A 
ATOM      6  C   UNL     1      11.144  26.422   9.250  0.00  0.00    +0.116 A 
ATOM      7  N   UNL     1      11.605  25.204   8.800  0.00  0.00    -0.223 NA
ATOM      8  C   UNL     1      10.891  24.469   7.872  0.00  0.00    +0.220 A 
ATOM      9  N   UNL     1      11.340  23.246   7.399  0.00  0.00    -0.283 N 
ATOM     36  H   UNL     1      10.780  22.731   6.720  0.00  0.00    +0.155 HD
ATOM     37  N   UNL     1       9.722  24.944   7.393  0.00  0.00    -0.214 NA
BRANCH   4   3
ATOM      1  C   UNL     1       5.498  27.305   7.345  0.00  0.00    +0.020 A 
ATOM      2  C   UNL     1       6.732  26.908   7.984  0.00  0.00    +0.013 A 
ATOM      3  C   UNL     1       7.907  26.571   7.190  0.00  0.00    +0.019 A 
ATOM     38  C   UNL     1       7.800  26.648   5.741  0.00  0.00    +0.120 A 
ATOM     39  N   UNL     1       6.598  27.032   5.154  0.00  0.00    -0.263 NA
ATOM     40  C   UNL     1       5.460  27.356   5.907  0.00  0.00    +0.111 A 
ENDBRANCH   4   3
ENDBRANCH  10   9
BRANCH  12  13
ATOM     13  N   UNL     1      16.289  22.943   6.991  0.00  0.00    -0.281 N 
ATOM     14  C   UNL     1      16.992  22.252   6.018  0.00  0.00    +0.248 C 
ATOM     30  O   UNL     1      16.758  21.101   5.682  0.00  0.00    -0.270 OA
ATOM     31  H   UNL     1      16.707  23.817   7.310  0.00  0.00    +0.155 HD
BRANCH  14  15
ATOM     15  C   UNL     1      18.129  22.934   5.327  0.00  0.00    +0.037 A 
ATOM     16  C   UNL     1      17.908  24.111   4.481  0.00  0.00    +0.013 A 
ATOM     17  C   UNL     1      19.020  24.739   3.813  0.00  0.00    +0.005 A 
ATOM     18  C   UNL     1      20.363  24.193   3.989  0.00  0.00    -0.033 A 
ATOM     28  C   UNL     1      20.554  23.029   4.838  0.00  0.00    +0.005 A 
ATOM     29  C   UNL     1      19.467  22.409   5.494  0.00  0.00    +0.013 A 
BRANCH  18  19
ATOM     19  C   UNL     1      21.605  24.787   3.298  0.00  0.00    +0.119 C 
BRANCH  19  20
ATOM     20  N   UNL     1      22.007  24.194   1.987  0.00  0.00    -0.302 NA
ATOM     21  C   UNL     1      23.200  23.244   2.129  0.00  0.00    +0.066 C 
ATOM     22  C   UNL     1      23.593  22.615   0.752  0.00  0.00    -0.064 C 
ATOM     23  N   UNL     1      23.905  23.732  -0.245  0.00  0.00    +0.379 N 
ATOM     24  C   UNL     1      24.331  23.144  -1.523  0.00  0.00    -0.096 C 
ATOM     25  H   UNL     1      24.763  24.318   0.161  0.00  0.00    -0.082 HD
ATOM     26  C   UNL     1      22.725  24.683  -0.389  0.00  0.00    -0.064 C 
ATOM     27  C   UNL     1      22.324  25.280   0.989  0.00  0.00    +0.066 C 
ENDBRANCH  19  20
ENDBRANCH  18  19
ENDBRANCH  14  15
ENDBRANCH  12  13
TORSDOF 6
ENDMDL
MODEL 3
REMARK VINA RESULT:      -8.1      9.385     14.089
REMARK  Name = C:\Users\Docking\Desktop\test protocol\1iep_ligandH.pdb
REMARK  8 active torsions:
REMARK  status: ('A' for Active; 'I' for Inactive)
REMARK    1  A    between atoms: _5  and  _11
REMARK    2  A    between atoms: _19  and  _21
REMARK    3  A    between atoms: _22  and  _66
REMARK    4  A    between atoms: _27  and  _30
REMARK    5  A    between atoms: _32  and  _33
REMARK    6  A    between atoms: _38  and  _43
REMARK    7  A    between atoms: _43  and  _46
REMARK    8  A    between atoms: _53  and  _55
REMARK                            x       y       z     vdW  Elec       q    Type
REMARK                         _______ _______ _______ _____ _____    ______ ____
ROOT
ATOM     10  C   UNL     1       9.286  25.127   8.371  0.00  0.00    +0.038 A 
ATOM     11  C   UNL     1       7.899  25.418   8.312  0.00  0.00    +0.047 A 
ATOM     12  C   UNL     1       7.419  26.791   8.287  0.00  0.00    +0.035 A 
ATOM     32  C   UNL     1       8.379  27.843   8.320  0.00  0.00    +0.024 A 
ATOM     33  C   UNL     1       9.793  27.566   8.381  0.00  0.00    +0.007 A 
ATOM     34  C   UNL     1      10.272  26.214   8.409  0.00  0.00    -0.029 A 
ATOM     35  C   UNL     1      11.799  25.975   8.481  0.00  0.00    +0.045 C 
ENDROOT
BRANCH  10   9
ATOM      4  C   UNL     1      10.757  21.187  10.685  0.00  0.00    +0.077 A 
ATOM      5  C   UNL     1      10.741  21.856  11.955  0.00  0.00    +0.048 A 
ATOM      6  C   UNL     1      10.355  23.215  11.968  0.00  0.00    +0.116 A 
ATOM      7  N   UNL     1      10.013  23.848  10.793  0.00  0.00    -0.223 NA
ATOM      8  C   UNL     1      10.040  23.175   9.586  0.00  0.00    +0.220 A 
ATOM      9  N   UNL     1       9.692  23.791   8.393  0.00  0.00    -0.283 N 
ATOM     36  H   UNL     1       9.732  23.262   7.522  0.00  0.00    +0.155 HD
ATOM     37  N   UNL     1      10.406  21.877   9.546  0.00  0.00    -0.214 NA
BRANCH   4   3
ATOM      1  C   UNL     1      11.016  17.311  11.138  0.00  0.00    +0.020 A 
ATOM      2  C   UNL     1      10.615  18.683  11.351  0.00  0.00    +0.013 A 
ATOM      3  C   UNL     1      11.138  19.751  10.509  0.00  0.00    +0.019 A 
ATOM     38  C   UNL     1      12.071  19.394   9.450  0.00  0.00    +0.120 A 
ATOM     39  N   UNL     1      12.440  18.065   9.270  0.00  0.00    -0.263 NA
ATOM     40  C   UNL     1      11.944  17.029  10.076  0.00  0.00    +0.111 A 
ENDBRANCH   4   3
ENDBRANCH  10   9
BRANCH  12  13
ATOM     13  N   UNL     1       6.023  27.147   8.236  0.00  0.00    -0.281 N 
ATOM     14  C   UNL     1       5.135  26.963   7.188  0.00  0.00    +0.248 C 
ATOM     30  O   UNL     1       5.461  26.656   6.051  0.00  0.00    -0.270 OA
ATOM     31  H   UNL     1       5.642  27.588   9.073  0.00  0.00    +0.155 HD
BRANCH  14  15
ATOM     15  C   UNL     1       3.674  27.164   7.436  0.00  0.00    +0.037 A 
ATOM     16  C   UNL     1       3.165  28.413   8.006  0.00  0.00    +0.013 A 
ATOM     17  C   UNL     1       1.753  28.574   8.251  0.00  0.00    +0.005 A 
ATOM     18  C   UNL     1       0.841  27.481   7.923  0.00  0.00    -0.033 A 
ATOM     28  C   UNL     1       1.373  26.254   7.353  0.00  0.00    +0.005 A 
ATOM     29  C   UNL     1       2.756  26.093   7.113  0.00  0.00    +0.013 A 
BRANCH  18  19
ATOM     19  C   UNL     1      -0.678  27.557   8.170  0.00  0.00    +0.119 C 
BRANCH  19  20
ATOM     20  N   UNL     1      -1.210  26.856   9.377  0.00  0.00    -0.302 NA
ATOM     21  C   UNL     1      -2.501  26.090   9.074  0.00  0.00    +0.066 C 
ATOM     22  C   UNL     1      -3.032  25.345  10.341  0.00  0.00    -0.064 C 
ATOM     23  N   UNL     1      -3.253  26.356  11.468  0.00  0.00    +0.379 N 
ATOM     24  C   UNL     1      -3.807  25.667  12.643  0.00  0.00    -0.096 C 
ATOM     25  H   UNL     1      -4.014  27.092  11.117  0.00  0.00    -0.082 HD
ATOM     26  C   UNL     1      -1.975  27.124  11.774  0.00  0.00    -0.064 C 
ATOM     27  C   UNL     1      -1.440  27.837  10.500  0.00  0.00    +0.066 C 
ENDBRANCH  19  20
ENDBRANCH  18  19
ENDBRANCH  14  15
ENDBRANCH  12  13
TORSDOF 6
ENDMDL
MODEL 4
REMARK VINA RESULT:      -8.1      9.343     14.123
REMARK  Name = C:\Users\Docking\Desktop\test protocol\1iep_ligandH.pdb
REMARK  8 active torsions:
REMARK  status: ('A' for Active; 'I' for Inactive)
REMARK    1  A    between atoms: _5  and  _11
REMARK    2  A    between atoms: _19  and  _21
REMARK    3  A    between atoms: _22  and  _66
REMARK    4  A    between atoms: _27  and  _30
REMARK    5  A    between atoms: _32  and  _33
REMARK    6  A    between atoms: _38  and  _43
REMARK    7  A    between atoms: _43  and  _46
REMARK    8  A    between atoms: _53  and  _55
REMARK                            x       y       z     vdW  Elec       q    Type
REMARK                         _______ _______ _______ _____ _____    ______ ____
ROOT
ATOM     10  C   UNL     1       9.316  25.126   8.333  0.00  0.00    +0.038 A 
ATOM     11  C   UNL     1       7.932  25.433   8.295  0.00  0.00    +0.047 A 
ATOM     12  C   UNL     1       7.467  26.811   8.280  0.00  0.00    +0.035 A 
ATOM     32  C   UNL     1       8.440  27.853   8.301  0.00  0.00    +0.024 A 
ATOM     33  C   UNL     1       9.851  27.558   8.340  0.00  0.00    +0.007 A 
ATOM     34  C   UNL     1      10.315  26.200   8.358  0.00  0.00    -0.029 A 
ATOM     35  C   UNL     1      11.839  25.944   8.407  0.00  0.00    +0.045 C 
ENDROOT
BRANCH  10   9
ATOM      4  C   UNL     1      10.753  21.158  10.621  0.00  0.00    +0.077 A 
ATOM      5  C   UNL     1      10.752  21.821  11.893  0.00  0.00    +0.048 A 
ATOM      6  C   UNL     1      10.382  23.184  11.915  0.00  0.00    +0.116 A 
ATOM      7  N   UNL     1      10.041  23.827  10.745  0.00  0.00    -0.223 NA
ATOM      8  C   UNL     1      10.053  23.160   9.534  0.00  0.00    +0.220 A 
ATOM      9  N   UNL     1       9.706  23.785   8.346  0.00  0.00    -0.283 N 
ATOM     36  H   UNL     1       9.735  23.259   7.473  0.00  0.00    +0.155 HD
ATOM     37  N   UNL     1      10.404  21.858   9.487  0.00  0.00    -0.214 NA
BRANCH   4   3
ATOM      1  C   UNL     1      12.623  17.885   9.579  0.00  0.00    +0.020 A 
ATOM      2  C   UNL     1      12.318  19.289   9.730  0.00  0.00    +0.013 A 
ATOM      3  C   UNL     1      11.116  19.718  10.435  0.00  0.00    +0.019 A 
ATOM     38  C   UNL     1      10.238  18.693  10.980  0.00  0.00    +0.120 A 
ATOM     39  N   UNL     1      10.558  17.349  10.818  0.00  0.00    -0.263 NA
ATOM     40  C   UNL     1      11.710  16.924  10.140  0.00  0.00    +0.111 A 
ENDBRANCH   4   3
ENDBRANCH  10   9
BRANCH  12  13
ATOM     13  N   UNL     1       6.075  27.185   8.250  0.00  0.00    -0.281 N 
ATOM     14  C   UNL     1       5.148  26.938   7.250  0.00  0.00    +0.248 C 
ATOM     30  O   UNL     1       5.430  26.543   6.128  0.00  0.00    -0.270 OA
ATOM     31  H   UNL     1       5.730  27.692   9.065  0.00  0.00    +0.155 HD
BRANCH  14  15
ATOM     15  C   UNL     1       3.700  27.178   7.532  0.00  0.00    +0.037 A 
ATOM     16  C   UNL     1       2.704  26.120   7.347  0.00  0.00    +0.013 A 
ATOM     17  C   UNL     1       1.311  26.383   7.610  0.00  0.00    +0.005 A 
ATOM     18  C   UNL     1       0.907  27.712   8.062  0.00  0.00    -0.033 A 
ATOM     28  C   UNL     1       1.917  28.742   8.242  0.00  0.00    +0.005 A 
ATOM     29  C   UNL     1       3.282  28.488   7.984  0.00  0.00    +0.013 A 
BRANCH  18  19
ATOM     19  C   UNL     1      -0.559  28.089   8.346  0.00  0.00    +0.119 C 
BRANCH  19  20
ATOM     20  N   UNL     1      -0.972  28.199   9.777  0.00  0.00    -0.302 NA
ATOM     21  C   UNL     1      -1.736  26.960  10.252  0.00  0.00    +0.066 C 
ATOM     22  C   UNL     1      -2.140  27.083  11.757  0.00  0.00    -0.064 C 
ATOM     23  N   UNL     1      -2.980  28.346  11.955  0.00  0.00    +0.379 N 
ATOM     24  C   UNL     1      -3.411  28.433  13.358  0.00  0.00    -0.096 C 
ATOM     25  H   UNL     1      -3.895  28.245  11.326  0.00  0.00    -0.082 HD
ATOM     26  C   UNL     1      -2.229  29.582  11.483  0.00  0.00    -0.064 C 
ATOM     27  C   UNL     1      -1.806  29.438   9.995  0.00  0.00    +0.066 C 
ENDBRANCH  19  20
ENDBRANCH  18  19
ENDBRANCH  14  15
ENDBRANCH  12  13
TORSDOF 6
ENDMDL
MODEL 5
REMARK VINA RESULT:      -8.1      2.206     11.771
REMARK  Name = C:\Users\Docking\Desktop\test protocol\1iep_ligandH.pdb
REMARK  8 active torsions:
REMARK  status: ('A' for Active; 'I' for Inactive)
REMARK    1  A    between atoms: _5  and  _11
REMARK    2  A    between atoms: _19  and  _21
REMARK    3  A    between atoms: _22  and  _66
REMARK    4  A    between atoms: _27  and  _30
REMARK    5  A    between atoms: _32  and  _33
REMARK    6  A    between atoms: _38  and  _43
REMARK    7  A    between atoms: _43  and  _46
REMARK    8  A    between atoms: _53  and  _55
REMARK                            x       y       z     vdW  Elec       q    Type
REMARK                         _______ _______ _______ _____ _____    ______ ____
ROOT
ATOM     10  C   UNL     1      12.144  22.618   8.064  0.00  0.00    +0.038 A 
ATOM     11  C   UNL     1      13.344  22.983   7.401  0.00  0.00    +0.047 A 
ATOM     12  C   UNL     1      14.626  22.428   7.806  0.00  0.00    +0.035 A 
ATOM     32  C   UNL     1      14.650  21.503   8.890  0.00  0.00    +0.024 A 
ATOM     33  C   UNL     1      13.440  21.122   9.576  0.00  0.00    +0.007 A 
ATOM     34  C   UNL     1      12.172  21.667   9.182  0.00  0.00    -0.029 A 
ATOM     35  C   UNL     1      10.909  21.228   9.957  0.00  0.00    +0.045 C 
ENDROOT
BRANCH  10   9
ATOM      4  C   UNL     1       8.965  26.211   7.917  0.00  0.00    +0.077 A 
ATOM      5  C   UNL     1       9.756  27.025   8.794  0.00  0.00    +0.048 A 
ATOM      6  C   UNL     1      10.970  26.480   9.267  0.00  0.00    +0.116 A 
ATOM      7  N   UNL     1      11.356  25.213   8.884  0.00  0.00    -0.223 NA
ATOM      8  C   UNL     1      10.569  24.454   8.038  0.00  0.00    +0.220 A 
ATOM      9  N   UNL     1      10.941  23.181   7.633  0.00  0.00    -0.283 N 
ATOM     36  H   UNL     1      10.329  22.650   7.014  0.00  0.00    +0.155 HD
ATOM     37  N   UNL     1       9.404  24.952   7.574  0.00  0.00    -0.214 NA
BRANCH   4   3
ATOM      1  C   UNL     1       5.231  27.307   7.525  0.00  0.00    +0.020 A 
ATOM      2  C   UNL     1       6.468  26.885   8.139  0.00  0.00    +0.013 A 
ATOM      3  C   UNL     1       7.658  26.649   7.332  0.00  0.00    +0.019 A 
ATOM     38  C   UNL     1       7.562  26.852   5.894  0.00  0.00    +0.120 A 
ATOM     39  N   UNL     1       6.357  27.257   5.330  0.00  0.00    -0.263 NA
ATOM     40  C   UNL     1       5.204  27.486   6.097  0.00  0.00    +0.111 A 
ENDBRANCH   4   3
ENDBRANCH  10   9
BRANCH  12  13
ATOM     13  N   UNL     1      15.878  22.768   7.176  0.00  0.00    -0.281 N 
ATOM     14  C   UNL     1      16.555  22.063   6.194  0.00  0.00    +0.248 C 
ATOM     30  O   UNL     1      16.292  20.917   5.860  0.00  0.00    -0.270 OA
ATOM     31  H   UNL     1      16.317  23.632   7.491  0.00  0.00    +0.155 HD
BRANCH  14  15
ATOM     15  C   UNL     1      17.700  22.720   5.493  0.00  0.00    +0.037 A 
ATOM     16  C   UNL     1      19.087  22.382   5.820  0.00  0.00    +0.013 A 
ATOM     17  C   UNL     1      20.173  23.043   5.141  0.00  0.00    +0.005 A 
ATOM     18  C   UNL     1      19.874  24.050   4.125  0.00  0.00    -0.033 A 
ATOM     28  C   UNL     1      18.488  24.363   3.817  0.00  0.00    +0.005 A 
ATOM     29  C   UNL     1      17.422  23.718   4.481  0.00  0.00    +0.013 A 
BRANCH  18  19
ATOM     19  C   UNL     1      20.969  24.822   3.365  0.00  0.00    +0.119 C 
BRANCH  19  20
ATOM     20  N   UNL     1      20.522  25.801   2.329  0.00  0.00    -0.302 NA
ATOM     21  C   UNL     1      21.390  25.740   1.069  0.00  0.00    +0.066 C 
ATOM     22  C   UNL     1      20.894  26.755  -0.012  0.00  0.00    -0.064 C 
ATOM     23  N   UNL     1      20.896  28.166   0.578  0.00  0.00    +0.379 N 
ATOM     24  C   UNL     1      20.486  29.130  -0.454  0.00  0.00    -0.096 C 
ATOM     25  H   UNL     1      21.943  28.409   0.871  0.00  0.00    -0.082 HD
ATOM     26  C   UNL     1      20.038  28.235   1.833  0.00  0.00    -0.064 C 
ATOM     27  C   UNL     1      20.520  27.202   2.890  0.00  0.00    +0.066 C 
ENDBRANCH  19  20
ENDBRANCH  18  19
ENDBRANCH  14  15
ENDBRANCH  12  13
TORSDOF 6
ENDMDL
