MODEL 1
REMARK VINA RESULT:      -8.4      0.000      0.000
REMARK  Name = C:\Users\Docking\Desktop\test protocol\1iep_ligandH.pdb
REMARK  8 active torsions:
REMARK  status: ('A' for Active; 'I' for Inactive)
REMARK    1  A    between atoms: _5  and  _11
REMARK    2  A    between atoms: _19  and  _21
REMARK    3  A    between atoms: _22  and  _66
REMARK    4  A    between atoms: _27  and  _30
REMARK    5  A    between atoms: _32  and  _33
REMARK    6  A    between atoms: _38  and  _43
REMARK    7  A    between atoms: _43  and  _46
REMARK    8  A    between atoms: _53  and  _55
REMARK                            x       y       z     vdW  Elec       q    Type
REMARK                         _______ _______ _______ _____ _____    ______ ____
ROOT
ATOM     10  C   UNL     1      20.085  25.363   4.309  0.00  0.00    +0.038 A 
ATOM     11  C   UNL     1      18.758  25.114   4.745  0.00  0.00    +0.047 A 
ATOM     12  C   UNL     1      18.232  23.760   4.820  0.00  0.00    +0.035 A 
ATOM     32  C   UNL     1      19.085  22.682   4.446  0.00  0.00    +0.024 A 
ATOM     33  C   UNL     1      20.436  22.916   3.999  0.00  0.00    +0.007 A 
ATOM     34  C   UNL     1      20.960  24.250   3.921  0.00  0.00    -0.029 A 
ATOM     35  C   UNL     1      22.413  24.442   3.429  0.00  0.00    +0.045 C 
ENDROOT
BRANCH  10   9
ATOM      4  C   UNL     1      20.941  29.453   1.948  0.00  0.00    +0.077 A 
ATOM      5  C   UNL     1      20.470  28.906   0.709  0.00  0.00    +0.048 A 
ATOM      6  C   UNL     1      20.022  27.565   0.720  0.00  0.00    +0.116 A 
ATOM      7  N   UNL     1      20.048  26.837   1.889  0.00  0.00    -0.223 NA
ATOM      8  C   UNL     1      20.511  27.394   3.067  0.00  0.00    +0.220 A 
ATOM      9  N   UNL     1      20.539  26.682   4.256  0.00  0.00    -0.283 N 
ATOM     36  H   UNL     1      20.894  27.127   5.102  0.00  0.00    +0.155 HD
ATOM     37  N   UNL     1      20.945  28.672   3.082  0.00  0.00    -0.214 NA
BRANCH   4   3
ATOM      1  C   UNL     1      22.713  32.875   1.278  0.00  0.00    +0.020 A 
ATOM      2  C   UNL     1      22.254  31.519   1.085  0.00  0.00    +0.013 A 
ATOM      3  C   UNL     1      21.444  30.855   2.098  0.00  0.00    +0.019 A 
ATOM     38  C   UNL     1      21.113  31.598   3.305  0.00  0.00    +0.120 A 
ATOM     39  N   UNL     1      21.570  32.902   3.465  0.00  0.00    -0.263 NA
ATOM     40  C   UNL     1      22.352  33.550   2.497  0.00  0.00    +0.111 A 
ENDBRANCH   4   3
ENDBRANCH  10   9
BRANCH  12  13
ATOM     13  N   UNL     1      16.890  23.448   5.247  0.00  0.00    -0.281 N 
ATOM     14  C   UNL     1      16.499  22.642   6.304  0.00  0.00    +0.248 C 
ATOM     30  O   UNL     1      17.246  21.893   6.915  0.00  0.00    -0.270 OA
ATOM     31  H   UNL     1      16.138  23.871   4.704  0.00  0.00    +0.155 HD
BRANCH  14  15
ATOM     15  C   UNL     1      15.068  22.661   6.735  0.00  0.00    +0.037 A 
ATOM     16  C   UNL     1      14.009  23.119   5.833  0.00  0.00    +0.013 A 
ATOM     17  C   UNL     1      12.638  23.143   6.279  0.00  0.00    +0.005 A 
ATOM     18  C   UNL     1      12.320  22.706   7.637  0.00  0.00    -0.033 A 
ATOM     28  C   UNL     1      13.390  22.251   8.509  0.00  0.00    +0.005 A 
ATOM     29  C   UNL     1      14.734  22.227   8.075  0.00  0.00    +0.013 A 
BRANCH  18  19
ATOM     19  C   UNL     1      10.888  22.718   8.205  0.00  0.00    +0.119 C 
BRANCH  19  20
ATOM     20  N   UNL     1      10.161  24.022   8.199  0.00  0.00    -0.302 NA
ATOM     21  C   UNL     1      11.033  25.169   8.719  0.00  0.00    +0.066 C 
ATOM     22  C   UNL     1      10.264  26.529   8.684  0.00  0.00    -0.064 C 
ATOM     23  N   UNL     1       8.981  26.408   9.508  0.00  0.00    +0.379 N 
ATOM     24  C   UNL     1       8.285  27.703   9.526  0.00  0.00    -0.096 C 
ATOM     25  H   UNL     1       9.274  26.167  10.556  0.00  0.00    -0.082 HD
ATOM     26  C   UNL     1       8.109  25.269   8.999  0.00  0.00    -0.064 C 
ATOM     27  C   UNL     1       8.893  23.926   9.010  0.00  0.00    +0.066 C 
ENDBRANCH  19  20
ENDBRANCH  18  19
ENDBRANCH  14  15
ENDBRANCH  12  13
TORSDOF 6
ENDMDL
MODEL 2
REMARK VINA RESULT:      -8.1     10.378     16.817
REMARK  Name = C:\Users\Docking\Desktop\test protocol\1iep_ligandH.pdb
REMARK  8 active torsions:
REMARK  status: ('A' for Active; 'I' for Inactive)
REMARK    1  A    between atoms: _5  and  _11
REMARK    2  A    between atoms: _19  and  _21
REMARK    3  A    between atoms: _22  and  _66
REMARK    4  A    between atoms: _27  and  _30
REMARK    5  A    between atoms: _32  and  _33
REMARK    6  A    between atoms: _38  and  _43
REMARK    7  A    between atoms: _43  and  _46
REMARK    8  A    between atoms: _53  and  _55
REMARK                            x       y       z     vdW  Elec       q    Type
REMARK                         _______ _______ _______ _____ _____    ______ ____
ROOT
ATOM     10  C   UNL     1       3.116  27.900   7.192  0.00  0.00    +0.038 A 
ATOM     11  C   UNL     1       4.206  27.244   7.818  0.00  0.00    +0.047 A 
ATOM     12  C   UNL     1       5.310  26.707   7.038  0.00  0.00    +0.035 A 
ATOM     32  C   UNL     1       5.273  26.859   5.621  0.00  0.00    +0.024 A 
ATOM     33  C   UNL     1       4.172  27.522   4.968  0.00  0.00    +0.007 A 
ATOM     34  C   UNL     1       3.079  28.051   5.732  0.00  0.00    -0.029 A 
ATOM     35  C   UNL     1       1.922  28.746   4.978  0.00  0.00    +0.045 C 
ENDROOT
BRANCH  10   9
ATOM      4  C   UNL     1      -1.174  27.483   9.304  0.00  0.00    +0.077 A 
ATOM      5  C   UNL     1      -1.386  26.177   8.750  0.00  0.00    +0.048 A 
ATOM      6  C   UNL     1      -0.370  25.651   7.921  0.00  0.00    +0.116 A 
ATOM      7  N   UNL     1       0.769  26.386   7.672  0.00  0.00    -0.223 NA
ATOM      8  C   UNL     1       0.941  27.643   8.221  0.00  0.00    +0.220 A 
ATOM      9  N   UNL     1       2.082  28.396   7.990  0.00  0.00    -0.283 N 
ATOM     36  H   UNL     1       2.168  29.322   8.407  0.00  0.00    +0.155 HD
ATOM     37  N   UNL     1      -0.015  28.168   9.015  0.00  0.00    -0.214 NA
BRANCH   4   3
ATOM      1  C   UNL     1      -2.858  29.130  12.427  0.00  0.00    +0.020 A 
ATOM      2  C   UNL     1      -1.877  28.461  11.604  0.00  0.00    +0.013 A 
ATOM      3  C   UNL     1      -2.154  28.172  10.202  0.00  0.00    +0.019 A 
ATOM     38  C   UNL     1      -3.442  28.577   9.660  0.00  0.00    +0.120 A 
ATOM     39  N   UNL     1      -4.368  29.218  10.478  0.00  0.00    -0.263 NA
ATOM     40  C   UNL     1      -4.113  29.500  11.829  0.00  0.00    +0.111 A 
ENDBRANCH   4   3
ENDBRANCH  10   9
BRANCH  12  13
ATOM     13  N   UNL     1       6.440  26.024   7.618  0.00  0.00    -0.281 N 
ATOM     14  C   UNL     1       7.501  26.575   8.318  0.00  0.00    +0.248 C 
ATOM     30  O   UNL     1       7.749  27.771   8.368  0.00  0.00    -0.270 OA
ATOM     31  H   UNL     1       6.461  25.011   7.498  0.00  0.00    +0.155 HD
BRANCH  14  15
ATOM     15  C   UNL     1       8.428  25.666   9.058  0.00  0.00    +0.037 A 
ATOM     16  C   UNL     1       9.700  26.153   9.598  0.00  0.00    +0.013 A 
ATOM     17  C   UNL     1      10.584  25.251  10.293  0.00  0.00    +0.005 A 
ATOM     18  C   UNL     1      10.197  23.852  10.453  0.00  0.00    -0.033 A 
ATOM     28  C   UNL     1       8.927  23.396   9.913  0.00  0.00    +0.005 A 
ATOM     29  C   UNL     1       8.059  24.277   9.230  0.00  0.00    +0.013 A 
BRANCH  18  19
ATOM     19  C   UNL     1      11.087  22.814  11.162  0.00  0.00    +0.119 C 
BRANCH  19  20
ATOM     20  N   UNL     1      10.911  21.383  10.774  0.00  0.00    -0.302 NA
ATOM     21  C   UNL     1      10.307  20.550  11.908  0.00  0.00    +0.066 C 
ATOM     22  C   UNL     1      10.108  19.060  11.477  0.00  0.00    -0.064 C 
ATOM     23  N   UNL     1      11.451  18.477  11.033  0.00  0.00    +0.379 N 
ATOM     24  C   UNL     1      11.279  17.060  10.682  0.00  0.00    -0.096 C 
ATOM     25  H   UNL     1      12.146  18.529  11.904  0.00  0.00    -0.082 HD
ATOM     26  C   UNL     1      12.061  19.301   9.908  0.00  0.00    -0.064 C 
ATOM     27  C   UNL     1      12.226  20.786  10.336  0.00  0.00    +0.066 C 
ENDBRANCH  19  20
ENDBRANCH  18  19
ENDBRANCH  14  15
ENDBRANCH  12  13
TORSDOF 6
ENDMDL
MODEL 3
REMARK VINA RESULT:      -8.1      9.424     14.287
REMARK  Name = C:\Users\Docking\Desktop\test protocol\1iep_ligandH.pdb
REMARK  8 active torsions:
REMARK  status: ('A' for Active; 'I' for Inactive)
REMARK    1  A    between atoms: _5  and  _11
REMARK    2  A    between atoms: _19  and  _21
REMARK    3  A    between atoms: _22  and  _66
REMARK    4  A    between atoms: _27  and  _30
REMARK    5  A    between atoms: _32  and  _33
REMARK    6  A    between atoms: _38  and  _43
REMARK    7  A    between atoms: _43  and  _46
REMARK    8  A    between atoms: _53  and  _55
REMARK                            x       y       z     vdW  Elec       q    Type
REMARK                         _______ _______ _______ _____ _____    ______ ____
ROOT
ATOM     10  C   UNL     1       9.027  25.124   8.424  0.00  0.00    +0.038 A 
ATOM     11  C   UNL     1       7.691  25.602   8.438  0.00  0.00    +0.047 A 
ATOM     12  C   UNL     1       7.399  27.022   8.326  0.00  0.00    +0.035 A 
ATOM     32  C   UNL     1       8.492  27.929   8.199  0.00  0.00    +0.024 A 
ATOM     33  C   UNL     1       9.855  27.461   8.185  0.00  0.00    +0.007 A 
ATOM     34  C   UNL     1      10.150  26.061   8.297  0.00  0.00    -0.029 A 
ATOM     35  C   UNL     1      11.631  25.617   8.282  0.00  0.00    +0.045 C 
ENDROOT
BRANCH  10   9
ATOM      4  C   UNL     1      10.399  21.244  10.893  0.00  0.00    +0.077 A 
ATOM      5  C   UNL     1      10.724  22.023  12.053  0.00  0.00    +0.048 A 
ATOM      6  C   UNL     1      10.530  23.421  11.970  0.00  0.00    +0.116 A 
ATOM      7  N   UNL     1      10.047  23.985  10.810  0.00  0.00    -0.223 NA
ATOM      8  C   UNL     1       9.745  23.204   9.709  0.00  0.00    +0.220 A 
ATOM      9  N   UNL     1       9.250  23.750   8.534  0.00  0.00    -0.283 N 
ATOM     36  H   UNL     1       9.046  23.141   7.742  0.00  0.00    +0.155 HD
ATOM     37  N   UNL     1       9.922  21.868   9.762  0.00  0.00    -0.214 NA
BRANCH   4   3
ATOM      1  C   UNL     1       9.924  17.413  11.529  0.00  0.00    +0.020 A 
ATOM      2  C   UNL     1       9.743  18.843  11.631  0.00  0.00    +0.013 A 
ATOM      3  C   UNL     1      10.546  19.755  10.827  0.00  0.00    +0.019 A 
ATOM     38  C   UNL     1      11.530  19.184   9.920  0.00  0.00    +0.120 A 
ATOM     39  N   UNL     1      11.683  17.803   9.843  0.00  0.00    -0.263 NA
ATOM     40  C   UNL     1      10.918  16.916  10.614  0.00  0.00    +0.111 A 
ENDBRANCH   4   3
ENDBRANCH  10   9
BRANCH  12  13
ATOM     13  N   UNL     1       6.064  27.566   8.342  0.00  0.00    -0.281 N 
ATOM     14  C   UNL     1       5.232  27.814   7.262  0.00  0.00    +0.248 C 
ATOM     30  O   UNL     1       5.593  27.804   6.095  0.00  0.00    -0.270 OA
ATOM     31  H   UNL     1       5.686  27.797   9.261  0.00  0.00    +0.155 HD
BRANCH  14  15
ATOM     15  C   UNL     1       3.794  28.133   7.517  0.00  0.00    +0.037 A 
ATOM     16  C   UNL     1       3.258  29.474   7.269  0.00  0.00    +0.013 A 
ATOM     17  C   UNL     1       1.871  29.759   7.539  0.00  0.00    +0.005 A 
ATOM     18  C   UNL     1       1.010  28.700   8.059  0.00  0.00    -0.033 A 
ATOM     28  C   UNL     1       1.567  27.378   8.291  0.00  0.00    +0.005 A 
ATOM     29  C   UNL     1       2.926  27.094   8.029  0.00  0.00    +0.013 A 
BRANCH  18  19
ATOM     19  C   UNL     1      -0.477  28.921   8.396  0.00  0.00    +0.119 C 
BRANCH  19  20
ATOM     20  N   UNL     1      -0.878  28.804   9.830  0.00  0.00    -0.302 NA
ATOM     21  C   UNL     1      -1.746  27.569  10.085  0.00  0.00    +0.066 C 
ATOM     22  C   UNL     1      -2.138  27.451  11.594  0.00  0.00    -0.064 C 
ATOM     23  N   UNL     1      -2.865  28.724  12.031  0.00  0.00    +0.379 N 
ATOM     24  C   UNL     1      -3.285  28.592  13.433  0.00  0.00    -0.096 C 
ATOM     25  H   UNL     1      -3.785  28.818  11.409  0.00  0.00    -0.082 HD
ATOM     26  C   UNL     1      -2.009  29.957  11.778  0.00  0.00    -0.064 C 
ATOM     27  C   UNL     1      -1.601  30.049  10.281  0.00  0.00    +0.066 C 
ENDBRANCH  19  20
ENDBRANCH  18  19
ENDBRANCH  14  15
ENDBRANCH  12  13
TORSDOF 6
ENDMDL
MODEL 4
REMARK VINA RESULT:      -8.1      3.246     12.251
REMARK  Name = C:\Users\Docking\Desktop\test protocol\1iep_ligandH.pdb
REMARK  8 active torsions:
REMARK  status: ('A' for Active; 'I' for Inactive)
REMARK    1  A    between atoms: _5  and  _11
REMARK    2  A    between atoms: _19  and  _21
REMARK    3  A    between atoms: _22  and  _66
REMARK    4  A    between atoms: _27  and  _30
REMARK    5  A    between atoms: _32  and  _33
REMARK    6  A    between atoms: _38  and  _43
REMARK    7  A    between atoms: _43  and  _46
REMARK    8  A    between atoms: _53  and  _55
REMARK                            x       y       z     vdW  Elec       q    Type
REMARK                         _______ _______ _______ _____ _____    ______ ____
ROOT
ATOM     10  C   UNL     1      12.360  22.884   7.943  0.00  0.00    +0.038 A 
ATOM     11  C   UNL     1      13.567  23.267   7.305  0.00  0.00    +0.047 A 
ATOM     12  C   UNL     1      14.849  22.732   7.737  0.00  0.00    +0.035 A 
ATOM     32  C   UNL     1      14.864  21.807   8.822  0.00  0.00    +0.024 A 
ATOM     33  C   UNL     1      13.646  21.408   9.482  0.00  0.00    +0.007 A 
ATOM     34  C   UNL     1      12.379  21.934   9.062  0.00  0.00    -0.029 A 
ATOM     35  C   UNL     1      11.106  21.476   9.811  0.00  0.00    +0.045 C 
ENDROOT
BRANCH  10   9
ATOM      4  C   UNL     1       9.025  26.336   7.892  0.00  0.00    +0.077 A 
ATOM      5  C   UNL     1       9.725  27.108   8.879  0.00  0.00    +0.048 A 
ATOM      6  C   UNL     1      10.935  26.578   9.379  0.00  0.00    +0.116 A 
ATOM      7  N   UNL     1      11.402  25.365   8.919  0.00  0.00    -0.223 NA
ATOM      8  C   UNL     1      10.702  24.646   7.969  0.00  0.00    +0.220 A 
ATOM      9  N   UNL     1      11.157  23.428   7.486  0.00  0.00    -0.283 N 
ATOM     36  H   UNL     1      10.608  22.924   6.790  0.00  0.00    +0.155 HD
ATOM     37  N   UNL     1       9.543  25.129   7.476  0.00  0.00    -0.214 NA
BRANCH   4   3
ATOM      1  C   UNL     1       5.367  27.628   7.390  0.00  0.00    +0.020 A 
ATOM      2  C   UNL     1       6.591  27.225   8.044  0.00  0.00    +0.013 A 
ATOM      3  C   UNL     1       7.734  26.764   7.266  0.00  0.00    +0.019 A 
ATOM     38  C   UNL     1       7.606  26.722   5.817  0.00  0.00    +0.120 A 
ATOM     39  N   UNL     1       6.415  27.114   5.215  0.00  0.00    -0.263 NA
ATOM     40  C   UNL     1       5.307  27.559   5.953  0.00  0.00    +0.111 A 
ENDBRANCH   4   3
ENDBRANCH  10   9
BRANCH  12  13
ATOM     13  N   UNL     1      16.108  23.090   7.133  0.00  0.00    -0.281 N 
ATOM     14  C   UNL     1      16.790  22.425   6.127  0.00  0.00    +0.248 C 
ATOM     30  O   UNL     1      16.523  21.297   5.741  0.00  0.00    -0.270 OA
ATOM     31  H   UNL     1      16.551  23.937   7.490  0.00  0.00    +0.155 HD
BRANCH  14  15
ATOM     15  C   UNL     1      17.945  23.105   5.466  0.00  0.00    +0.037 A 
ATOM     16  C   UNL     1      19.320  22.646   5.678  0.00  0.00    +0.013 A 
ATOM     17  C   UNL     1      20.417  23.331   5.041  0.00  0.00    +0.005 A 
ATOM     18  C   UNL     1      20.143  24.481   4.184  0.00  0.00    -0.033 A 
ATOM     28  C   UNL     1      18.768  24.912   3.987  0.00  0.00    +0.005 A 
ATOM     29  C   UNL     1      17.691  24.244   4.610  0.00  0.00    +0.013 A 
BRANCH  18  19
ATOM     19  C   UNL     1      21.253  25.285   3.481  0.00  0.00    +0.119 C 
BRANCH  19  20
ATOM     20  N   UNL     1      21.759  24.758   2.179  0.00  0.00    -0.302 NA
ATOM     21  C   UNL     1      22.954  23.819   2.364  0.00  0.00    +0.066 C 
ATOM     22  C   UNL     1      23.456  23.259   0.993  0.00  0.00    -0.064 C 
ATOM     23  N   UNL     1      23.820  24.425   0.072  0.00  0.00    +0.379 N 
ATOM     24  C   UNL     1      24.347  23.901  -1.197  0.00  0.00    -0.096 C 
ATOM     25  H   UNL     1      24.636  25.003   0.564  0.00  0.00    -0.082 HD
ATOM     26  C   UNL     1      22.638  25.365  -0.116  0.00  0.00    -0.064 C 
ATOM     27  C   UNL     1      22.128  25.892   1.255  0.00  0.00    +0.066 C 
ENDBRANCH  19  20
ENDBRANCH  18  19
ENDBRANCH  14  15
ENDBRANCH  12  13
TORSDOF 6
ENDMDL
MODEL 5
REMARK VINA RESULT:      -7.9      2.045     11.755
REMARK  Name = C:\Users\Docking\Desktop\test protocol\1iep_ligandH.pdb
REMARK  8 active torsions:
REMARK  status: ('A' for Active; 'I' for Inactive)
REMARK    1  A    between atoms: _5  and  _11
REMARK    2  A    between atoms: _19  and  _21
REMARK    3  A    between atoms: _22  and  _66
REMARK    4  A    between atoms: _27  and  _30
REMARK    5  A    between atoms: _32  and  _33
REMARK    6  A    between atoms: _38  and  _43
REMARK    7  A    between atoms: _43  and  _46
REMARK    8  A    between atoms: _53  and  _55
REMARK                            x       y       z     vdW  Elec       q    Type
REMARK                         _______ _______ _______ _____ _____    ______ ____
ROOT
ATOM     10  C   UNL     1      11.917  22.694   8.313  0.00  0.00    +0.038 A 
ATOM     11  C   UNL     1      13.141  23.000   7.665  0.00  0.00    +0.047 A 
ATOM     12  C   UNL     1      14.399  22.432   8.125  0.00  0.00    +0.035 A 
ATOM     32  C   UNL     1      14.373  21.554   9.247  0.00  0.00    +0.024 A 
ATOM     33  C   UNL     1      13.138  21.232   9.918  0.00  0.00    +0.007 A 
ATOM     34  C   UNL     1      11.895  21.792   9.471  0.00  0.00    -0.029 A 
ATOM     35  C   UNL     1      10.602  21.418  10.233  0.00  0.00    +0.045 C 
ENDROOT
BRANCH  10   9
ATOM      4  C   UNL     1       8.825  26.347   7.956  0.00  0.00    +0.077 A 
ATOM      5  C   UNL     1       9.609  27.174   8.828  0.00  0.00    +0.048 A 
ATOM      6  C   UNL     1      10.797  26.619   9.353  0.00  0.00    +0.116 A 
ATOM      7  N   UNL     1      11.165  25.332   9.023  0.00  0.00    -0.223 NA
ATOM      8  C   UNL     1      10.385  24.561   8.181  0.00  0.00    +0.220 A 
ATOM      9  N   UNL     1      10.739  23.268   7.830  0.00  0.00    -0.283 N 
ATOM     36  H   UNL     1      10.133  22.729   7.212  0.00  0.00    +0.155 HD
ATOM     37  N   UNL     1       9.244  25.068   7.668  0.00  0.00    -0.214 NA
BRANCH   4   3
ATOM      1  C   UNL     1       5.176  27.654   7.425  0.00  0.00    +0.020 A 
ATOM      2  C   UNL     1       6.388  27.233   8.089  0.00  0.00    +0.013 A 
ATOM      3  C   UNL     1       7.545  26.793   7.319  0.00  0.00    +0.019 A 
ATOM     38  C   UNL     1       7.441  26.790   5.868  0.00  0.00    +0.120 A 
ATOM     39  N   UNL     1       6.260  27.199   5.256  0.00  0.00    -0.263 NA
ATOM     40  C   UNL     1       5.140  27.624   5.987  0.00  0.00    +0.111 A 
ENDBRANCH   4   3
ENDBRANCH  10   9
BRANCH  12  13
ATOM     13  N   UNL     1      15.673  22.713   7.511  0.00  0.00    -0.281 N 
ATOM     14  C   UNL     1      16.318  21.992   6.520  0.00  0.00    +0.248 C 
ATOM     30  O   UNL     1      15.993  20.871   6.158  0.00  0.00    -0.270 OA
ATOM     31  H   UNL     1      16.159  23.544   7.849  0.00  0.00    +0.155 HD
BRANCH  14  15
ATOM     15  C   UNL     1      17.504  22.598   5.842  0.00  0.00    +0.037 A 
ATOM     16  C   UNL     1      18.868  22.180   6.178  0.00  0.00    +0.013 A 
ATOM     17  C   UNL     1      19.995  22.793   5.521  0.00  0.00    +0.005 A 
ATOM     18  C   UNL     1      19.763  23.831   4.520  0.00  0.00    -0.033 A 
ATOM     28  C   UNL     1      18.400  24.223   4.202  0.00  0.00    +0.005 A 
ATOM     29  C   UNL     1      17.292  23.625   4.844  0.00  0.00    +0.013 A 
BRANCH  18  19
ATOM     19  C   UNL     1      20.906  24.555   3.784  0.00  0.00    +0.119 C 
BRANCH  19  20
ATOM     20  N   UNL     1      20.528  25.651   2.843  0.00  0.00    -0.302 NA
ATOM     21  C   UNL     1      21.541  25.806   1.705  0.00  0.00    +0.066 C 
ATOM     22  C   UNL     1      21.119  26.942   0.718  0.00  0.00    -0.064 C 
ATOM     23  N   UNL     1      20.966  28.254   1.489  0.00  0.00    +0.379 N 
ATOM     24  C   UNL     1      20.625  29.336   0.554  0.00  0.00    -0.096 C 
ATOM     25  H   UNL     1      21.955  28.497   1.942  0.00  0.00    -0.082 HD
ATOM     26  C   UNL     1      19.962  28.108   2.624  0.00  0.00    -0.064 C 
ATOM     27  C   UNL     1      20.376  26.957   3.583  0.00  0.00    +0.066 C 
ENDBRANCH  19  20
ENDBRANCH  18  19
ENDBRANCH  14  15
ENDBRANCH  12  13
TORSDOF 6
ENDMDL
