MODEL 1
REMARK VINA RESULT:      -9.1      0.000      0.000
REMARK  Name = C:\Users\Docking\Desktop\test protocol\1iep_ligandH.pdb
REMARK  8 active torsions:
REMARK  status: ('A' for Active; 'I' for Inactive)
REMARK    1  A    between atoms: _5  and  _11
REMARK    2  A    between atoms: _19  and  _21
REMARK    3  A    between atoms: _22  and  _66
REMARK    4  A    between atoms: _27  and  _30
REMARK    5  A    between atoms: _32  and  _33
REMARK    6  A    between atoms: _38  and  _43
REMARK    7  A    between atoms: _43  and  _46
REMARK    8  A    between atoms: _53  and  _55
REMARK                            x       y       z     vdW  Elec       q    Type
REMARK                         _______ _______ _______ _____ _____    ______ ____
ROOT
ATOM     10  C   UNL     1      46.140  -6.229  43.017  0.00  0.00    +0.038 A 
ATOM     11  C   UNL     1      44.833  -5.704  42.850  0.00  0.00    +0.047 A 
ATOM     12  C   UNL     1      43.764  -6.036  43.779  0.00  0.00    +0.035 A 
ATOM     32  C   UNL     1      44.062  -6.904  44.870  0.00  0.00    +0.024 A 
ATOM     33  C   UNL     1      45.385  -7.447  45.054  0.00  0.00    +0.007 A 
ATOM     34  C   UNL     1      46.443  -7.125  44.139  0.00  0.00    -0.029 A 
ATOM     35  C   UNL     1      47.840  -7.742  44.382  0.00  0.00    +0.045 C 
ENDROOT
BRANCH  10   9
ATOM      4  C   UNL     1      49.465  -3.212  41.320  0.00  0.00    +0.077 A 
ATOM      5  C   UNL     1      49.192  -2.243  42.342  0.00  0.00    +0.048 A 
ATOM      6  C   UNL     1      48.183  -2.556  43.281  0.00  0.00    +0.116 A 
ATOM      7  N   UNL     1      47.505  -3.753  43.195  0.00  0.00    -0.223 NA
ATOM      8  C   UNL     1      47.792  -4.664  42.196  0.00  0.00    +0.220 A 
ATOM      9  N   UNL     1      47.128  -5.877  42.095  0.00  0.00    -0.283 N 
ATOM     36  H   UNL     1      47.364  -6.520  41.339  0.00  0.00    +0.155 HD
ATOM     37  N   UNL     1      48.750  -4.388  41.286  0.00  0.00    -0.214 NA
BRANCH   4   3
ATOM      1  C   UNL     1      51.487  -3.506  37.985  0.00  0.00    +0.020 A 
ATOM      2  C   UNL     1      50.459  -3.720  38.977  0.00  0.00    +0.013 A 
ATOM      3  C   UNL     1      50.504  -3.028  40.258  0.00  0.00    +0.019 A 
ATOM     38  C   UNL     1      51.612  -2.117  40.507  0.00  0.00    +0.120 A 
ATOM     39  N   UNL     1      52.589  -1.932  39.533  0.00  0.00    -0.263 NA
ATOM     40  C   UNL     1      52.556  -2.595  38.297  0.00  0.00    +0.111 A 
ENDBRANCH   4   3
ENDBRANCH  10   9
BRANCH  12  13
ATOM     13  N   UNL     1      42.416  -5.540  43.656  0.00  0.00    -0.281 N 
ATOM     14  C   UNL     1      41.305  -6.206  43.164  0.00  0.00    +0.248 C 
ATOM     30  O   UNL     1      41.347  -7.264  42.555  0.00  0.00    -0.270 OA
ATOM     31  H   UNL     1      42.262  -4.581  43.968  0.00  0.00    +0.155 HD
BRANCH  14  15
ATOM     15  C   UNL     1      39.953  -5.601  43.367  0.00  0.00    +0.037 A 
ATOM     16  C   UNL     1      39.747  -4.153  43.280  0.00  0.00    +0.013 A 
ATOM     17  C   UNL     1      38.436  -3.595  43.497  0.00  0.00    +0.005 A 
ATOM     18  C   UNL     1      37.319  -4.487  43.801  0.00  0.00    -0.033 A 
ATOM     28  C   UNL     1      37.551  -5.920  43.875  0.00  0.00    +0.005 A 
ATOM     29  C   UNL     1      38.835  -6.471  43.665  0.00  0.00    +0.013 A 
BRANCH  18  19
ATOM     19  C   UNL     1      35.890  -3.977  44.067  0.00  0.00    +0.119 C 
BRANCH  19  20
ATOM     20  N   UNL     1      35.657  -3.230  45.339  0.00  0.00    -0.302 NA
ATOM     21  C   UNL     1      35.994  -1.742  45.201  0.00  0.00    +0.066 C 
ATOM     22  C   UNL     1      35.722  -0.971  46.533  0.00  0.00    -0.064 C 
ATOM     23  N   UNL     1      36.535  -1.608  47.662  0.00  0.00    +0.379 N 
ATOM     24  C   UNL     1      36.327  -0.849  48.904  0.00  0.00    -0.096 C 
ATOM     25  H   UNL     1      37.613  -1.524  47.391  0.00  0.00    -0.082 HD
ATOM     26  C   UNL     1      36.208  -3.087  47.805  0.00  0.00    -0.064 C 
ATOM     27  C   UNL     1      36.453  -3.839  46.466  0.00  0.00    +0.066 C 
ENDBRANCH  19  20
ENDBRANCH  18  19
ENDBRANCH  14  15
ENDBRANCH  12  13
TORSDOF 6
ENDMDL
MODEL 2
REMARK VINA RESULT:      -8.6      9.244     19.726
REMARK  Name = C:\Users\Docking\Desktop\test protocol\1iep_ligandH.pdb
REMARK  8 active torsions:
REMARK  status: ('A' for Active; 'I' for Inactive)
REMARK    1  A    between atoms: _5  and  _11
REMARK    2  A    between atoms: _19  and  _21
REMARK    3  A    between atoms: _22  and  _66
REMARK    4  A    between atoms: _27  and  _30
REMARK    5  A    between atoms: _32  and  _33
REMARK    6  A    between atoms: _38  and  _43
REMARK    7  A    between atoms: _43  and  _46
REMARK    8  A    between atoms: _53  and  _55
REMARK                            x       y       z     vdW  Elec       q    Type
REMARK                         _______ _______ _______ _____ _____    ______ ____
ROOT
ATOM     10  C   UNL     1      54.957  -0.592  36.154  0.00  0.00    +0.038 A 
ATOM     11  C   UNL     1      56.129   0.050  36.627  0.00  0.00    +0.047 A 
ATOM     12  C   UNL     1      57.308   0.180  35.784  0.00  0.00    +0.035 A 
ATOM     32  C   UNL     1      57.256  -0.353  34.463  0.00  0.00    +0.024 A 
ATOM     33  C   UNL     1      56.073  -1.010  33.967  0.00  0.00    +0.007 A 
ATOM     34  C   UNL     1      54.908  -1.144  34.794  0.00  0.00    -0.029 A 
ATOM     35  C   UNL     1      53.669  -1.863  34.212  0.00  0.00    +0.045 C 
ENDROOT
BRANCH  10   9
ATOM      4  C   UNL     1      52.651  -2.536  39.888  0.00  0.00    +0.077 A 
ATOM      5  C   UNL     1      53.722  -3.454  40.147  0.00  0.00    +0.048 A 
ATOM      6  C   UNL     1      54.846  -3.399  39.292  0.00  0.00    +0.116 A 
ATOM      7  N   UNL     1      54.884  -2.488  38.258  0.00  0.00    -0.223 NA
ATOM      8  C   UNL     1      53.833  -1.618  38.034  0.00  0.00    +0.220 A 
ATOM      9  N   UNL     1      53.854  -0.689  37.005  0.00  0.00    -0.283 N 
ATOM     36  H   UNL     1      53.055  -0.070  36.869  0.00  0.00    +0.155 HD
ATOM     37  N   UNL     1      52.748  -1.653  38.836  0.00  0.00    -0.214 NA
BRANCH   4   3
ATOM      1  C   UNL     1      48.930  -2.864  41.051  0.00  0.00    +0.020 A 
ATOM      2  C   UNL     1      50.110  -2.950  40.221  0.00  0.00    +0.013 A 
ATOM      3  C   UNL     1      51.398  -2.471  40.705  0.00  0.00    +0.019 A 
ATOM     38  C   UNL     1      51.459  -1.905  42.044  0.00  0.00    +0.120 A 
ATOM     39  N   UNL     1      50.307  -1.834  42.820  0.00  0.00    -0.263 NA
ATOM     40  C   UNL     1      49.061  -2.291  42.364  0.00  0.00    +0.111 A 
ENDBRANCH   4   3
ENDBRANCH  10   9
BRANCH  12  13
ATOM     13  N   UNL     1      58.529   0.815  36.212  0.00  0.00    -0.281 N 
ATOM     14  C   UNL     1      58.674   1.883  37.083  0.00  0.00    +0.248 C 
ATOM     30  O   UNL     1      57.757   2.595  37.462  0.00  0.00    -0.270 OA
ATOM     31  H   UNL     1      59.392   0.431  35.827  0.00  0.00    +0.155 HD
BRANCH  14  15
ATOM     15  C   UNL     1      60.038   2.217  37.595  0.00  0.00    +0.037 A 
ATOM     16  C   UNL     1      61.193   2.281  36.696  0.00  0.00    +0.013 A 
ATOM     17  C   UNL     1      62.501   2.588  37.219  0.00  0.00    +0.005 A 
ATOM     18  C   UNL     1      62.660   2.835  38.650  0.00  0.00    -0.033 A 
ATOM     28  C   UNL     1      61.496   2.771  39.519  0.00  0.00    +0.005 A 
ATOM     29  C   UNL     1      60.213   2.469  39.010  0.00  0.00    +0.013 A 
BRANCH  18  19
ATOM     19  C   UNL     1      64.021   3.150  39.299  0.00  0.00    +0.119 C 
BRANCH  19  20
ATOM     20  N   UNL     1      65.050   2.067  39.288  0.00  0.00    -0.302 NA
ATOM     21  C   UNL     1      64.417   0.673  39.330  0.00  0.00    +0.066 C 
ATOM     22  C   UNL     1      65.506  -0.448  39.296  0.00  0.00    -0.064 C 
ATOM     23  N   UNL     1      66.470  -0.255  40.468  0.00  0.00    +0.379 N 
ATOM     24  C   UNL     1      67.461  -1.340  40.472  0.00  0.00    -0.096 C 
ATOM     25  H   UNL     1      65.878  -0.334  41.409  0.00  0.00    -0.082 HD
ATOM     26  C   UNL     1      67.102   1.130  40.435  0.00  0.00    -0.064 C 
ATOM     27  C   UNL     1      66.010   2.236  40.440  0.00  0.00    +0.066 C 
ENDBRANCH  19  20
ENDBRANCH  18  19
ENDBRANCH  14  15
ENDBRANCH  12  13
TORSDOF 6
ENDMDL
MODEL 3
REMARK VINA RESULT:      -8.4      4.671     12.382
REMARK  Name = C:\Users\Docking\Desktop\test protocol\1iep_ligandH.pdb
REMARK  8 active torsions:
REMARK  status: ('A' for Active; 'I' for Inactive)
REMARK    1  A    between atoms: _5  and  _11
REMARK    2  A    between atoms: _19  and  _21
REMARK    3  A    between atoms: _22  and  _66
REMARK    4  A    between atoms: _27  and  _30
REMARK    5  A    between atoms: _32  and  _33
REMARK    6  A    between atoms: _38  and  _43
REMARK    7  A    between atoms: _43  and  _46
REMARK    8  A    between atoms: _53  and  _55
REMARK                            x       y       z     vdW  Elec       q    Type
REMARK                         _______ _______ _______ _____ _____    ______ ____
ROOT
ATOM     10  C   UNL     1      41.691  -7.785  42.222  0.00  0.00    +0.038 A 
ATOM     11  C   UNL     1      42.923  -7.125  41.978  0.00  0.00    +0.047 A 
ATOM     12  C   UNL     1      43.126  -5.741  42.379  0.00  0.00    +0.035 A 
ATOM     32  C   UNL     1      42.055  -5.061  43.028  0.00  0.00    +0.024 A 
ATOM     33  C   UNL     1      40.797  -5.717  43.282  0.00  0.00    +0.007 A 
ATOM     34  C   UNL     1      40.589  -7.080  42.887  0.00  0.00    -0.029 A 
ATOM     35  C   UNL     1      39.217  -7.731  43.180  0.00  0.00    +0.045 C 
ENDROOT
BRANCH  10   9
ATOM      4  C   UNL     1      39.904 -11.155  39.308  0.00  0.00    +0.077 A 
ATOM      5  C   UNL     1      39.168 -10.188  38.545  0.00  0.00    +0.048 A 
ATOM      6  C   UNL     1      39.270  -8.835  38.940  0.00  0.00    +0.116 A 
ATOM      7  N   UNL     1      40.054  -8.486  40.018  0.00  0.00    -0.223 NA
ATOM      8  C   UNL     1      40.750  -9.444  40.734  0.00  0.00    +0.220 A 
ATOM      9  N   UNL     1      41.550  -9.114  41.817  0.00  0.00    -0.283 N 
ATOM     36  H   UNL     1      42.042  -9.851  42.323  0.00  0.00    +0.155 HD
ATOM     37  N   UNL     1      40.668 -10.742  40.378  0.00  0.00    -0.214 NA
BRANCH   4   3
ATOM      1  C   UNL     1      38.739 -14.845  38.741  0.00  0.00    +0.020 A 
ATOM      2  C   UNL     1      38.688 -13.432  39.035  0.00  0.00    +0.013 A 
ATOM      3  C   UNL     1      39.900 -12.622  39.013  0.00  0.00    +0.019 A 
ATOM     38  C   UNL     1      41.157 -13.279  38.687  0.00  0.00    +0.120 A 
ATOM     39  N   UNL     1      41.176 -14.643  38.411  0.00  0.00    -0.263 NA
ATOM     40  C   UNL     1      40.016 -15.432  38.430  0.00  0.00    +0.111 A 
ENDBRANCH   4   3
ENDBRANCH  10   9
BRANCH  12  13
ATOM     13  N   UNL     1      44.352  -5.016  42.150  0.00  0.00    -0.281 N 
ATOM     14  C   UNL     1      45.333  -4.690  43.073  0.00  0.00    +0.248 C 
ATOM     30  O   UNL     1      45.202  -4.787  44.284  0.00  0.00    -0.270 OA
ATOM     31  H   UNL     1      44.516  -4.706  41.193  0.00  0.00    +0.155 HD
BRANCH  14  15
ATOM     15  C   UNL     1      46.642  -4.165  42.579  0.00  0.00    +0.037 A 
ATOM     16  C   UNL     1      46.837  -2.738  42.311  0.00  0.00    +0.013 A 
ATOM     17  C   UNL     1      48.105  -2.261  41.819  0.00  0.00    +0.005 A 
ATOM     18  C   UNL     1      49.190  -3.214  41.593  0.00  0.00    -0.033 A 
ATOM     28  C   UNL     1      48.971  -4.623  41.872  0.00  0.00    +0.005 A 
ATOM     29  C   UNL     1      47.729  -5.094  42.354  0.00  0.00    +0.013 A 
BRANCH  18  19
ATOM     19  C   UNL     1      50.569  -2.797  41.050  0.00  0.00    +0.119 C 
BRANCH  19  20
ATOM     20  N   UNL     1      50.708  -2.659  39.569  0.00  0.00    -0.302 NA
ATOM     21  C   UNL     1      50.524  -3.997  38.848  0.00  0.00    +0.066 C 
ATOM     22  C   UNL     1      50.650  -3.831  37.298  0.00  0.00    -0.064 C 
ATOM     23  N   UNL     1      52.010  -3.217  36.963  0.00  0.00    +0.379 N 
ATOM     24  C   UNL     1      52.155  -3.113  35.504  0.00  0.00    -0.096 C 
ATOM     25  H   UNL     1      52.796  -3.917  37.332  0.00  0.00    -0.082 HD
ATOM     26  C   UNL     1      52.203  -1.888  37.678  0.00  0.00    -0.064 C 
ATOM     27  C   UNL     1      52.047  -2.059  39.215  0.00  0.00    +0.066 C 
ENDBRANCH  19  20
ENDBRANCH  18  19
ENDBRANCH  14  15
ENDBRANCH  12  13
TORSDOF 6
ENDMDL
MODEL 4
REMARK VINA RESULT:      -8.3      8.910     19.462
REMARK  Name = C:\Users\Docking\Desktop\test protocol\1iep_ligandH.pdb
REMARK  8 active torsions:
REMARK  status: ('A' for Active; 'I' for Inactive)
REMARK    1  A    between atoms: _5  and  _11
REMARK    2  A    between atoms: _19  and  _21
REMARK    3  A    between atoms: _22  and  _66
REMARK    4  A    between atoms: _27  and  _30
REMARK    5  A    between atoms: _32  and  _33
REMARK    6  A    between atoms: _38  and  _43
REMARK    7  A    between atoms: _43  and  _46
REMARK    8  A    between atoms: _53  and  _55
REMARK                            x       y       z     vdW  Elec       q    Type
REMARK                         _______ _______ _______ _____ _____    ______ ____
ROOT
ATOM     10  C   UNL     1      54.282  -1.029  35.807  0.00  0.00    +0.038 A 
ATOM     11  C   UNL     1      55.467  -0.328  36.149  0.00  0.00    +0.047 A 
ATOM     12  C   UNL     1      56.586  -0.245  35.224  0.00  0.00    +0.035 A 
ATOM     32  C   UNL     1      56.464  -0.887  33.957  0.00  0.00    +0.024 A 
ATOM     33  C   UNL     1      55.268  -1.605  33.593  0.00  0.00    +0.007 A 
ATOM     34  C   UNL     1      54.162  -1.692  34.503  0.00  0.00    -0.029 A 
ATOM     35  C   UNL     1      52.907  -2.481  34.063  0.00  0.00    +0.045 C 
ENDROOT
BRANCH  10   9
ATOM      4  C   UNL     1      52.372  -2.493  39.960  0.00  0.00    +0.077 A 
ATOM      5  C   UNL     1      53.542  -3.249  40.300  0.00  0.00    +0.048 A 
ATOM      6  C   UNL     1      54.611  -3.241  39.376  0.00  0.00    +0.116 A 
ATOM      7  N   UNL     1      54.506  -2.526  38.202  0.00  0.00    -0.223 NA
ATOM      8  C   UNL     1      53.363  -1.809  37.904  0.00  0.00    +0.220 A 
ATOM      9  N   UNL     1      53.238  -1.076  36.734  0.00  0.00    -0.283 N 
ATOM     36  H   UNL     1      52.375  -0.566  36.547  0.00  0.00    +0.155 HD
ATOM     37  N   UNL     1      52.327  -1.802  38.770  0.00  0.00    -0.214 NA
BRANCH   4   3
ATOM      1  C   UNL     1      50.017  -1.879  43.022  0.00  0.00    +0.020 A 
ATOM      2  C   UNL     1      51.217  -1.951  42.220  0.00  0.00    +0.013 A 
ATOM      3  C   UNL     1      51.161  -2.400  40.835  0.00  0.00    +0.019 A 
ATOM     38  C   UNL     1      49.865  -2.772  40.287  0.00  0.00    +0.120 A 
ATOM     39  N   UNL     1      48.727  -2.694  41.084  0.00  0.00    -0.263 NA
ATOM     40  C   UNL     1      48.769  -2.265  42.419  0.00  0.00    +0.111 A 
ENDBRANCH   4   3
ENDBRANCH  10   9
BRANCH  12  13
ATOM     13  N   UNL     1      57.816   0.446  35.519  0.00  0.00    -0.281 N 
ATOM     14  C   UNL     1      58.101   1.250  36.611  0.00  0.00    +0.248 C 
ATOM     30  O   UNL     1      57.264   1.672  37.395  0.00  0.00    -0.270 OA
ATOM     31  H   UNL     1      58.569   0.329  34.841  0.00  0.00    +0.155 HD
BRANCH  14  15
ATOM     15  C   UNL     1      59.518   1.657  36.858  0.00  0.00    +0.037 A 
ATOM     16  C   UNL     1      59.865   2.577  37.944  0.00  0.00    +0.013 A 
ATOM     17  C   UNL     1      61.238   2.967  38.150  0.00  0.00    +0.005 A 
ATOM     18  C   UNL     1      62.274   2.434  37.268  0.00  0.00    -0.033 A 
ATOM     28  C   UNL     1      61.901   1.519  36.202  0.00  0.00    +0.005 A 
ATOM     29  C   UNL     1      60.557   1.136  35.996  0.00  0.00    +0.013 A 
BRANCH  18  19
ATOM     19  C   UNL     1      63.761   2.812  37.401  0.00  0.00    +0.119 C 
BRANCH  19  20
ATOM     20  N   UNL     1      64.248   3.202  38.758  0.00  0.00    -0.302 NA
ATOM     21  C   UNL     1      65.485   4.102  38.687  0.00  0.00    +0.066 C 
ATOM     22  C   UNL     1      65.969   4.518  40.115  0.00  0.00    -0.064 C 
ATOM     23  N   UNL     1      66.259   3.263  40.939  0.00  0.00    +0.379 N 
ATOM     24  C   UNL     1      66.768   3.651  42.262  0.00  0.00    -0.096 C 
ATOM     25  H   UNL     1      67.065   2.696  40.418  0.00  0.00    -0.082 HD
ATOM     26  C   UNL     1      65.035   2.361  41.012  0.00  0.00    -0.064 C 
ATOM     27  C   UNL     1      64.545   1.977  39.588  0.00  0.00    +0.066 C 
ENDBRANCH  19  20
ENDBRANCH  18  19
ENDBRANCH  14  15
ENDBRANCH  12  13
TORSDOF 6
ENDMDL
MODEL 5
REMARK VINA RESULT:      -7.8     11.375     15.520
REMARK  Name = C:\Users\Docking\Desktop\test protocol\1iep_ligandH.pdb
REMARK  8 active torsions:
REMARK  status: ('A' for Active; 'I' for Inactive)
REMARK    1  A    between atoms: _5  and  _11
REMARK    2  A    between atoms: _19  and  _21
REMARK    3  A    between atoms: _22  and  _66
REMARK    4  A    between atoms: _27  and  _30
REMARK    5  A    between atoms: _32  and  _33
REMARK    6  A    between atoms: _38  and  _43
REMARK    7  A    between atoms: _43  and  _46
REMARK    8  A    between atoms: _53  and  _55
REMARK                            x       y       z     vdW  Elec       q    Type
REMARK                         _______ _______ _______ _____ _____    ______ ____
ROOT
ATOM     10  C   UNL     1      53.917  -3.532  39.728  0.00  0.00    +0.038 A 
ATOM     11  C   UNL     1      53.492  -3.434  38.379  0.00  0.00    +0.047 A 
ATOM     12  C   UNL     1      52.209  -2.840  38.034  0.00  0.00    +0.035 A 
ATOM     32  C   UNL     1      51.386  -2.352  39.091  0.00  0.00    +0.024 A 
ATOM     33  C   UNL     1      51.801  -2.444  40.468  0.00  0.00    +0.007 A 
ATOM     34  C   UNL     1      53.064  -3.032  40.814  0.00  0.00    -0.029 A 
ATOM     35  C   UNL     1      53.456  -3.110  42.308  0.00  0.00    +0.045 C 
ENDROOT
BRANCH  10   9
ATOM      4  C   UNL     1      57.499  -6.552  38.686  0.00  0.00    +0.077 A 
ATOM      5  C   UNL     1      56.829  -7.035  37.513  0.00  0.00    +0.048 A 
ATOM      6  C   UNL     1      55.562  -6.485  37.217  0.00  0.00    +0.116 A 
ATOM      7  N   UNL     1      55.014  -5.525  38.039  0.00  0.00    -0.223 NA
ATOM      8  C   UNL     1      55.686  -5.082  39.164  0.00  0.00    +0.220 A 
ATOM      9  N   UNL     1      55.157  -4.112  40.001  0.00  0.00    -0.283 N 
ATOM     36  H   UNL     1      55.681  -3.818  40.826  0.00  0.00    +0.155 HD
ATOM     37  N   UNL     1      56.897  -5.593  39.470  0.00  0.00    -0.214 NA
BRANCH   4   3
ATOM      1  C   UNL     1      61.003  -8.287  38.767  0.00  0.00    +0.020 A 
ATOM      2  C   UNL     1      59.712  -7.849  38.290  0.00  0.00    +0.013 A 
ATOM      3  C   UNL     1      58.845  -7.033  39.131  0.00  0.00    +0.019 A 
ATOM     38  C   UNL     1      59.320  -6.673  40.458  0.00  0.00    +0.120 A 
ATOM     39  N   UNL     1      60.568  -7.110  40.891  0.00  0.00    -0.263 NA
ATOM     40  C   UNL     1      61.409  -7.898  40.091  0.00  0.00    +0.111 A 
ENDBRANCH   4   3
ENDBRANCH  10   9
BRANCH  12  13
ATOM     13  N   UNL     1      51.722  -2.721  36.683  0.00  0.00    -0.281 N 
ATOM     14  C   UNL     1      51.964  -1.701  35.777  0.00  0.00    +0.248 C 
ATOM     30  O   UNL     1      52.467  -0.625  36.065  0.00  0.00    -0.270 OA
ATOM     31  H   UNL     1      51.125  -3.480  36.354  0.00  0.00    +0.155 HD
BRANCH  14  15
ATOM     15  C   UNL     1      51.579  -1.900  34.346  0.00  0.00    +0.037 A 
ATOM     16  C   UNL     1      51.279  -0.761  33.474  0.00  0.00    +0.013 A 
ATOM     17  C   UNL     1      50.894  -0.982  32.103  0.00  0.00    +0.005 A 
ATOM     18  C   UNL     1      50.807  -2.349  31.595  0.00  0.00    -0.033 A 
ATOM     28  C   UNL     1      51.115  -3.460  32.480  0.00  0.00    +0.005 A 
ATOM     29  C   UNL     1      51.492  -3.248  33.825  0.00  0.00    +0.013 A 
BRANCH  18  19
ATOM     19  C   UNL     1      50.384  -2.679  30.151  0.00  0.00    +0.119 C 
BRANCH  19  20
ATOM     20  N   UNL     1      51.467  -3.024  29.183  0.00  0.00    -0.302 NA
ATOM     21  C   UNL     1      51.460  -2.102  27.960  0.00  0.00    +0.066 C 
ATOM     22  C   UNL     1      52.613  -2.463  26.968  0.00  0.00    -0.064 C 
ATOM     23  N   UNL     1      52.478  -3.927  26.544  0.00  0.00    +0.379 N 
ATOM     24  C   UNL     1      53.527  -4.253  25.567  0.00  0.00    -0.096 C 
ATOM     25  H   UNL     1      51.493  -4.041  26.034  0.00  0.00    -0.082 HD
ATOM     26  C   UNL     1      52.482  -4.850  27.754  0.00  0.00    -0.064 C 
ATOM     27  C   UNL     1      51.351  -4.464  28.747  0.00  0.00    +0.066 C 
ENDBRANCH  19  20
ENDBRANCH  18  19
ENDBRANCH  14  15
ENDBRANCH  12  13
TORSDOF 6
ENDMDL
