MODEL 1
REMARK VINA RESULT:      -8.6      0.000      0.000
REMARK  Name = C:\Users\Docking\Desktop\test protocol\1iep_ligandH.pdb
REMARK  8 active torsions:
REMARK  status: ('A' for Active; 'I' for Inactive)
REMARK    1  A    between atoms: _5  and  _11
REMARK    2  A    between atoms: _19  and  _21
REMARK    3  A    between atoms: _22  and  _66
REMARK    4  A    between atoms: _27  and  _30
REMARK    5  A    between atoms: _32  and  _33
REMARK    6  A    between atoms: _38  and  _43
REMARK    7  A    between atoms: _43  and  _46
REMARK    8  A    between atoms: _53  and  _55
REMARK                            x       y       z     vdW  Elec       q    Type
REMARK                         _______ _______ _______ _____ _____    ______ ____
ROOT
ATOM     10  C   UNL     1      14.013  -7.597  22.016  0.00  0.00    +0.038 A 
ATOM     11  C   UNL     1      14.259  -6.280  21.550  0.00  0.00    +0.047 A 
ATOM     12  C   UNL     1      13.508  -5.723  20.436  0.00  0.00    +0.035 A 
ATOM     32  C   UNL     1      12.510  -6.534  19.821  0.00  0.00    +0.024 A 
ATOM     33  C   UNL     1      12.247  -7.875  20.281  0.00  0.00    +0.007 A 
ATOM     34  C   UNL     1      12.987  -8.431  21.378  0.00  0.00    -0.029 A 
ATOM     35  C   UNL     1      12.667  -9.876  21.825  0.00  0.00    +0.045 C 
ENDROOT
BRANCH  10   9
ATOM      4  C   UNL     1      17.851  -9.840  23.824  0.00  0.00    +0.077 A 
ATOM      5  C   UNL     1      18.393 -10.092  22.520  0.00  0.00    +0.048 A 
ATOM      6  C   UNL     1      17.649  -9.634  21.409  0.00  0.00    +0.116 A 
ATOM      7  N   UNL     1      16.454  -8.974  21.601  0.00  0.00    -0.223 NA
ATOM      8  C   UNL     1      15.959  -8.749  22.872  0.00  0.00    +0.220 A 
ATOM      9  N   UNL     1      14.764  -8.081  23.089  0.00  0.00    -0.283 N 
ATOM     36  H   UNL     1      14.430  -7.942  24.042  0.00  0.00    +0.155 HD
ATOM     37  N   UNL     1      16.650  -9.178  23.949  0.00  0.00    -0.214 NA
BRANCH   4   3
ATOM      1  C   UNL     1      20.566 -10.668  26.516  0.00  0.00    +0.020 A 
ATOM      2  C   UNL     1      19.969 -10.254  25.267  0.00  0.00    +0.013 A 
ATOM      3  C   UNL     1      18.521 -10.260  25.096  0.00  0.00    +0.019 A 
ATOM     38  C   UNL     1      17.700 -10.692  26.216  0.00  0.00    +0.120 A 
ATOM     39  N   UNL     1      18.303 -11.087  27.406  0.00  0.00    -0.263 NA
ATOM     40  C   UNL     1      19.695 -11.088  27.583  0.00  0.00    +0.111 A 
ENDBRANCH   4   3
ENDBRANCH  10   9
BRANCH  12  13
ATOM     13  N   UNL     1      13.719  -4.395  19.915  0.00  0.00    -0.281 N 
ATOM     14  C   UNL     1      12.941  -3.267  20.116  0.00  0.00    +0.248 C 
ATOM     30  O   UNL     1      11.821  -3.278  20.604  0.00  0.00    -0.270 OA
ATOM     31  H   UNL     1      14.543  -4.272  19.325  0.00  0.00    +0.155 HD
BRANCH  14  15
ATOM     15  C   UNL     1      13.479  -1.935  19.702  0.00  0.00    +0.037 A 
ATOM     16  C   UNL     1      13.344  -1.457  18.324  0.00  0.00    +0.013 A 
ATOM     17  C   UNL     1      13.887  -0.176  17.946  0.00  0.00    +0.005 A 
ATOM     18  C   UNL     1      14.570   0.637  18.951  0.00  0.00    -0.033 A 
ATOM     28  C   UNL     1      14.685   0.140  20.312  0.00  0.00    +0.005 A 
ATOM     29  C   UNL     1      14.155  -1.116  20.685  0.00  0.00    +0.013 A 
BRANCH  18  19
ATOM     19  C   UNL     1      15.198   2.006  18.633  0.00  0.00    +0.119 C 
BRANCH  19  20
ATOM     20  N   UNL     1      14.630   2.769  17.481  0.00  0.00    -0.302 NA
ATOM     21  C   UNL     1      15.369   2.471  16.174  0.00  0.00    +0.066 C 
ATOM     22  C   UNL     1      14.747   3.259  14.976  0.00  0.00    -0.064 C 
ATOM     23  N   UNL     1      14.775   4.757  15.285  0.00  0.00    +0.379 N 
ATOM     24  C   UNL     1      14.244   5.505  14.136  0.00  0.00    -0.096 C 
ATOM     25  H   UNL     1      15.842   5.054  15.419  0.00  0.00    -0.082 HD
ATOM     26  C   UNL     1      14.045   5.062  16.585  0.00  0.00    -0.064 C 
ATOM     27  C   UNL     1      14.652   4.251  17.763  0.00  0.00    +0.066 C 
ENDBRANCH  19  20
ENDBRANCH  18  19
ENDBRANCH  14  15
ENDBRANCH  12  13
TORSDOF 6
ENDMDL
MODEL 2
REMARK VINA RESULT:      -8.5      2.182      3.022
REMARK  Name = C:\Users\Docking\Desktop\test protocol\1iep_ligandH.pdb
REMARK  8 active torsions:
REMARK  status: ('A' for Active; 'I' for Inactive)
REMARK    1  A    between atoms: _5  and  _11
REMARK    2  A    between atoms: _19  and  _21
REMARK    3  A    between atoms: _22  and  _66
REMARK    4  A    between atoms: _27  and  _30
REMARK    5  A    between atoms: _32  and  _33
REMARK    6  A    between atoms: _38  and  _43
REMARK    7  A    between atoms: _43  and  _46
REMARK    8  A    between atoms: _53  and  _55
REMARK                            x       y       z     vdW  Elec       q    Type
REMARK                         _______ _______ _______ _____ _____    ______ ____
ROOT
ATOM     10  C   UNL     1      13.954  -7.794  20.631  0.00  0.00    +0.038 A 
ATOM     11  C   UNL     1      14.025  -6.382  20.518  0.00  0.00    +0.047 A 
ATOM     12  C   UNL     1      13.876  -5.722  19.230  0.00  0.00    +0.035 A 
ATOM     32  C   UNL     1      13.653  -6.531  18.078  0.00  0.00    +0.024 A 
ATOM     33  C   UNL     1      13.579  -7.967  18.174  0.00  0.00    +0.007 A 
ATOM     34  C   UNL     1      13.728  -8.625  19.441  0.00  0.00    -0.029 A 
ATOM     35  C   UNL     1      13.647 -10.168  19.484  0.00  0.00    +0.045 C 
ENDROOT
BRANCH  10   9
ATOM      4  C   UNL     1      16.612  -9.881  24.040  0.00  0.00    +0.077 A 
ATOM      5  C   UNL     1      17.795  -9.833  23.230  0.00  0.00    +0.048 A 
ATOM      6  C   UNL     1      17.675  -9.270  21.940  0.00  0.00    +0.116 A 
ATOM      7  N   UNL     1      16.459  -8.793  21.502  0.00  0.00    -0.223 NA
ATOM      8  C   UNL     1      15.337  -8.856  22.308  0.00  0.00    +0.220 A 
ATOM      9  N   UNL     1      14.105  -8.376  21.892  0.00  0.00    -0.283 N 
ATOM     36  H   UNL     1      13.299  -8.447  22.513  0.00  0.00    +0.155 HD
ATOM     37  N   UNL     1      15.424  -9.390  23.544  0.00  0.00    -0.214 NA
BRANCH   4   3
ATOM      1  C   UNL     1      15.683 -10.527  27.784  0.00  0.00    +0.020 A 
ATOM      2  C   UNL     1      15.676  -9.949  26.460  0.00  0.00    +0.013 A 
ATOM      3  C   UNL     1      16.578 -10.443  25.427  0.00  0.00    +0.019 A 
ATOM     38  C   UNL     1      17.481 -11.531  25.769  0.00  0.00    +0.120 A 
ATOM     39  N   UNL     1      17.467 -12.067  27.053  0.00  0.00    -0.263 NA
ATOM     40  C   UNL     1      16.604 -11.599  28.056  0.00  0.00    +0.111 A 
ENDBRANCH   4   3
ENDBRANCH  10   9
BRANCH  12  13
ATOM     13  N   UNL     1      13.946  -4.293  19.053  0.00  0.00    -0.281 N 
ATOM     14  C   UNL     1      13.107  -3.326  19.583  0.00  0.00    +0.248 C 
ATOM     30  O   UNL     1      12.035  -3.562  20.121  0.00  0.00    -0.270 OA
ATOM     31  H   UNL     1      14.707  -3.952  18.465  0.00  0.00    +0.155 HD
BRANCH  14  15
ATOM     15  C   UNL     1      13.510  -1.890  19.490  0.00  0.00    +0.037 A 
ATOM     16  C   UNL     1      13.402  -1.151  18.230  0.00  0.00    +0.013 A 
ATOM     17  C   UNL     1      13.814   0.229  18.164  0.00  0.00    +0.005 A 
ATOM     18  C   UNL     1      14.336   0.879  19.364  0.00  0.00    -0.033 A 
ATOM     28  C   UNL     1      14.427   0.123  20.602  0.00  0.00    +0.005 A 
ATOM     29  C   UNL     1      14.025  -1.229  20.671  0.00  0.00    +0.013 A 
BRANCH  18  19
ATOM     19  C   UNL     1      14.819   2.342  19.380  0.00  0.00    +0.119 C 
BRANCH  19  20
ATOM     20  N   UNL     1      16.257   2.584  19.699  0.00  0.00    -0.302 NA
ATOM     21  C   UNL     1      16.458   3.021  21.153  0.00  0.00    +0.066 C 
ATOM     22  C   UNL     1      17.971   3.247  21.475  0.00  0.00    -0.064 C 
ATOM     23  N   UNL     1      18.544   4.289  20.512  0.00  0.00    +0.379 N 
ATOM     24  C   UNL     1      19.952   4.547  20.850  0.00  0.00    -0.096 C 
ATOM     25  H   UNL     1      17.980   5.238  20.666  0.00  0.00    -0.082 HD
ATOM     26  C   UNL     1      18.347   3.863  19.064  0.00  0.00    -0.064 C 
ATOM     27  C   UNL     1      16.843   3.612  18.763  0.00  0.00    +0.066 C 
ENDBRANCH  19  20
ENDBRANCH  18  19
ENDBRANCH  14  15
ENDBRANCH  12  13
TORSDOF 6
ENDMDL
MODEL 3
REMARK VINA RESULT:      -8.3      1.246      1.875
REMARK  Name = C:\Users\Docking\Desktop\test protocol\1iep_ligandH.pdb
REMARK  8 active torsions:
REMARK  status: ('A' for Active; 'I' for Inactive)
REMARK    1  A    between atoms: _5  and  _11
REMARK    2  A    between atoms: _19  and  _21
REMARK    3  A    between atoms: _22  and  _66
REMARK    4  A    between atoms: _27  and  _30
REMARK    5  A    between atoms: _32  and  _33
REMARK    6  A    between atoms: _38  and  _43
REMARK    7  A    between atoms: _43  and  _46
REMARK    8  A    between atoms: _53  and  _55
REMARK                            x       y       z     vdW  Elec       q    Type
REMARK                         _______ _______ _______ _____ _____    ______ ____
ROOT
ATOM     10  C   UNL     1      13.908  -7.787  20.590  0.00  0.00    +0.038 A 
ATOM     11  C   UNL     1      13.985  -6.376  20.461  0.00  0.00    +0.047 A 
ATOM     12  C   UNL     1      13.833  -5.730  19.167  0.00  0.00    +0.035 A 
ATOM     32  C   UNL     1      13.602  -6.550  18.025  0.00  0.00    +0.024 A 
ATOM     33  C   UNL     1      13.523  -7.985  18.137  0.00  0.00    +0.007 A 
ATOM     34  C   UNL     1      13.674  -8.629  19.411  0.00  0.00    -0.029 A 
ATOM     35  C   UNL     1      13.585 -10.172  19.471  0.00  0.00    +0.045 C 
ENDROOT
BRANCH  10   9
ATOM      4  C   UNL     1      16.547  -9.932  23.977  0.00  0.00    +0.077 A 
ATOM      5  C   UNL     1      17.714  -9.946  23.142  0.00  0.00    +0.048 A 
ATOM      6  C   UNL     1      17.591  -9.398  21.846  0.00  0.00    +0.116 A 
ATOM      7  N   UNL     1      16.386  -8.877  21.426  0.00  0.00    -0.223 NA
ATOM      8  C   UNL     1      15.280  -8.881  22.255  0.00  0.00    +0.220 A 
ATOM      9  N   UNL     1      14.061  -8.355  21.857  0.00  0.00    -0.283 N 
ATOM     36  H   UNL     1      13.266  -8.383  22.495  0.00  0.00    +0.155 HD
ATOM     37  N   UNL     1      15.371  -9.399  23.498  0.00  0.00    -0.214 NA
BRANCH   4   3
ATOM      1  C   UNL     1      15.318 -11.401  27.388  0.00  0.00    +0.020 A 
ATOM      2  C   UNL     1      15.290 -10.886  26.038  0.00  0.00    +0.013 A 
ATOM      3  C   UNL     1      16.519 -10.471  25.373  0.00  0.00    +0.019 A 
ATOM     38  C   UNL     1      17.770 -10.591  26.108  0.00  0.00    +0.120 A 
ATOM     39  N   UNL     1      17.766 -11.089  27.407  0.00  0.00    -0.263 NA
ATOM     40  C   UNL     1      16.589 -11.490  28.057  0.00  0.00    +0.111 A 
ENDBRANCH   4   3
ENDBRANCH  10   9
BRANCH  12  13
ATOM     13  N   UNL     1      13.910  -4.303  18.974  0.00  0.00    -0.281 N 
ATOM     14  C   UNL     1      13.116  -3.322  19.546  0.00  0.00    +0.248 C 
ATOM     30  O   UNL     1      12.076  -3.540  20.151  0.00  0.00    -0.270 OA
ATOM     31  H   UNL     1      14.637  -3.976  18.338  0.00  0.00    +0.155 HD
BRANCH  14  15
ATOM     15  C   UNL     1      13.530  -1.892  19.417  0.00  0.00    +0.037 A 
ATOM     16  C   UNL     1      14.198  -1.192  20.517  0.00  0.00    +0.013 A 
ATOM     17  C   UNL     1      14.572   0.193  20.372  0.00  0.00    +0.005 A 
ATOM     18  C   UNL     1      14.277   0.887  19.120  0.00  0.00    -0.033 A 
ATOM     28  C   UNL     1      13.618   0.167  18.043  0.00  0.00    +0.005 A 
ATOM     29  C   UNL     1      13.250  -1.190  18.182  0.00  0.00    +0.013 A 
BRANCH  18  19
ATOM     19  C   UNL     1      14.621   2.370  18.885  0.00  0.00    +0.119 C 
BRANCH  19  20
ATOM     20  N   UNL     1      14.249   2.956  17.563  0.00  0.00    -0.302 NA
ATOM     21  C   UNL     1      15.375   2.815  16.535  0.00  0.00    +0.066 C 
ATOM     22  C   UNL     1      14.961   3.414  15.151  0.00  0.00    -0.064 C 
ATOM     23  N   UNL     1      14.572   4.883  15.330  0.00  0.00    +0.379 N 
ATOM     24  C   UNL     1      14.237   5.464  14.022  0.00  0.00    -0.096 C 
ATOM     25  H   UNL     1      15.464   5.423  15.723  0.00  0.00    -0.082 HD
ATOM     26  C   UNL     1      13.454   5.032  16.353  0.00  0.00    -0.064 C 
ATOM     27  C   UNL     1      13.865   4.408  17.716  0.00  0.00    +0.066 C 
ENDBRANCH  19  20
ENDBRANCH  18  19
ENDBRANCH  14  15
ENDBRANCH  12  13
TORSDOF 6
ENDMDL
MODEL 4
REMARK VINA RESULT:      -8.2      2.250     13.553
REMARK  Name = C:\Users\Docking\Desktop\test protocol\1iep_ligandH.pdb
REMARK  8 active torsions:
REMARK  status: ('A' for Active; 'I' for Inactive)
REMARK    1  A    between atoms: _5  and  _11
REMARK    2  A    between atoms: _19  and  _21
REMARK    3  A    between atoms: _22  and  _66
REMARK    4  A    between atoms: _27  and  _30
REMARK    5  A    between atoms: _32  and  _33
REMARK    6  A    between atoms: _38  and  _43
REMARK    7  A    between atoms: _43  and  _46
REMARK    8  A    between atoms: _53  and  _55
REMARK                            x       y       z     vdW  Elec       q    Type
REMARK                         _______ _______ _______ _____ _____    ______ ____
ROOT
ATOM     10  C   UNL     1      12.480   1.769  19.307  0.00  0.00    +0.038 A 
ATOM     11  C   UNL     1      12.342   0.366  19.146  0.00  0.00    +0.047 A 
ATOM     12  C   UNL     1      12.491  -0.540  20.274  0.00  0.00    +0.035 A 
ATOM     32  C   UNL     1      12.778   0.018  21.554  0.00  0.00    +0.024 A 
ATOM     33  C   UNL     1      12.922   1.441  21.736  0.00  0.00    +0.007 A 
ATOM     34  C   UNL     1      12.779   2.339  20.626  0.00  0.00    -0.029 A 
ATOM     35  C   UNL     1      12.950   3.855  20.879  0.00  0.00    +0.045 C 
ENDROOT
BRANCH  10   9
ATOM      4  C   UNL     1      14.082   3.679  15.206  0.00  0.00    +0.077 A 
ATOM      5  C   UNL     1      15.341   3.000  15.313  0.00  0.00    +0.048 A 
ATOM      6  C   UNL     1      15.539   2.175  16.442  0.00  0.00    +0.116 A 
ATOM      7  N   UNL     1      14.545   2.044  17.387  0.00  0.00    -0.223 NA
ATOM      8  C   UNL     1      13.343   2.714  17.255  0.00  0.00    +0.220 A 
ATOM      9  N   UNL     1      12.326   2.592  18.189  0.00  0.00    -0.283 N 
ATOM     36  H   UNL     1      11.457   3.108  18.059  0.00  0.00    +0.155 HD
ATOM     37  N   UNL     1      13.129   3.510  16.186  0.00  0.00    -0.214 NA
BRANCH   4   3
ATOM      1  C   UNL     1      13.363   5.061  11.618  0.00  0.00    +0.020 A 
ATOM      2  C   UNL     1      13.720   4.147  12.678  0.00  0.00    +0.013 A 
ATOM      3  C   UNL     1      13.720   4.584  14.069  0.00  0.00    +0.019 A 
ATOM     38  C   UNL     1      13.351   5.962  14.355  0.00  0.00    +0.120 A 
ATOM     39  N   UNL     1      13.013   6.819  13.313  0.00  0.00    -0.263 NA
ATOM     40  C   UNL     1      13.011   6.411  11.971  0.00  0.00    +0.111 A 
ENDBRANCH   4   3
ENDBRANCH  10   9
BRANCH  12  13
ATOM     13  N   UNL     1      12.371  -1.973  20.169  0.00  0.00    -0.281 N 
ATOM     14  C   UNL     1      13.051  -2.824  19.314  0.00  0.00    +0.248 C 
ATOM     30  O   UNL     1      13.715  -2.456  18.356  0.00  0.00    -0.270 OA
ATOM     31  H   UNL     1      11.703  -2.413  20.802  0.00  0.00    +0.155 HD
BRANCH  14  15
ATOM     15  C   UNL     1      12.970  -4.298  19.548  0.00  0.00    +0.037 A 
ATOM     16  C   UNL     1      12.154  -4.852  20.631  0.00  0.00    +0.013 A 
ATOM     17  C   UNL     1      12.107  -6.277  20.846  0.00  0.00    +0.005 A 
ATOM     18  C   UNL     1      12.878  -7.158  19.972  0.00  0.00    -0.033 A 
ATOM     28  C   UNL     1      13.675  -6.582  18.901  0.00  0.00    +0.005 A 
ATOM     29  C   UNL     1      13.724  -5.186  18.689  0.00  0.00    +0.013 A 
BRANCH  18  19
ATOM     19  C   UNL     1      12.904  -8.689  20.140  0.00  0.00    +0.119 C 
BRANCH  19  20
ATOM     20  N   UNL     1      13.845  -9.249  21.155  0.00  0.00    -0.302 NA
ATOM     21  C   UNL     1      13.272  -9.174  22.573  0.00  0.00    +0.066 C 
ATOM     22  C   UNL     1      14.261  -9.785  23.619  0.00  0.00    -0.064 C 
ATOM     23  N   UNL     1      15.602  -9.054  23.538  0.00  0.00    +0.379 N 
ATOM     24  C   UNL     1      16.514  -9.588  24.559  0.00  0.00    -0.096 C 
ATOM     25  H   UNL     1      15.417  -7.981  23.776  0.00  0.00    -0.082 HD
ATOM     26  C   UNL     1      16.177  -9.122  22.130  0.00  0.00    -0.064 C 
ATOM     27  C   UNL     1      15.175  -8.539  21.095  0.00  0.00    +0.066 C 
ENDBRANCH  19  20
ENDBRANCH  18  19
ENDBRANCH  14  15
ENDBRANCH  12  13
TORSDOF 6
ENDMDL
MODEL 5
REMARK VINA RESULT:      -8.1      1.808      2.637
REMARK  Name = C:\Users\Docking\Desktop\test protocol\1iep_ligandH.pdb
REMARK  8 active torsions:
REMARK  status: ('A' for Active; 'I' for Inactive)
REMARK    1  A    between atoms: _5  and  _11
REMARK    2  A    between atoms: _19  and  _21
REMARK    3  A    between atoms: _22  and  _66
REMARK    4  A    between atoms: _27  and  _30
REMARK    5  A    between atoms: _32  and  _33
REMARK    6  A    between atoms: _38  and  _43
REMARK    7  A    between atoms: _43  and  _46
REMARK    8  A    between atoms: _53  and  _55
REMARK                            x       y       z     vdW  Elec       q    Type
REMARK                         _______ _______ _______ _____ _____    ______ ____
ROOT
ATOM     10  C   UNL     1      13.894  -7.646  22.217  0.00  0.00    +0.038 A 
ATOM     11  C   UNL     1      14.143  -6.322  21.773  0.00  0.00    +0.047 A 
ATOM     12  C   UNL     1      13.372  -5.733  20.690  0.00  0.00    +0.035 A 
ATOM     32  C   UNL     1      12.351  -6.521  20.082  0.00  0.00    +0.024 A 
ATOM     33  C   UNL     1      12.085  -7.869  20.519  0.00  0.00    +0.007 A 
ATOM     34  C   UNL     1      12.845  -8.455  21.586  0.00  0.00    -0.029 A 
ATOM     35  C   UNL     1      12.521  -9.907  22.009  0.00  0.00    +0.045 C 
ENDROOT
BRANCH  10   9
ATOM      4  C   UNL     1      17.780  -9.912  23.890  0.00  0.00    +0.077 A 
ATOM      5  C   UNL     1      18.306 -10.110  22.570  0.00  0.00    +0.048 A 
ATOM      6  C   UNL     1      17.542  -9.620  21.487  0.00  0.00    +0.116 A 
ATOM      7  N   UNL     1      16.343  -8.981  21.719  0.00  0.00    -0.223 NA
ATOM      8  C   UNL     1      15.864  -8.808  23.004  0.00  0.00    +0.220 A 
ATOM      9  N   UNL     1      14.665  -8.161  23.261  0.00  0.00    -0.283 N 
ATOM     36  H   UNL     1      14.343  -8.060  24.223  0.00  0.00    +0.155 HD
ATOM     37  N   UNL     1      16.574  -9.268  24.055  0.00  0.00    -0.214 NA
BRANCH   4   3
ATOM      1  C   UNL     1      18.532 -11.601  27.337  0.00  0.00    +0.020 A 
ATOM      2  C   UNL     1      17.819 -11.185  26.151  0.00  0.00    +0.013 A 
ATOM      3  C   UNL     1      18.473 -10.370  25.136  0.00  0.00    +0.019 A 
ATOM     38  C   UNL     1      19.861  -9.990  25.352  0.00  0.00    +0.120 A 
ATOM     39  N   UNL     1      20.522 -10.404  26.504  0.00  0.00    -0.263 NA
ATOM     40  C   UNL     1      19.902 -11.188  27.489  0.00  0.00    +0.111 A 
ENDBRANCH   4   3
ENDBRANCH  10   9
BRANCH  12  13
ATOM     13  N   UNL     1      13.585  -4.397  20.192  0.00  0.00    -0.281 N 
ATOM     14  C   UNL     1      12.712  -3.322  20.236  0.00  0.00    +0.248 C 
ATOM     30  O   UNL     1      11.527  -3.406  20.521  0.00  0.00    -0.270 OA
ATOM     31  H   UNL     1      14.490  -4.222  19.754  0.00  0.00    +0.155 HD
BRANCH  14  15
ATOM     15  C   UNL     1      13.227  -1.959  19.901  0.00  0.00    +0.037 A 
ATOM     16  C   UNL     1      13.986  -1.715  18.671  0.00  0.00    +0.013 A 
ATOM     17  C   UNL     1      14.486  -0.395  18.380  0.00  0.00    +0.005 A 
ATOM     18  C   UNL     1      14.226   0.693  19.321  0.00  0.00    -0.033 A 
ATOM     28  C   UNL     1      13.466   0.423  20.530  0.00  0.00    +0.005 A 
ATOM     29  C   UNL     1      12.976  -0.870  20.819  0.00  0.00    +0.013 A 
BRANCH  18  19
ATOM     19  C   UNL     1      14.739   2.128  19.102  0.00  0.00    +0.119 C 
BRANCH  19  20
ATOM     20  N   UNL     1      16.166   2.404  19.445  0.00  0.00    -0.302 NA
ATOM     21  C   UNL     1      16.367   2.607  20.949  0.00  0.00    +0.066 C 
ATOM     22  C   UNL     1      17.869   2.872  21.293  0.00  0.00    -0.064 C 
ATOM     23  N   UNL     1      18.360   4.092  20.512  0.00  0.00    +0.379 N 
ATOM     24  C   UNL     1      19.755   4.379  20.876  0.00  0.00    -0.096 C 
ATOM     25  H   UNL     1      17.742   4.965  20.825  0.00  0.00    -0.082 HD
ATOM     26  C   UNL     1      18.162   3.900  19.015  0.00  0.00    -0.064 C 
ATOM     27  C   UNL     1      16.671   3.608  18.687  0.00  0.00    +0.066 C 
ENDBRANCH  19  20
ENDBRANCH  18  19
ENDBRANCH  14  15
ENDBRANCH  12  13
TORSDOF 6
ENDMDL
