MODEL 1
REMARK VINA RESULT:     -10.6      0.000      0.000
REMARK  Name = C:\Users\Docking\Desktop\test protocol\1iep_ligandH.pdb
REMARK  8 active torsions:
REMARK  status: ('A' for Active; 'I' for Inactive)
REMARK    1  A    between atoms: _5  and  _11
REMARK    2  A    between atoms: _19  and  _21
REMARK    3  A    between atoms: _22  and  _66
REMARK    4  A    between atoms: _27  and  _30
REMARK    5  A    between atoms: _32  and  _33
REMARK    6  A    between atoms: _38  and  _43
REMARK    7  A    between atoms: _43  and  _46
REMARK    8  A    between atoms: _53  and  _55
REMARK                            x       y       z     vdW  Elec       q    Type
REMARK                         _______ _______ _______ _____ _____    ______ ____
ROOT
ATOM     10  C   UNL     1       5.018  34.031  10.488  0.00  0.00    +0.038 A 
ATOM     11  C   UNL     1       5.011  32.790  11.176  0.00  0.00    +0.047 A 
ATOM     12  C   UNL     1       5.944  31.731  10.825  0.00  0.00    +0.035 A 
ATOM     32  C   UNL     1       6.873  31.970   9.770  0.00  0.00    +0.024 A 
ATOM     33  C   UNL     1       6.893  33.225   9.061  0.00  0.00    +0.007 A 
ATOM     34  C   UNL     1       5.973  34.273   9.401  0.00  0.00    -0.029 A 
ATOM     35  C   UNL     1       6.036  35.595   8.602  0.00  0.00    +0.045 C 
ENDROOT
BRANCH  10   9
ATOM      4  C   UNL     1       3.847  38.054  12.830  0.00  0.00    +0.077 A 
ATOM      5  C   UNL     1       5.170  38.197  13.367  0.00  0.00    +0.048 A 
ATOM      6  C   UNL     1       6.120  37.209  13.022  0.00  0.00    +0.116 A 
ATOM      7  N   UNL     1       5.763  36.162  12.200  0.00  0.00    -0.223 NA
ATOM      8  C   UNL     1       4.479  36.054  11.701  0.00  0.00    +0.220 A 
ATOM      9  N   UNL     1       4.100  35.013  10.867  0.00  0.00    -0.283 N 
ATOM     36  H   UNL     1       3.140  34.965  10.525  0.00  0.00    +0.155 HD
ATOM     37  N   UNL     1       3.552  36.983  12.017  0.00  0.00    -0.214 NA
BRANCH   4   3
ATOM      1  C   UNL     1       0.689  40.323  12.408  0.00  0.00    +0.020 A 
ATOM      2  C   UNL     1       1.745  39.388  12.096  0.00  0.00    +0.013 A 
ATOM      3  C   UNL     1       2.734  39.018  13.100  0.00  0.00    +0.019 A 
ATOM     38  C   UNL     1       2.625  39.616  14.422  0.00  0.00    +0.120 A 
ATOM     39  N   UNL     1       1.598  40.515  14.694  0.00  0.00    -0.263 NA
ATOM     40  C   UNL     1       0.641  40.880  13.734  0.00  0.00    +0.111 A 
ENDBRANCH   4   3
ENDBRANCH  10   9
BRANCH  12  13
ATOM     13  N   UNL     1       5.979  30.448  11.482  0.00  0.00    -0.281 N 
ATOM     14  C   UNL     1       6.179  29.203  10.908  0.00  0.00    +0.248 C 
ATOM     30  O   UNL     1       6.145  28.982   9.707  0.00  0.00    -0.270 OA
ATOM     31  H   UNL     1       5.840  30.458  12.492  0.00  0.00    +0.155 HD
BRANCH  14  15
ATOM     15  C   UNL     1       6.439  28.031  11.799  0.00  0.00    +0.037 A 
ATOM     16  C   UNL     1       7.410  28.109  12.893  0.00  0.00    +0.013 A 
ATOM     17  C   UNL     1       7.655  26.958  13.726  0.00  0.00    +0.005 A 
ATOM     18  C   UNL     1       6.924  25.719  13.469  0.00  0.00    -0.033 A 
ATOM     28  C   UNL     1       5.963  25.671  12.380  0.00  0.00    +0.005 A 
ATOM     29  C   UNL     1       5.721  26.796  11.560  0.00  0.00    +0.013 A 
BRANCH  18  19
ATOM     19  C   UNL     1       7.137  24.436  14.294  0.00  0.00    +0.119 C 
BRANCH  19  20
ATOM     20  N   UNL     1       8.077  23.416  13.742  0.00  0.00    -0.302 NA
ATOM     21  C   UNL     1       8.549  22.430  14.814  0.00  0.00    +0.066 C 
ATOM     22  C   UNL     1       9.514  21.356  14.214  0.00  0.00    -0.064 C 
ATOM     23  N   UNL     1      10.707  22.055  13.560  0.00  0.00    +0.379 N 
ATOM     24  C   UNL     1      11.645  21.047  13.046  0.00  0.00    -0.096 C 
ATOM     25  H   UNL     1      11.234  22.636  14.352  0.00  0.00    -0.082 HD
ATOM     26  C   UNL     1      10.247  23.040  12.494  0.00  0.00    -0.064 C 
ATOM     27  C   UNL     1       9.265  24.085  13.094  0.00  0.00    +0.066 C 
ENDBRANCH  19  20
ENDBRANCH  18  19
ENDBRANCH  14  15
ENDBRANCH  12  13
TORSDOF 6
ENDMDL
MODEL 2
REMARK VINA RESULT:      -9.9      3.234      4.980
REMARK  Name = C:\Users\Docking\Desktop\test protocol\1iep_ligandH.pdb
REMARK  8 active torsions:
REMARK  status: ('A' for Active; 'I' for Inactive)
REMARK    1  A    between atoms: _5  and  _11
REMARK    2  A    between atoms: _19  and  _21
REMARK    3  A    between atoms: _22  and  _66
REMARK    4  A    between atoms: _27  and  _30
REMARK    5  A    between atoms: _32  and  _33
REMARK    6  A    between atoms: _38  and  _43
REMARK    7  A    between atoms: _43  and  _46
REMARK    8  A    between atoms: _53  and  _55
REMARK                            x       y       z     vdW  Elec       q    Type
REMARK                         _______ _______ _______ _____ _____    ______ ____
ROOT
ATOM     10  C   UNL     1       6.201  36.027  11.701  0.00  0.00    +0.038 A 
ATOM     11  C   UNL     1       6.333  34.618  11.607  0.00  0.00    +0.047 A 
ATOM     12  C   UNL     1       5.238  33.789  11.128  0.00  0.00    +0.035 A 
ATOM     32  C   UNL     1       4.021  34.430  10.751  0.00  0.00    +0.024 A 
ATOM     33  C   UNL     1       3.869  35.861  10.841  0.00  0.00    +0.007 A 
ATOM     34  C   UNL     1       4.946  36.683  11.315  0.00  0.00    -0.029 A 
ATOM     35  C   UNL     1       4.724  38.211  11.397  0.00  0.00    +0.045 C 
ENDROOT
BRANCH  10   9
ATOM      4  C   UNL     1       8.644  38.202  15.213  0.00  0.00    +0.077 A 
ATOM      5  C   UNL     1       7.665  37.843  16.198  0.00  0.00    +0.048 A 
ATOM      6  C   UNL     1       6.543  37.104  15.758  0.00  0.00    +0.116 A 
ATOM      7  N   UNL     1       6.421  36.756  14.430  0.00  0.00    -0.223 NA
ATOM      8  C   UNL     1       7.383  37.120  13.506  0.00  0.00    +0.220 A 
ATOM      9  N   UNL     1       7.285  36.774  12.167  0.00  0.00    -0.283 N 
ATOM     36  H   UNL     1       8.012  37.067  11.516  0.00  0.00    +0.155 HD
ATOM     37  N   UNL     1       8.463  37.826  13.901  0.00  0.00    -0.214 NA
BRANCH   4   3
ATOM      1  C   UNL     1      12.285  39.627  15.088  0.00  0.00    +0.020 A 
ATOM      2  C   UNL     1      11.114  38.853  14.747  0.00  0.00    +0.013 A 
ATOM      3  C   UNL     1       9.886  38.978  15.523  0.00  0.00    +0.019 A 
ATOM     38  C   UNL     1       9.877  39.903  16.646  0.00  0.00    +0.120 A 
ATOM     39  N   UNL     1      11.021  40.634  16.952  0.00  0.00    -0.263 NA
ATOM     40  C   UNL     1      12.208  40.520  16.214  0.00  0.00    +0.111 A 
ENDBRANCH   4   3
ENDBRANCH  10   9
BRANCH  12  13
ATOM     13  N   UNL     1       5.311  32.353  11.019  0.00  0.00    -0.281 N 
ATOM     14  C   UNL     1       6.329  31.592  10.467  0.00  0.00    +0.248 C 
ATOM     30  O   UNL     1       7.239  32.043   9.788  0.00  0.00    -0.270 OA
ATOM     31  H   UNL     1       4.516  31.835  11.393  0.00  0.00    +0.155 HD
BRANCH  14  15
ATOM     15  C   UNL     1       6.327  30.114  10.690  0.00  0.00    +0.037 A 
ATOM     16  C   UNL     1       6.133  29.178   9.580  0.00  0.00    +0.013 A 
ATOM     17  C   UNL     1       6.118  27.758   9.826  0.00  0.00    +0.005 A 
ATOM     18  C   UNL     1       6.301  27.265  11.189  0.00  0.00    -0.033 A 
ATOM     28  C   UNL     1       6.497  28.215  12.271  0.00  0.00    +0.005 A 
ATOM     29  C   UNL     1       6.510  29.608  12.034  0.00  0.00    +0.013 A 
BRANCH  18  19
ATOM     19  C   UNL     1       6.279  25.767  11.546  0.00  0.00    +0.119 C 
BRANCH  19  20
ATOM     20  N   UNL     1       7.567  25.019  11.439  0.00  0.00    -0.302 NA
ATOM     21  C   UNL     1       7.348  23.544  11.093  0.00  0.00    +0.066 C 
ATOM     22  C   UNL     1       8.707  22.782  10.962  0.00  0.00    -0.064 C 
ATOM     23  N   UNL     1       9.494  22.921  12.267  0.00  0.00    +0.379 N 
ATOM     24  C   UNL     1      10.746  22.158  12.168  0.00  0.00    -0.096 C 
ATOM     25  H   UNL     1       8.882  22.465  13.080  0.00  0.00    -0.082 HD
ATOM     26  C   UNL     1       9.713  24.385  12.620  0.00  0.00    -0.064 C 
ATOM     27  C   UNL     1       8.358  25.140  12.718  0.00  0.00    +0.066 C 
ENDBRANCH  19  20
ENDBRANCH  18  19
ENDBRANCH  14  15
ENDBRANCH  12  13
TORSDOF 6
ENDMDL
MODEL 3
REMARK VINA RESULT:      -9.8      2.359     13.925
REMARK  Name = C:\Users\Docking\Desktop\test protocol\1iep_ligandH.pdb
REMARK  8 active torsions:
REMARK  status: ('A' for Active; 'I' for Inactive)
REMARK    1  A    between atoms: _5  and  _11
REMARK    2  A    between atoms: _19  and  _21
REMARK    3  A    between atoms: _22  and  _66
REMARK    4  A    between atoms: _27  and  _30
REMARK    5  A    between atoms: _32  and  _33
REMARK    6  A    between atoms: _38  and  _43
REMARK    7  A    between atoms: _43  and  _46
REMARK    8  A    between atoms: _53  and  _55
REMARK                            x       y       z     vdW  Elec       q    Type
REMARK                         _______ _______ _______ _____ _____    ______ ____
ROOT
ATOM     10  C   UNL     1       6.364  32.255  10.964  0.00  0.00    +0.038 A 
ATOM     11  C   UNL     1       5.459  33.220  11.476  0.00  0.00    +0.047 A 
ATOM     12  C   UNL     1       5.056  34.370  10.681  0.00  0.00    +0.035 A 
ATOM     32  C   UNL     1       5.593  34.504   9.368  0.00  0.00    +0.024 A 
ATOM     33  C   UNL     1       6.515  33.534   8.832  0.00  0.00    +0.007 A 
ATOM     34  C   UNL     1       6.917  32.399   9.612  0.00  0.00    -0.029 A 
ATOM     35  C   UNL     1       7.914  31.393   8.990  0.00  0.00    +0.045 C 
ENDROOT
BRANCH  10   9
ATOM      4  C   UNL     1       6.302  27.575  12.027  0.00  0.00    +0.077 A 
ATOM      5  C   UNL     1       5.476  27.268  10.894  0.00  0.00    +0.048 A 
ATOM      6  C   UNL     1       5.083  28.344  10.067  0.00  0.00    +0.116 A 
ATOM      7  N   UNL     1       5.492  29.627  10.360  0.00  0.00    -0.223 NA
ATOM      8  C   UNL     1       6.287  29.889  11.461  0.00  0.00    +0.220 A 
ATOM      9  N   UNL     1       6.716  31.170  11.770  0.00  0.00    -0.283 N 
ATOM     36  H   UNL     1       7.295  31.323  12.596  0.00  0.00    +0.155 HD
ATOM     37  N   UNL     1       6.674  28.878  12.267  0.00  0.00    -0.214 NA
BRANCH   4   3
ATOM      1  C   UNL     1       6.803  24.227  13.987  0.00  0.00    +0.020 A 
ATOM      2  C   UNL     1       6.286  25.183  13.035  0.00  0.00    +0.013 A 
ATOM      3  C   UNL     1       6.802  26.545  12.992  0.00  0.00    +0.019 A 
ATOM     38  C   UNL     1       7.851  26.911  13.932  0.00  0.00    +0.120 A 
ATOM     39  N   UNL     1       8.329  25.969  14.838  0.00  0.00    -0.263 NA
ATOM     40  C   UNL     1       7.838  24.656  14.891  0.00  0.00    +0.111 A 
ENDBRANCH   4   3
ENDBRANCH  10   9
BRANCH  12  13
ATOM     13  N   UNL     1       4.147  35.386  11.150  0.00  0.00    -0.281 N 
ATOM     14  C   UNL     1       4.430  36.473  11.961  0.00  0.00    +0.248 C 
ATOM     30  O   UNL     1       5.471  36.618  12.584  0.00  0.00    -0.270 OA
ATOM     31  H   UNL     1       3.177  35.292  10.848  0.00  0.00    +0.155 HD
BRANCH  14  15
ATOM     15  C   UNL     1       3.402  37.547  12.114  0.00  0.00    +0.037 A 
ATOM     16  C   UNL     1       2.918  38.306  10.957  0.00  0.00    +0.013 A 
ATOM     17  C   UNL     1       1.938  39.348  11.135  0.00  0.00    +0.005 A 
ATOM     18  C   UNL     1       1.434  39.636  12.475  0.00  0.00    -0.033 A 
ATOM     28  C   UNL     1       1.927  38.865  13.604  0.00  0.00    +0.005 A 
ATOM     29  C   UNL     1       2.888  37.843  13.434  0.00  0.00    +0.013 A 
BRANCH  18  19
ATOM     19  C   UNL     1       0.404  40.745  12.761  0.00  0.00    +0.119 C 
BRANCH  19  20
ATOM     20  N   UNL     1       0.865  41.918  13.561  0.00  0.00    -0.302 NA
ATOM     21  C   UNL     1      -0.284  42.872  13.898  0.00  0.00    +0.066 C 
ATOM     22  C   UNL     1       0.212  44.082  14.755  0.00  0.00    -0.064 C 
ATOM     23  N   UNL     1       1.323  44.816  14.001  0.00  0.00    +0.379 N 
ATOM     24  C   UNL     1       1.752  45.987  14.778  0.00  0.00    -0.096 C 
ATOM     25  H   UNL     1       0.892  45.185  13.041  0.00  0.00    -0.082 HD
ATOM     26  C   UNL     1       2.469  43.873  13.660  0.00  0.00    -0.064 C 
ATOM     27  C   UNL     1       1.959  42.660  12.833  0.00  0.00    +0.066 C 
ENDBRANCH  19  20
ENDBRANCH  18  19
ENDBRANCH  14  15
ENDBRANCH  12  13
TORSDOF 6
ENDMDL
MODEL 4
REMARK VINA RESULT:      -9.3      3.287     13.995
REMARK  Name = C:\Users\Docking\Desktop\test protocol\1iep_ligandH.pdb
REMARK  8 active torsions:
REMARK  status: ('A' for Active; 'I' for Inactive)
REMARK    1  A    between atoms: _5  and  _11
REMARK    2  A    between atoms: _19  and  _21
REMARK    3  A    between atoms: _22  and  _66
REMARK    4  A    between atoms: _27  and  _30
REMARK    5  A    between atoms: _32  and  _33
REMARK    6  A    between atoms: _38  and  _43
REMARK    7  A    between atoms: _43  and  _46
REMARK    8  A    between atoms: _53  and  _55
REMARK                            x       y       z     vdW  Elec       q    Type
REMARK                         _______ _______ _______ _____ _____    ______ ____
ROOT
ATOM     10  C   UNL     1       7.133  22.634  12.866  0.00  0.00    +0.038 A 
ATOM     11  C   UNL     1       6.717  23.979  12.693  0.00  0.00    +0.047 A 
ATOM     12  C   UNL     1       7.253  24.800  11.618  0.00  0.00    +0.035 A 
ATOM     32  C   UNL     1       8.210  24.218  10.737  0.00  0.00    +0.024 A 
ATOM     33  C   UNL     1       8.645  22.853  10.898  0.00  0.00    +0.007 A 
ATOM     34  C   UNL     1       8.121  22.039  11.958  0.00  0.00    -0.029 A 
ATOM     35  C   UNL     1       8.627  20.584  12.088  0.00  0.00    +0.045 C 
ENDROOT
BRANCH  10   9
ATOM      4  C   UNL     1       7.359  20.699  17.252  0.00  0.00    +0.077 A 
ATOM      5  C   UNL     1       8.692  21.186  17.463  0.00  0.00    +0.048 A 
ATOM      6  C   UNL     1       9.286  21.925  16.415  0.00  0.00    +0.116 A 
ATOM      7  N   UNL     1       8.590  22.153  15.248  0.00  0.00    -0.223 NA
ATOM      8  C   UNL     1       7.306  21.667  15.076  0.00  0.00    +0.220 A 
ATOM      9  N   UNL     1       6.585  21.891  13.914  0.00  0.00    -0.283 N 
ATOM     36  H   UNL     1       5.643  21.510  13.823  0.00  0.00    +0.155 HD
ATOM     37  N   UNL     1       6.717  20.958  16.062  0.00  0.00    -0.214 NA
BRANCH   4   3
ATOM      1  C   UNL     1       5.229  17.907  18.976  0.00  0.00    +0.020 A 
ATOM      2  C   UNL     1       5.954  18.634  17.959  0.00  0.00    +0.013 A 
ATOM      3  C   UNL     1       6.595  19.906  18.267  0.00  0.00    +0.019 A 
ATOM     38  C   UNL     1       6.484  20.419  19.624  0.00  0.00    +0.120 A 
ATOM     39  N   UNL     1       5.778  19.698  20.582  0.00  0.00    -0.263 NA
ATOM     40  C   UNL     1       5.155  18.473  20.297  0.00  0.00    +0.111 A 
ENDBRANCH   4   3
ENDBRANCH  10   9
BRANCH  12  13
ATOM     13  N   UNL     1       6.875  26.174  11.398  0.00  0.00    -0.281 N 
ATOM     14  C   UNL     1       7.321  27.298  12.074  0.00  0.00    +0.248 C 
ATOM     30  O   UNL     1       7.955  27.271  13.118  0.00  0.00    -0.270 OA
ATOM     31  H   UNL     1       6.197  26.337  10.655  0.00  0.00    +0.155 HD
BRANCH  14  15
ATOM     15  C   UNL     1       7.003  28.648  11.517  0.00  0.00    +0.037 A 
ATOM     16  C   UNL     1       6.653  29.769  12.393  0.00  0.00    +0.013 A 
ATOM     17  C   UNL     1       6.334  31.057  11.829  0.00  0.00    +0.005 A 
ATOM     18  C   UNL     1       6.365  31.230  10.378  0.00  0.00    -0.033 A 
ATOM     28  C   UNL     1       6.721  30.103   9.533  0.00  0.00    +0.005 A 
ATOM     29  C   UNL     1       7.033  28.839  10.082  0.00  0.00    +0.013 A 
BRANCH  18  19
ATOM     19  C   UNL     1       6.019  32.563   9.688  0.00  0.00    +0.119 C 
BRANCH  19  20
ATOM     20  N   UNL     1       5.911  33.774  10.555  0.00  0.00    -0.302 NA
ATOM     21  C   UNL     1       4.476  34.303  10.626  0.00  0.00    +0.066 C 
ATOM     22  C   UNL     1       4.377  35.557  11.555  0.00  0.00    -0.064 C 
ATOM     23  N   UNL     1       5.330  36.641  11.047  0.00  0.00    +0.379 N 
ATOM     24  C   UNL     1       5.197  37.843  11.883  0.00  0.00    -0.096 C 
ATOM     25  H   UNL     1       5.012  36.912  10.013  0.00  0.00    -0.082 HD
ATOM     26  C   UNL     1       6.759  36.122  10.970  0.00  0.00    -0.064 C 
ATOM     27  C   UNL     1       6.840  34.859  10.068  0.00  0.00    +0.066 C 
ENDBRANCH  19  20
ENDBRANCH  18  19
ENDBRANCH  14  15
ENDBRANCH  12  13
TORSDOF 6
ENDMDL
MODEL 5
REMARK VINA RESULT:      -9.0      2.300     13.608
REMARK  Name = C:\Users\Docking\Desktop\test protocol\1iep_ligandH.pdb
REMARK  8 active torsions:
REMARK  status: ('A' for Active; 'I' for Inactive)
REMARK    1  A    between atoms: _5  and  _11
REMARK    2  A    between atoms: _19  and  _21
REMARK    3  A    between atoms: _22  and  _66
REMARK    4  A    between atoms: _27  and  _30
REMARK    5  A    between atoms: _32  and  _33
REMARK    6  A    between atoms: _38  and  _43
REMARK    7  A    between atoms: _43  and  _46
REMARK    8  A    between atoms: _53  and  _55
REMARK                            x       y       z     vdW  Elec       q    Type
REMARK                         _______ _______ _______ _____ _____    ______ ____
ROOT
ATOM     10  C   UNL     1       7.191  30.992   9.623  0.00  0.00    +0.038 A 
ATOM     11  C   UNL     1       7.012  32.039  10.563  0.00  0.00    +0.047 A 
ATOM     12  C   UNL     1       6.450  33.320  10.164  0.00  0.00    +0.035 A 
ATOM     32  C   UNL     1       6.079  33.499   8.800  0.00  0.00    +0.024 A 
ATOM     33  C   UNL     1       6.255  32.446   7.831  0.00  0.00    +0.007 A 
ATOM     34  C   UNL     1       6.811  31.181   8.218  0.00  0.00    -0.029 A 
ATOM     35  C   UNL     1       6.983  30.090   7.135  0.00  0.00    +0.045 C 
ENDROOT
BRANCH  10   9
ATOM      4  C   UNL     1       6.756  26.465  11.158  0.00  0.00    +0.077 A 
ATOM      5  C   UNL     1       5.324  26.523  11.110  0.00  0.00    +0.048 A 
ATOM      6  C   UNL     1       4.738  27.739  10.691  0.00  0.00    +0.116 A 
ATOM      7  N   UNL     1       5.535  28.810  10.349  0.00  0.00    -0.223 NA
ATOM      8  C   UNL     1       6.914  28.720  10.408  0.00  0.00    +0.220 A 
ATOM      9  N   UNL     1       7.735  29.782  10.061  0.00  0.00    -0.283 N 
ATOM     36  H   UNL     1       8.747  29.678  10.125  0.00  0.00    +0.155 HD
ATOM     37  N   UNL     1       7.497  27.571  10.806  0.00  0.00    -0.214 NA
BRANCH   4   3
ATOM      1  C   UNL     1       9.515  24.115  12.630  0.00  0.00    +0.020 A 
ATOM      2  C   UNL     1       8.816  25.319  12.246  0.00  0.00    +0.013 A 
ATOM      3  C   UNL     1       7.523  25.249  11.577  0.00  0.00    +0.019 A 
ATOM     38  C   UNL     1       6.961  23.934  11.309  0.00  0.00    +0.120 A 
ATOM     39  N   UNL     1       7.658  22.791  11.689  0.00  0.00    -0.263 NA
ATOM     40  C   UNL     1       8.903  22.846  12.332  0.00  0.00    +0.111 A 
ENDBRANCH   4   3
ENDBRANCH  10   9
BRANCH  12  13
ATOM     13  N   UNL     1       6.253  34.422  11.072  0.00  0.00    -0.281 N 
ATOM     14  C   UNL     1       6.619  35.747  10.896  0.00  0.00    +0.248 C 
ATOM     30  O   UNL     1       7.368  36.146  10.017  0.00  0.00    -0.270 OA
ATOM     31  H   UNL     1       5.786  34.199  11.951  0.00  0.00    +0.155 HD
BRANCH  14  15
ATOM     15  C   UNL     1       6.088  36.774  11.843  0.00  0.00    +0.037 A 
ATOM     16  C   UNL     1       6.698  36.982  13.159  0.00  0.00    +0.013 A 
ATOM     17  C   UNL     1       6.155  37.968  14.060  0.00  0.00    +0.005 A 
ATOM     18  C   UNL     1       4.997  38.756  13.646  0.00  0.00    -0.033 A 
ATOM     28  C   UNL     1       4.415  38.533  12.332  0.00  0.00    +0.005 A 
ATOM     29  C   UNL     1       4.943  37.567  11.447  0.00  0.00    +0.013 A 
BRANCH  18  19
ATOM     19  C   UNL     1       4.339  39.815  14.550  0.00  0.00    +0.119 C 
BRANCH  19  20
ATOM     20  N   UNL     1       3.414  40.790  13.899  0.00  0.00    -0.302 NA
ATOM     21  C   UNL     1       3.901  42.234  14.051  0.00  0.00    +0.066 C 
ATOM     22  C   UNL     1       2.933  43.239  13.345  0.00  0.00    -0.064 C 
ATOM     23  N   UNL     1       1.526  43.078  13.924  0.00  0.00    +0.379 N 
ATOM     24  C   UNL     1       0.626  44.061  13.303  0.00  0.00    -0.096 C 
ATOM     25  H   UNL     1       1.580  43.309  15.013  0.00  0.00    -0.082 HD
ATOM     26  C   UNL     1       1.035  41.645  13.780  0.00  0.00    -0.064 C 
ATOM     27  C   UNL     1       2.019  40.652  14.459  0.00  0.00    +0.066 C 
ENDBRANCH  19  20
ENDBRANCH  18  19
ENDBRANCH  14  15
ENDBRANCH  12  13
TORSDOF 6
ENDMDL
