MODEL 1
REMARK VINA RESULT:      -8.1      0.000      0.000
REMARK  Name = C:\Users\Docking\Desktop\test protocol\1iep_ligandH.pdb
REMARK  8 active torsions:
REMARK  status: ('A' for Active; 'I' for Inactive)
REMARK    1  A    between atoms: _5  and  _11
REMARK    2  A    between atoms: _19  and  _21
REMARK    3  A    between atoms: _22  and  _66
REMARK    4  A    between atoms: _27  and  _30
REMARK    5  A    between atoms: _32  and  _33
REMARK    6  A    between atoms: _38  and  _43
REMARK    7  A    between atoms: _43  and  _46
REMARK    8  A    between atoms: _53  and  _55
REMARK                            x       y       z     vdW  Elec       q    Type
REMARK                         _______ _______ _______ _____ _____    ______ ____
ROOT
ATOM     10  C   UNL     1      33.768 108.919   2.874  0.00  0.00    +0.038 A 
ATOM     11  C   UNL     1      33.504 107.567   2.538  0.00  0.00    +0.047 A 
ATOM     12  C   UNL     1      32.955 107.207   1.240  0.00  0.00    +0.035 A 
ATOM     32  C   UNL     1      32.690 108.250   0.306  0.00  0.00    +0.024 A 
ATOM     33  C   UNL     1      32.952 109.630   0.630  0.00  0.00    +0.007 A 
ATOM     34  C   UNL     1      33.491 109.991   1.910  0.00  0.00    -0.029 A 
ATOM     35  C   UNL     1      33.746 111.488   2.206  0.00  0.00    +0.045 C 
ENDROOT
BRANCH  10   9
ATOM      4  C   UNL     1      37.460 109.670   5.848  0.00  0.00    +0.077 A 
ATOM      5  C   UNL     1      38.421 109.440   4.808  0.00  0.00    +0.048 A 
ATOM      6  C   UNL     1      37.924 109.125   3.523  0.00  0.00    +0.116 A 
ATOM      7  N   UNL     1      36.565 109.048   3.306  0.00  0.00    -0.223 NA
ATOM      8  C   UNL     1      35.666 109.273   4.332  0.00  0.00    +0.220 A 
ATOM      9  N   UNL     1      34.295 109.208   4.134  0.00  0.00    -0.283 N 
ATOM     36  H   UNL     1      33.664 109.374   4.918  0.00  0.00    +0.155 HD
ATOM     37  N   UNL     1      36.115 109.574   5.568  0.00  0.00    -0.214 NA
BRANCH   4   3
ATOM      1  C   UNL     1      38.828 109.464   9.506  0.00  0.00    +0.020 A 
ATOM      2  C   UNL     1      38.493 109.079   8.155  0.00  0.00    +0.013 A 
ATOM      3  C   UNL     1      37.829 110.016   7.257  0.00  0.00    +0.019 A 
ATOM     38  C   UNL     1      37.516 111.344   7.762  0.00  0.00    +0.120 A 
ATOM     39  N   UNL     1      37.849 111.686   9.069  0.00  0.00    -0.263 NA
ATOM     40  C   UNL     1      38.487 110.793   9.942  0.00  0.00    +0.111 A 
ENDBRANCH   4   3
ENDBRANCH  10   9
BRANCH  12  13
ATOM     13  N   UNL     1      32.659 105.851   0.847  0.00  0.00    -0.281 N 
ATOM     14  C   UNL     1      33.432 105.000   0.074  0.00  0.00    +0.248 C 
ATOM     30  O   UNL     1      34.405 105.350  -0.577  0.00  0.00    -0.270 OA
ATOM     31  H   UNL     1      31.771 105.474   1.178  0.00  0.00    +0.155 HD
BRANCH  14  15
ATOM     15  C   UNL     1      33.063 103.554   0.004  0.00  0.00    +0.037 A 
ATOM     16  C   UNL     1      33.046 102.714   1.205  0.00  0.00    +0.013 A 
ATOM     17  C   UNL     1      32.703 101.318   1.106  0.00  0.00    +0.005 A 
ATOM     18  C   UNL     1      32.371 100.752  -0.199  0.00  0.00    -0.033 A 
ATOM     28  C   UNL     1      32.390 101.609  -1.373  0.00  0.00    +0.005 A 
ATOM     29  C   UNL     1      32.727 102.978  -1.281  0.00  0.00    +0.013 A 
BRANCH  18  19
ATOM     19  C   UNL     1      32.014  99.268  -0.401  0.00  0.00    +0.119 C 
BRANCH  19  20
ATOM     20  N   UNL     1      32.515  98.607  -1.643  0.00  0.00    -0.302 NA
ATOM     21  C   UNL     1      31.461  97.690  -2.271  0.00  0.00    +0.066 C 
ATOM     22  C   UNL     1      31.994  97.024  -3.581  0.00  0.00    -0.064 C 
ATOM     23  N   UNL     1      33.273  96.245  -3.271  0.00  0.00    +0.379 N 
ATOM     24  C   UNL     1      33.745  95.570  -4.489  0.00  0.00    -0.096 C 
ATOM     25  H   UNL     1      33.017  95.457  -2.525  0.00  0.00    -0.082 HD
ATOM     26  C   UNL     1      34.326  97.149  -2.643  0.00  0.00    -0.064 C 
ATOM     27  C   UNL     1      33.776  97.828  -1.358  0.00  0.00    +0.066 C 
ENDBRANCH  19  20
ENDBRANCH  18  19
ENDBRANCH  14  15
ENDBRANCH  12  13
TORSDOF 6
ENDMDL
MODEL 2
REMARK VINA RESULT:      -7.8      3.540     13.237
REMARK  Name = C:\Users\Docking\Desktop\test protocol\1iep_ligandH.pdb
REMARK  8 active torsions:
REMARK  status: ('A' for Active; 'I' for Inactive)
REMARK    1  A    between atoms: _5  and  _11
REMARK    2  A    between atoms: _19  and  _21
REMARK    3  A    between atoms: _22  and  _66
REMARK    4  A    between atoms: _27  and  _30
REMARK    5  A    between atoms: _32  and  _33
REMARK    6  A    between atoms: _38  and  _43
REMARK    7  A    between atoms: _43  and  _46
REMARK    8  A    between atoms: _53  and  _55
REMARK                            x       y       z     vdW  Elec       q    Type
REMARK                         _______ _______ _______ _____ _____    ______ ____
ROOT
ATOM     10  C   UNL     1      32.771 101.068  -2.654  0.00  0.00    +0.038 A 
ATOM     11  C   UNL     1      33.082 101.989  -1.621  0.00  0.00    +0.047 A 
ATOM     12  C   UNL     1      32.502 103.322  -1.601  0.00  0.00    +0.035 A 
ATOM     32  C   UNL     1      31.607 103.685  -2.649  0.00  0.00    +0.024 A 
ATOM     33  C   UNL     1      31.281 102.762  -3.708  0.00  0.00    +0.007 A 
ATOM     34  C   UNL     1      31.852 101.446  -3.734  0.00  0.00    -0.029 A 
ATOM     35  C   UNL     1      31.471 100.501  -4.897  0.00  0.00    +0.045 C 
ENDROOT
BRANCH  10   9
ATOM      4  C   UNL     1      32.745  96.422  -1.450  0.00  0.00    +0.077 A 
ATOM      5  C   UNL     1      31.469  96.536  -0.805  0.00  0.00    +0.048 A 
ATOM      6  C   UNL     1      30.856  97.809  -0.798  0.00  0.00    +0.116 A 
ATOM      7  N   UNL     1      31.481  98.881  -1.396  0.00  0.00    -0.223 NA
ATOM      8  C   UNL     1      32.713  98.738  -2.009  0.00  0.00    +0.220 A 
ATOM      9  N   UNL     1      33.357  99.801  -2.623  0.00  0.00    -0.283 N 
ATOM     36  H   UNL     1      34.268  99.655  -3.057  0.00  0.00    +0.155 HD
ATOM     37  N   UNL     1      33.320  97.533  -2.027  0.00  0.00    -0.214 NA
BRANCH   4   3
ATOM      1  C   UNL     1      35.637  93.834  -1.936  0.00  0.00    +0.020 A 
ATOM      2  C   UNL     1      34.938  95.096  -1.859  0.00  0.00    +0.013 A 
ATOM      3  C   UNL     1      33.517  95.143  -1.543  0.00  0.00    +0.019 A 
ATOM     38  C   UNL     1      32.826  93.884  -1.306  0.00  0.00    +0.120 A 
ATOM     39  N   UNL     1      33.525  92.683  -1.388  0.00  0.00    -0.263 NA
ATOM     40  C   UNL     1      34.893  92.626  -1.694  0.00  0.00    +0.111 A 
ENDBRANCH   4   3
ENDBRANCH  10   9
BRANCH  12  13
ATOM     13  N   UNL     1      32.787 104.302  -0.583  0.00  0.00    -0.281 N 
ATOM     14  C   UNL     1      33.811 105.234  -0.560  0.00  0.00    +0.248 C 
ATOM     30  O   UNL     1      34.771 105.225  -1.316  0.00  0.00    -0.270 OA
ATOM     31  H   UNL     1      32.156 104.310   0.219  0.00  0.00    +0.155 HD
BRANCH  14  15
ATOM     15  C   UNL     1      33.772 106.327   0.460  0.00  0.00    +0.037 A 
ATOM     16  C   UNL     1      32.602 106.520   1.320  0.00  0.00    +0.013 A 
ATOM     17  C   UNL     1      32.583 107.592   2.284  0.00  0.00    +0.005 A 
ATOM     18  C   UNL     1      33.739 108.479   2.392  0.00  0.00    -0.033 A 
ATOM     28  C   UNL     1      34.888 108.260   1.530  0.00  0.00    +0.005 A 
ATOM     29  C   UNL     1      34.910 107.211   0.583  0.00  0.00    +0.013 A 
BRANCH  18  19
ATOM     19  C   UNL     1      33.797 109.661   3.378  0.00  0.00    +0.119 C 
BRANCH  19  20
ATOM     20  N   UNL     1      33.388 111.001   2.862  0.00  0.00    -0.302 NA
ATOM     21  C   UNL     1      33.111 110.978   1.356  0.00  0.00    +0.066 C 
ATOM     22  C   UNL     1      32.663 112.383   0.837  0.00  0.00    -0.064 C 
ATOM     23  N   UNL     1      33.740 113.415   1.174  0.00  0.00    +0.379 N 
ATOM     24  C   UNL     1      33.348 114.726   0.637  0.00  0.00    -0.096 C 
ATOM     25  H   UNL     1      34.678 113.105   0.658  0.00  0.00    -0.082 HD
ATOM     26  C   UNL     1      34.023 113.444   2.669  0.00  0.00    -0.064 C 
ATOM     27  C   UNL     1      34.439 112.036   3.180  0.00  0.00    +0.066 C 
ENDBRANCH  19  20
ENDBRANCH  18  19
ENDBRANCH  14  15
ENDBRANCH  12  13
TORSDOF 6
ENDMDL
MODEL 3
REMARK VINA RESULT:      -7.4      3.498      7.026
REMARK  Name = C:\Users\Docking\Desktop\test protocol\1iep_ligandH.pdb
REMARK  8 active torsions:
REMARK  status: ('A' for Active; 'I' for Inactive)
REMARK    1  A    between atoms: _5  and  _11
REMARK    2  A    between atoms: _19  and  _21
REMARK    3  A    between atoms: _22  and  _66
REMARK    4  A    between atoms: _27  and  _30
REMARK    5  A    between atoms: _32  and  _33
REMARK    6  A    between atoms: _38  and  _43
REMARK    7  A    between atoms: _43  and  _46
REMARK    8  A    between atoms: _53  and  _55
REMARK                            x       y       z     vdW  Elec       q    Type
REMARK                         _______ _______ _______ _____ _____    ______ ____
ROOT
ATOM     10  C   UNL     1      32.006 103.258  -1.951  0.00  0.00    +0.038 A 
ATOM     11  C   UNL     1      32.429 101.932  -1.681  0.00  0.00    +0.047 A 
ATOM     12  C   UNL     1      32.304 100.883  -2.682  0.00  0.00    +0.035 A 
ATOM     32  C   UNL     1      31.745 101.222  -3.949  0.00  0.00    +0.024 A 
ATOM     33  C   UNL     1      31.309 102.565  -4.240  0.00  0.00    +0.007 A 
ATOM     34  C   UNL     1      31.428 103.603  -3.256  0.00  0.00    -0.029 A 
ATOM     35  C   UNL     1      30.938 105.023  -3.621  0.00  0.00    +0.045 C 
ENDROOT
BRANCH  10   9
ATOM      4  C   UNL     1      34.503 106.692   0.287  0.00  0.00    +0.077 A 
ATOM      5  C   UNL     1      35.628 106.527  -0.588  0.00  0.00    +0.048 A 
ATOM      6  C   UNL     1      35.526 105.542  -1.597  0.00  0.00    +0.116 A 
ATOM      7  N   UNL     1      34.380 104.786  -1.712  0.00  0.00    -0.223 NA
ATOM      8  C   UNL     1      33.314 104.969  -0.851  0.00  0.00    +0.220 A 
ATOM      9  N   UNL     1      32.149 104.225  -0.954  0.00  0.00    -0.283 N 
ATOM     36  H   UNL     1      31.388 104.386  -0.294  0.00  0.00    +0.155 HD
ATOM     37  N   UNL     1      33.387 105.902   0.122  0.00  0.00    -0.214 NA
BRANCH   4   3
ATOM      1  C   UNL     1      35.542 109.349   2.963  0.00  0.00    +0.020 A 
ATOM      2  C   UNL     1      35.640 108.391   1.886  0.00  0.00    +0.013 A 
ATOM      3  C   UNL     1      34.457 107.693   1.400  0.00  0.00    +0.019 A 
ATOM     38  C   UNL     1      33.179 107.989   2.029  0.00  0.00    +0.120 A 
ATOM     39  N   UNL     1      33.115 108.915   3.066  0.00  0.00    -0.263 NA
ATOM     40  C   UNL     1      34.247 109.592   3.543  0.00  0.00    +0.111 A 
ENDBRANCH   4   3
ENDBRANCH  10   9
BRANCH  12  13
ATOM     13  N   UNL     1      32.708  99.517  -2.462  0.00  0.00    -0.281 N 
ATOM     14  C   UNL     1      32.611  98.777  -1.295  0.00  0.00    +0.248 C 
ATOM     30  O   UNL     1      32.356  99.250  -0.197  0.00  0.00    -0.270 OA
ATOM     31  H   UNL     1      33.116  99.037  -3.264  0.00  0.00    +0.155 HD
BRANCH  14  15
ATOM     15  C   UNL     1      32.846  97.303  -1.353  0.00  0.00    +0.037 A 
ATOM     16  C   UNL     1      34.186  96.754  -1.579  0.00  0.00    +0.013 A 
ATOM     17  C   UNL     1      34.382  95.328  -1.647  0.00  0.00    +0.005 A 
ATOM     18  C   UNL     1      33.233  94.439  -1.488  0.00  0.00    -0.033 A 
ATOM     28  C   UNL     1      31.916  95.009  -1.259  0.00  0.00    +0.005 A 
ATOM     29  C   UNL     1      31.720  96.407  -1.192  0.00  0.00    +0.013 A 
BRANCH  18  19
ATOM     19  C   UNL     1      33.346  92.905  -1.567  0.00  0.00    +0.119 C 
BRANCH  19  20
ATOM     20  N   UNL     1      33.620  92.308  -2.909  0.00  0.00    -0.302 NA
ATOM     21  C   UNL     1      35.117  92.086  -3.143  0.00  0.00    +0.066 C 
ATOM     22  C   UNL     1      35.384  91.440  -4.542  0.00  0.00    -0.064 C 
ATOM     23  N   UNL     1      34.791  92.332  -5.634  0.00  0.00    +0.379 N 
ATOM     24  C   UNL     1      35.091  91.757  -6.953  0.00  0.00    -0.096 C 
ATOM     25  H   UNL     1      35.299  93.323  -5.573  0.00  0.00    -0.082 HD
ATOM     26  C   UNL     1      33.304  92.561  -5.407  0.00  0.00    -0.064 C 
ATOM     27  C   UNL     1      33.047  93.175  -4.002  0.00  0.00    +0.066 C 
ENDBRANCH  19  20
ENDBRANCH  18  19
ENDBRANCH  14  15
ENDBRANCH  12  13
TORSDOF 6
ENDMDL
MODEL 4
REMARK VINA RESULT:      -7.4      1.860      3.213
REMARK  Name = C:\Users\Docking\Desktop\test protocol\1iep_ligandH.pdb
REMARK  8 active torsions:
REMARK  status: ('A' for Active; 'I' for Inactive)
REMARK    1  A    between atoms: _5  and  _11
REMARK    2  A    between atoms: _19  and  _21
REMARK    3  A    between atoms: _22  and  _66
REMARK    4  A    between atoms: _27  and  _30
REMARK    5  A    between atoms: _32  and  _33
REMARK    6  A    between atoms: _38  and  _43
REMARK    7  A    between atoms: _43  and  _46
REMARK    8  A    between atoms: _53  and  _55
REMARK                            x       y       z     vdW  Elec       q    Type
REMARK                         _______ _______ _______ _____ _____    ______ ____
ROOT
ATOM     10  C   UNL     1      34.414 107.414  -0.439  0.00  0.00    +0.038 A 
ATOM     11  C   UNL     1      34.311 106.000  -0.476  0.00  0.00    +0.047 A 
ATOM     12  C   UNL     1      33.455 105.333  -1.445  0.00  0.00    +0.035 A 
ATOM     32  C   UNL     1      32.720 106.138  -2.363  0.00  0.00    +0.024 A 
ATOM     33  C   UNL     1      32.812 107.577  -2.338  0.00  0.00    +0.007 A 
ATOM     34  C   UNL     1      33.653 108.240  -1.383  0.00  0.00    -0.029 A 
ATOM     35  C   UNL     1      33.708 109.786  -1.398  0.00  0.00    +0.045 C 
ENDROOT
BRANCH  10   9
ATOM      4  C   UNL     1      35.266 109.152   3.953  0.00  0.00    +0.077 A 
ATOM      5  C   UNL     1      33.922 108.893   4.381  0.00  0.00    +0.048 A 
ATOM      6  C   UNL     1      33.040 108.318   3.438  0.00  0.00    +0.116 A 
ATOM      7  N   UNL     1      33.481 108.028   2.165  0.00  0.00    -0.223 NA
ATOM      8  C   UNL     1      34.784 108.292   1.785  0.00  0.00    +0.220 A 
ATOM      9  N   UNL     1      35.252 108.001   0.512  0.00  0.00    -0.283 N 
ATOM     36  H   UNL     1      36.218 108.218   0.268  0.00  0.00    +0.155 HD
ATOM     37  N   UNL     1      35.645 108.842   2.666  0.00  0.00    -0.214 NA
BRANCH   4   3
ATOM      1  C   UNL     1      37.694 109.817   6.948  0.00  0.00    +0.020 A 
ATOM      2  C   UNL     1      36.672 109.198   6.135  0.00  0.00    +0.013 A 
ATOM      3  C   UNL     1      36.316 109.753   4.835  0.00  0.00    +0.019 A 
ATOM     38  C   UNL     1      37.019 110.944   4.383  0.00  0.00    +0.120 A 
ATOM     39  N   UNL     1      37.998 111.520   5.188  0.00  0.00    -0.263 NA
ATOM     40  C   UNL     1      38.347 110.995   6.441  0.00  0.00    +0.111 A 
ENDBRANCH   4   3
ENDBRANCH  10   9
BRANCH  12  13
ATOM     13  N   UNL     1      33.304 103.902  -1.526  0.00  0.00    -0.281 N 
ATOM     14  C   UNL     1      33.106 103.007  -0.487  0.00  0.00    +0.248 C 
ATOM     30  O   UNL     1      33.243 103.280   0.696  0.00  0.00    -0.270 OA
ATOM     31  H   UNL     1      33.348 103.499  -2.462  0.00  0.00    +0.155 HD
BRANCH  14  15
ATOM     15  C   UNL     1      32.714 101.601  -0.811  0.00  0.00    +0.037 A 
ATOM     16  C   UNL     1      32.749 101.099  -2.187  0.00  0.00    +0.013 A 
ATOM     17  C   UNL     1      32.349  99.745  -2.473  0.00  0.00    +0.005 A 
ATOM     18  C   UNL     1      31.911  98.881  -1.379  0.00  0.00    -0.033 A 
ATOM     28  C   UNL     1      31.890  99.403  -0.023  0.00  0.00    +0.005 A 
ATOM     29  C   UNL     1      32.281 100.730   0.262  0.00  0.00    +0.013 A 
BRANCH  18  19
ATOM     19  C   UNL     1      31.446  97.428  -1.596  0.00  0.00    +0.119 C 
BRANCH  19  20
ATOM     20  N   UNL     1      32.473  96.442  -2.046  0.00  0.00    -0.302 NA
ATOM     21  C   UNL     1      33.857  96.748  -1.468  0.00  0.00    +0.066 C 
ATOM     22  C   UNL     1      34.914  95.694  -1.931  0.00  0.00    -0.064 C 
ATOM     23  N   UNL     1      34.961  95.661  -3.460  0.00  0.00    +0.379 N 
ATOM     24  C   UNL     1      35.995  94.712  -3.899  0.00  0.00    -0.096 C 
ATOM     25  H   UNL     1      35.262  96.676  -3.810  0.00  0.00    -0.082 HD
ATOM     26  C   UNL     1      33.588  95.360  -4.044  0.00  0.00    -0.064 C 
ATOM     27  C   UNL     1      32.539  96.397  -3.553  0.00  0.00    +0.066 C 
ENDBRANCH  19  20
ENDBRANCH  18  19
ENDBRANCH  14  15
ENDBRANCH  12  13
TORSDOF 6
ENDMDL
MODEL 5
REMARK VINA RESULT:      -7.1     30.588     33.064
REMARK  Name = C:\Users\Docking\Desktop\test protocol\1iep_ligandH.pdb
REMARK  8 active torsions:
REMARK  status: ('A' for Active; 'I' for Inactive)
REMARK    1  A    between atoms: _5  and  _11
REMARK    2  A    between atoms: _19  and  _21
REMARK    3  A    between atoms: _22  and  _66
REMARK    4  A    between atoms: _27  and  _30
REMARK    5  A    between atoms: _32  and  _33
REMARK    6  A    between atoms: _38  and  _43
REMARK    7  A    between atoms: _43  and  _46
REMARK    8  A    between atoms: _53  and  _55
REMARK                            x       y       z     vdW  Elec       q    Type
REMARK                         _______ _______ _______ _____ _____    ______ ____
ROOT
ATOM     10  C   UNL     1      17.160  95.939  26.376  0.00  0.00    +0.038 A 
ATOM     11  C   UNL     1      18.447  95.488  26.769  0.00  0.00    +0.047 A 
ATOM     12  C   UNL     1      19.593  96.384  26.759  0.00  0.00    +0.035 A 
ATOM     32  C   UNL     1      19.392  97.733  26.347  0.00  0.00    +0.024 A 
ATOM     33  C   UNL     1      18.092  98.208  25.943  0.00  0.00    +0.007 A 
ATOM     34  C   UNL     1      16.958  97.328  25.948  0.00  0.00    -0.029 A 
ATOM     35  C   UNL     1      15.588  97.889  25.500  0.00  0.00    +0.045 C 
ENDROOT
BRANCH  10   9
ATOM      4  C   UNL     1      14.639  92.307  24.508  0.00  0.00    +0.077 A 
ATOM      5  C   UNL     1      15.501  92.218  23.365  0.00  0.00    +0.048 A 
ATOM      6  C   UNL     1      16.578  93.130  23.293  0.00  0.00    +0.116 A 
ATOM      7  N   UNL     1      16.769  94.057  24.294  0.00  0.00    -0.223 NA
ATOM      8  C   UNL     1      15.917  94.117  25.382  0.00  0.00    +0.220 A 
ATOM      9  N   UNL     1      16.095  95.036  26.405  0.00  0.00    -0.283 N 
ATOM     36  H   UNL     1      15.441  95.053  27.187  0.00  0.00    +0.155 HD
ATOM     37  N   UNL     1      14.881  93.258  25.474  0.00  0.00    -0.214 NA
BRANCH   4   3
ATOM      1  C   UNL     1      12.361  89.142  24.812  0.00  0.00    +0.020 A 
ATOM      2  C   UNL     1      13.528  89.962  24.586  0.00  0.00    +0.013 A 
ATOM      3  C   UNL     1      13.460  91.411  24.730  0.00  0.00    +0.019 A 
ATOM     38  C   UNL     1      12.185  92.003  25.107  0.00  0.00    +0.120 A 
ATOM     39  N   UNL     1      11.077  91.188  25.316  0.00  0.00    -0.263 NA
ATOM     40  C   UNL     1      11.131  89.793  25.179  0.00  0.00    +0.111 A 
ENDBRANCH   4   3
ENDBRANCH  10   9
BRANCH  12  13
ATOM     13  N   UNL     1      20.924  95.981  27.139  0.00  0.00    -0.281 N 
ATOM     14  C   UNL     1      21.480  95.968  28.408  0.00  0.00    +0.248 C 
ATOM     30  O   UNL     1      20.983  96.506  29.386  0.00  0.00    -0.270 OA
ATOM     31  H   UNL     1      21.530  95.667  26.381  0.00  0.00    +0.155 HD
BRANCH  14  15
ATOM     15  C   UNL     1      22.784  95.269  28.618  0.00  0.00    +0.037 A 
ATOM     16  C   UNL     1      23.686  94.990  27.497  0.00  0.00    +0.013 A 
ATOM     17  C   UNL     1      24.930  94.298  27.724  0.00  0.00    +0.005 A 
ATOM     18  C   UNL     1      25.281  93.882  29.080  0.00  0.00    -0.033 A 
ATOM     28  C   UNL     1      24.370  94.176  30.174  0.00  0.00    +0.005 A 
ATOM     29  C   UNL     1      23.149  94.853  29.955  0.00  0.00    +0.013 A 
BRANCH  18  19
ATOM     19  C   UNL     1      26.578  93.121  29.412  0.00  0.00    +0.119 C 
BRANCH  19  20
ATOM     20  N   UNL     1      26.460  91.657  29.687  0.00  0.00    -0.302 NA
ATOM     21  C   UNL     1      27.829  90.996  29.870  0.00  0.00    +0.066 C 
ATOM     22  C   UNL     1      27.687  89.470  30.179  0.00  0.00    -0.064 C 
ATOM     23  N   UNL     1      26.905  88.794  29.051  0.00  0.00    +0.379 N 
ATOM     24  C   UNL     1      26.820  87.350  29.310  0.00  0.00    -0.096 C 
ATOM     25  H   UNL     1      27.483  88.936  28.108  0.00  0.00    -0.082 HD
ATOM     26  C   UNL     1      25.544  89.448  28.860  0.00  0.00    -0.064 C 
ATOM     27  C   UNL     1      25.696  90.970  28.583  0.00  0.00    +0.066 C 
ENDBRANCH  19  20
ENDBRANCH  18  19
ENDBRANCH  14  15
ENDBRANCH  12  13
TORSDOF 6
ENDMDL
