MODEL 1
REMARK VINA RESULT:      -7.8      0.000      0.000
REMARK  Name = C:\Users\Docking\Desktop\test protocol\1iep_ligandH.pdb
REMARK  8 active torsions:
REMARK  status: ('A' for Active; 'I' for Inactive)
REMARK    1  A    between atoms: _5  and  _11
REMARK    2  A    between atoms: _19  and  _21
REMARK    3  A    between atoms: _22  and  _66
REMARK    4  A    between atoms: _27  and  _30
REMARK    5  A    between atoms: _32  and  _33
REMARK    6  A    between atoms: _38  and  _43
REMARK    7  A    between atoms: _43  and  _46
REMARK    8  A    between atoms: _53  and  _55
REMARK                            x       y       z     vdW  Elec       q    Type
REMARK                         _______ _______ _______ _____ _____    ______ ____
ROOT
ATOM     10  C   UNL     1      75.664   7.657   9.252  0.00  0.00    +0.038 A 
ATOM     11  C   UNL     1      75.750   8.374   8.031  0.00  0.00    +0.047 A 
ATOM     12  C   UNL     1      76.968   8.360   7.235  0.00  0.00    +0.035 A 
ATOM     32  C   UNL     1      78.078   7.603   7.711  0.00  0.00    +0.024 A 
ATOM     33  C   UNL     1      78.007   6.869   8.950  0.00  0.00    +0.007 A 
ATOM     34  C   UNL     1      76.810   6.881   9.741  0.00  0.00    -0.029 A 
ATOM     35  C   UNL     1      76.793   6.082  11.065  0.00  0.00    +0.045 C 
ENDROOT
BRANCH  10   9
ATOM      4  C   UNL     1      71.287   5.998  10.313  0.00  0.00    +0.077 A 
ATOM      5  C   UNL     1      71.374   4.964   9.322  0.00  0.00    +0.048 A 
ATOM      6  C   UNL     1      72.559   4.897   8.556  0.00  0.00    +0.116 A 
ATOM      7  N   UNL     1      73.575   5.803   8.773  0.00  0.00    -0.223 NA
ATOM      8  C   UNL     1      73.458   6.789   9.735  0.00  0.00    +0.220 A 
ATOM      9  N   UNL     1      74.470   7.706   9.976  0.00  0.00    -0.283 N 
ATOM     36  H   UNL     1      74.342   8.423  10.689  0.00  0.00    +0.155 HD
ATOM     37  N   UNL     1      72.336   6.875  10.479  0.00  0.00    -0.214 NA
BRANCH   4   3
ATOM      1  C   UNL     1      67.620   6.423  11.607  0.00  0.00    +0.020 A 
ATOM      2  C   UNL     1      68.731   6.230  10.704  0.00  0.00    +0.013 A 
ATOM      3  C   UNL     1      70.100   6.195  11.204  0.00  0.00    +0.019 A 
ATOM     38  C   UNL     1      70.312   6.360  12.634  0.00  0.00    +0.120 A 
ATOM     39  N   UNL     1      69.222   6.546  13.479  0.00  0.00    -0.263 NA
ATOM     40  C   UNL     1      67.901   6.582  13.010  0.00  0.00    +0.111 A 
ENDBRANCH   4   3
ENDBRANCH  10   9
BRANCH  12  13
ATOM     13  N   UNL     1      77.117   9.075   5.991  0.00  0.00    -0.281 N 
ATOM     14  C   UNL     1      76.476   8.832   4.787  0.00  0.00    +0.248 C 
ATOM     30  O   UNL     1      75.832   7.824   4.538  0.00  0.00    -0.270 OA
ATOM     31  H   UNL     1      77.775   9.854   6.000  0.00  0.00    +0.155 HD
BRANCH  14  15
ATOM     15  C   UNL     1      76.577   9.850   3.698  0.00  0.00    +0.037 A 
ATOM     16  C   UNL     1      75.699  11.022   3.669  0.00  0.00    +0.013 A 
ATOM     17  C   UNL     1      75.806  11.980   2.597  0.00  0.00    +0.005 A 
ATOM     18  C   UNL     1      76.797  11.770   1.545  0.00  0.00    -0.033 A 
ATOM     28  C   UNL     1      77.659  10.601   1.601  0.00  0.00    +0.005 A 
ATOM     29  C   UNL     1      77.557   9.659   2.649  0.00  0.00    +0.013 A 
BRANCH  18  19
ATOM     19  C   UNL     1      76.967  12.729   0.352  0.00  0.00    +0.119 C 
BRANCH  19  20
ATOM     20  N   UNL     1      78.069  13.734   0.434  0.00  0.00    -0.302 NA
ATOM     21  C   UNL     1      77.589  15.143   0.076  0.00  0.00    +0.066 C 
ATOM     22  C   UNL     1      78.750  16.185   0.189  0.00  0.00    -0.064 C 
ATOM     23  N   UNL     1      79.904  15.759  -0.720  0.00  0.00    +0.379 N 
ATOM     24  C   UNL     1      80.973  16.767  -0.661  0.00  0.00    -0.096 C 
ATOM     25  H   UNL     1      79.519  15.735  -1.766  0.00  0.00    -0.082 HD
ATOM     26  C   UNL     1      80.385  14.357  -0.373  0.00  0.00    -0.064 C 
ATOM     27  C   UNL     1      79.218  13.335  -0.459  0.00  0.00    +0.066 C 
ENDBRANCH  19  20
ENDBRANCH  18  19
ENDBRANCH  14  15
ENDBRANCH  12  13
TORSDOF 6
ENDMDL
MODEL 2
REMARK VINA RESULT:      -7.6     23.442     26.939
REMARK  Name = C:\Users\Docking\Desktop\test protocol\1iep_ligandH.pdb
REMARK  8 active torsions:
REMARK  status: ('A' for Active; 'I' for Inactive)
REMARK    1  A    between atoms: _5  and  _11
REMARK    2  A    between atoms: _19  and  _21
REMARK    3  A    between atoms: _22  and  _66
REMARK    4  A    between atoms: _27  and  _30
REMARK    5  A    between atoms: _32  and  _33
REMARK    6  A    between atoms: _38  and  _43
REMARK    7  A    between atoms: _43  and  _46
REMARK    8  A    between atoms: _53  and  _55
REMARK                            x       y       z     vdW  Elec       q    Type
REMARK                         _______ _______ _______ _____ _____    ______ ____
ROOT
ATOM     10  C   UNL     1      62.547  33.381   5.172  0.00  0.00    +0.038 A 
ATOM     11  C   UNL     1      62.743  33.093   3.797  0.00  0.00    +0.047 A 
ATOM     12  C   UNL     1      62.363  34.047   2.766  0.00  0.00    +0.035 A 
ATOM     32  C   UNL     1      61.789  35.287   3.172  0.00  0.00    +0.024 A 
ATOM     33  C   UNL     1      61.582  35.596   4.565  0.00  0.00    +0.007 A 
ATOM     34  C   UNL     1      61.952  34.658   5.586  0.00  0.00    -0.029 A 
ATOM     35  C   UNL     1      61.701  35.040   7.063  0.00  0.00    +0.045 C 
ENDROOT
BRANCH  10   9
ATOM      4  C   UNL     1      65.827  31.284   7.979  0.00  0.00    +0.077 A 
ATOM      5  C   UNL     1      66.872  32.141   7.498  0.00  0.00    +0.048 A 
ATOM      6  C   UNL     1      66.526  33.103   6.524  0.00  0.00    +0.116 A 
ATOM      7  N   UNL     1      65.227  33.193   6.071  0.00  0.00    -0.223 NA
ATOM      8  C   UNL     1      64.244  32.351   6.554  0.00  0.00    +0.220 A 
ATOM      9  N   UNL     1      62.930  32.429   6.119  0.00  0.00    -0.283 N 
ATOM     36  H   UNL     1      62.235  31.784   6.495  0.00  0.00    +0.155 HD
ATOM     37  N   UNL     1      64.549  31.422   7.484  0.00  0.00    -0.214 NA
BRANCH   4   3
ATOM      1  C   UNL     1      65.227  28.313  10.452  0.00  0.00    +0.020 A 
ATOM      2  C   UNL     1      64.973  29.325   9.452  0.00  0.00    +0.013 A 
ATOM      3  C   UNL     1      66.035  30.220   9.012  0.00  0.00    +0.019 A 
ATOM     38  C   UNL     1      67.354  30.064   9.607  0.00  0.00    +0.120 A 
ATOM     39  N   UNL     1      67.568  29.082  10.569  0.00  0.00    -0.263 NA
ATOM     40  C   UNL     1      66.553  28.216  11.002  0.00  0.00    +0.111 A 
ENDBRANCH   4   3
ENDBRANCH  10   9
BRANCH  12  13
ATOM     13  N   UNL     1      62.531  33.806   1.355  0.00  0.00    -0.281 N 
ATOM     14  C   UNL     1      63.714  33.657   0.651  0.00  0.00    +0.248 C 
ATOM     30  O   UNL     1      64.821  33.922   1.095  0.00  0.00    -0.270 OA
ATOM     31  H   UNL     1      61.672  33.737   0.808  0.00  0.00    +0.155 HD
BRANCH  14  15
ATOM     15  C   UNL     1      63.659  33.154  -0.756  0.00  0.00    +0.037 A 
ATOM     16  C   UNL     1      62.564  33.527  -1.654  0.00  0.00    +0.013 A 
ATOM     17  C   UNL     1      62.526  33.015  -3.001  0.00  0.00    +0.005 A 
ATOM     18  C   UNL     1      63.589  32.123  -3.458  0.00  0.00    -0.033 A 
ATOM     28  C   UNL     1      64.667  31.774  -2.548  0.00  0.00    +0.005 A 
ATOM     29  C   UNL     1      64.707  32.273  -1.227  0.00  0.00    +0.013 A 
BRANCH  18  19
ATOM     19  C   UNL     1      63.619  31.512  -4.871  0.00  0.00    +0.119 C 
BRANCH  19  20
ATOM     20  N   UNL     1      62.409  31.707  -5.726  0.00  0.00    -0.302 NA
ATOM     21  C   UNL     1      61.164  31.057  -5.116  0.00  0.00    +0.066 C 
ATOM     22  C   UNL     1      59.904  31.289  -6.011  0.00  0.00    -0.064 C 
ATOM     23  N   UNL     1      60.170  30.740  -7.414  0.00  0.00    +0.379 N 
ATOM     24  C   UNL     1      58.966  30.905  -8.242  0.00  0.00    -0.096 C 
ATOM     25  H   UNL     1      60.367  29.647  -7.317  0.00  0.00    -0.082 HD
ATOM     26  C   UNL     1      61.408  31.380  -8.027  0.00  0.00    -0.064 C 
ATOM     27  C   UNL     1      62.648  31.168  -7.115  0.00  0.00    +0.066 C 
ENDBRANCH  19  20
ENDBRANCH  18  19
ENDBRANCH  14  15
ENDBRANCH  12  13
TORSDOF 6
ENDMDL
MODEL 3
REMARK VINA RESULT:      -7.3     16.402     17.754
REMARK  Name = C:\Users\Docking\Desktop\test protocol\1iep_ligandH.pdb
REMARK  8 active torsions:
REMARK  status: ('A' for Active; 'I' for Inactive)
REMARK    1  A    between atoms: _5  and  _11
REMARK    2  A    between atoms: _19  and  _21
REMARK    3  A    between atoms: _22  and  _66
REMARK    4  A    between atoms: _27  and  _30
REMARK    5  A    between atoms: _32  and  _33
REMARK    6  A    between atoms: _38  and  _43
REMARK    7  A    between atoms: _43  and  _46
REMARK    8  A    between atoms: _53  and  _55
REMARK                            x       y       z     vdW  Elec       q    Type
REMARK                         _______ _______ _______ _____ _____    ______ ____
ROOT
ATOM     10  C   UNL     1      73.158  21.134  11.687  0.00  0.00    +0.038 A 
ATOM     11  C   UNL     1      72.386  22.321  11.595  0.00  0.00    +0.047 A 
ATOM     12  C   UNL     1      72.632  23.299  10.547  0.00  0.00    +0.035 A 
ATOM     32  C   UNL     1      73.670  23.035   9.607  0.00  0.00    +0.024 A 
ATOM     33  C   UNL     1      74.465  21.835   9.686  0.00  0.00    +0.007 A 
ATOM     34  C   UNL     1      74.229  20.867  10.719  0.00  0.00    -0.029 A 
ATOM     35  C   UNL     1      75.116  19.601  10.760  0.00  0.00    +0.045 C 
ENDROOT
BRANCH  10   9
ATOM      4  C   UNL     1      73.435  19.705  16.261  0.00  0.00    +0.077 A 
ATOM      5  C   UNL     1      74.225  20.844  16.631  0.00  0.00    +0.048 A 
ATOM      6  C   UNL     1      74.544  21.770  15.613  0.00  0.00    +0.116 A 
ATOM      7  N   UNL     1      74.101  21.563  14.324  0.00  0.00    -0.223 NA
ATOM      8  C   UNL     1      73.342  20.453  14.001  0.00  0.00    +0.220 A 
ATOM      9  N   UNL     1      72.879  20.229  12.714  0.00  0.00    -0.283 N 
ATOM     36  H   UNL     1      72.328  19.394  12.514  0.00  0.00    +0.155 HD
ATOM     37  N   UNL     1      73.025  19.553  14.955  0.00  0.00    -0.214 NA
BRANCH   4   3
ATOM      1  C   UNL     1      72.841  16.234  17.963  0.00  0.00    +0.020 A 
ATOM      2  C   UNL     1      73.269  17.222  17.000  0.00  0.00    +0.013 A 
ATOM      3  C   UNL     1      73.013  18.640  17.224  0.00  0.00    +0.019 A 
ATOM     38  C   UNL     1      72.316  19.026  18.442  0.00  0.00    +0.120 A 
ATOM     39  N   UNL     1      71.915  18.052  19.350  0.00  0.00    -0.263 NA
ATOM     40  C   UNL     1      72.154  16.685  19.145  0.00  0.00    +0.111 A 
ENDBRANCH   4   3
ENDBRANCH  10   9
BRANCH  12  13
ATOM     13  N   UNL     1      71.886  24.525  10.409  0.00  0.00    -0.281 N 
ATOM     14  C   UNL     1      70.601  24.690   9.919  0.00  0.00    +0.248 C 
ATOM     30  O   UNL     1      69.973  23.827   9.322  0.00  0.00    -0.270 OA
ATOM     31  H   UNL     1      72.364  25.375  10.709  0.00  0.00    +0.155 HD
BRANCH  14  15
ATOM     15  C   UNL     1      69.921  26.007  10.105  0.00  0.00    +0.037 A 
ATOM     16  C   UNL     1      68.650  26.111  10.828  0.00  0.00    +0.013 A 
ATOM     17  C   UNL     1      68.007  27.392  10.978  0.00  0.00    +0.005 A 
ATOM     18  C   UNL     1      68.634  28.581  10.405  0.00  0.00    -0.033 A 
ATOM     28  C   UNL     1      69.896  28.450   9.697  0.00  0.00    +0.005 A 
ATOM     29  C   UNL     1      70.530  27.196   9.547  0.00  0.00    +0.013 A 
BRANCH  18  19
ATOM     19  C   UNL     1      68.007  29.984  10.499  0.00  0.00    +0.119 C 
BRANCH  19  20
ATOM     20  N   UNL     1      67.596  30.637   9.220  0.00  0.00    -0.302 NA
ATOM     21  C   UNL     1      67.854  32.146   9.237  0.00  0.00    +0.066 C 
ATOM     22  C   UNL     1      67.439  32.809   7.883  0.00  0.00    -0.064 C 
ATOM     23  N   UNL     1      65.964  32.514   7.604  0.00  0.00    +0.379 N 
ATOM     24  C   UNL     1      65.556  33.185   6.361  0.00  0.00    -0.096 C 
ATOM     25  H   UNL     1      65.368  32.954   8.438  0.00  0.00    -0.082 HD
ATOM     26  C   UNL     1      65.699  31.016   7.589  0.00  0.00    -0.064 C 
ATOM     27  C   UNL     1      66.142  30.362   8.928  0.00  0.00    +0.066 C 
ENDBRANCH  19  20
ENDBRANCH  18  19
ENDBRANCH  14  15
ENDBRANCH  12  13
TORSDOF 6
ENDMDL
MODEL 4
REMARK VINA RESULT:      -7.1     16.865     18.182
REMARK  Name = C:\Users\Docking\Desktop\test protocol\1iep_ligandH.pdb
REMARK  8 active torsions:
REMARK  status: ('A' for Active; 'I' for Inactive)
REMARK    1  A    between atoms: _5  and  _11
REMARK    2  A    between atoms: _19  and  _21
REMARK    3  A    between atoms: _22  and  _66
REMARK    4  A    between atoms: _27  and  _30
REMARK    5  A    between atoms: _32  and  _33
REMARK    6  A    between atoms: _38  and  _43
REMARK    7  A    between atoms: _43  and  _46
REMARK    8  A    between atoms: _53  and  _55
REMARK                            x       y       z     vdW  Elec       q    Type
REMARK                         _______ _______ _______ _____ _____    ______ ____
ROOT
ATOM     10  C   UNL     1      73.186  20.976  11.661  0.00  0.00    +0.038 A 
ATOM     11  C   UNL     1      72.158  21.953  11.665  0.00  0.00    +0.047 A 
ATOM     12  C   UNL     1      72.131  23.021  10.678  0.00  0.00    +0.035 A 
ATOM     32  C   UNL     1      73.165  23.062   9.698  0.00  0.00    +0.024 A 
ATOM     33  C   UNL     1      74.218  22.076   9.679  0.00  0.00    +0.007 A 
ATOM     34  C   UNL     1      74.251  21.022  10.652  0.00  0.00    -0.029 A 
ATOM     35  C   UNL     1      75.407  19.997  10.588  0.00  0.00    +0.045 C 
ENDROOT
BRANCH  10   9
ATOM      4  C   UNL     1      72.761  19.494  16.206  0.00  0.00    +0.077 A 
ATOM      5  C   UNL     1      72.598  20.835  16.690  0.00  0.00    +0.048 A 
ATOM      6  C   UNL     1      72.636  21.878  15.738  0.00  0.00    +0.116 A 
ATOM      7  N   UNL     1      72.824  21.590  14.403  0.00  0.00    -0.223 NA
ATOM      8  C   UNL     1      72.980  20.286  13.970  0.00  0.00    +0.220 A 
ATOM      9  N   UNL     1      73.162  19.972  12.632  0.00  0.00    -0.283 N 
ATOM     36  H   UNL     1      73.281  18.998  12.354  0.00  0.00    +0.155 HD
ATOM     37  N   UNL     1      72.948  19.272  14.860  0.00  0.00    -0.214 NA
BRANCH   4   3
ATOM      1  C   UNL     1      73.240  15.860  17.572  0.00  0.00    +0.020 A 
ATOM      2  C   UNL     1      73.285  16.997  16.681  0.00  0.00    +0.013 A 
ATOM      3  C   UNL     1      72.740  18.285  17.089  0.00  0.00    +0.019 A 
ATOM     38  C   UNL     1      72.152  18.391  18.416  0.00  0.00    +0.120 A 
ATOM     39  N   UNL     1      72.122  17.279  19.252  0.00  0.00    -0.263 NA
ATOM     40  C   UNL     1      72.642  16.034  18.869  0.00  0.00    +0.111 A 
ENDBRANCH   4   3
ENDBRANCH  10   9
BRANCH  12  13
ATOM     13  N   UNL     1      71.118  24.047  10.638  0.00  0.00    -0.281 N 
ATOM     14  C   UNL     1      71.204  25.348  11.106  0.00  0.00    +0.248 C 
ATOM     30  O   UNL     1      72.099  25.765  11.827  0.00  0.00    -0.270 OA
ATOM     31  H   UNL     1      70.230  23.781  10.214  0.00  0.00    +0.155 HD
BRANCH  14  15
ATOM     15  C   UNL     1      70.135  26.322  10.732  0.00  0.00    +0.037 A 
ATOM     16  C   UNL     1      68.733  26.084  11.084  0.00  0.00    +0.013 A 
ATOM     17  C   UNL     1      67.719  27.032  10.696  0.00  0.00    +0.005 A 
ATOM     18  C   UNL     1      68.104  28.228   9.951  0.00  0.00    -0.033 A 
ATOM     28  C   UNL     1      69.503  28.442   9.619  0.00  0.00    +0.005 A 
ATOM     29  C   UNL     1      70.500  27.515   9.997  0.00  0.00    +0.013 A 
BRANCH  18  19
ATOM     19  C   UNL     1      67.086  29.283   9.477  0.00  0.00    +0.119 C 
BRANCH  19  20
ATOM     20  N   UNL     1      66.068  29.744  10.468  0.00  0.00    -0.302 NA
ATOM     21  C   UNL     1      64.646  29.363  10.050  0.00  0.00    +0.066 C 
ATOM     22  C   UNL     1      63.596  29.834  11.109  0.00  0.00    -0.064 C 
ATOM     23  N   UNL     1      63.716  31.346  11.304  0.00  0.00    +0.379 N 
ATOM     24  C   UNL     1      62.692  31.800  12.256  0.00  0.00    -0.096 C 
ATOM     25  H   UNL     1      63.505  31.831  10.323  0.00  0.00    -0.082 HD
ATOM     26  C   UNL     1      65.128  31.734  11.717  0.00  0.00    -0.064 C 
ATOM     27  C   UNL     1      66.166  31.236  10.673  0.00  0.00    +0.066 C 
ENDBRANCH  19  20
ENDBRANCH  18  19
ENDBRANCH  14  15
ENDBRANCH  12  13
TORSDOF 6
ENDMDL
MODEL 5
REMARK VINA RESULT:      -7.0     23.493     26.901
REMARK  Name = C:\Users\Docking\Desktop\test protocol\1iep_ligandH.pdb
REMARK  8 active torsions:
REMARK  status: ('A' for Active; 'I' for Inactive)
REMARK    1  A    between atoms: _5  and  _11
REMARK    2  A    between atoms: _19  and  _21
REMARK    3  A    between atoms: _22  and  _66
REMARK    4  A    between atoms: _27  and  _30
REMARK    5  A    between atoms: _32  and  _33
REMARK    6  A    between atoms: _38  and  _43
REMARK    7  A    between atoms: _43  and  _46
REMARK    8  A    between atoms: _53  and  _55
REMARK                            x       y       z     vdW  Elec       q    Type
REMARK                         _______ _______ _______ _____ _____    ______ ____
ROOT
ATOM     10  C   UNL     1      62.659  33.380   5.387  0.00  0.00    +0.038 A 
ATOM     11  C   UNL     1      62.682  33.133   3.991  0.00  0.00    +0.047 A 
ATOM     12  C   UNL     1      62.327  34.173   3.037  0.00  0.00    +0.035 A 
ATOM     32  C   UNL     1      61.955  35.453   3.541  0.00  0.00    +0.024 A 
ATOM     33  C   UNL     1      61.924  35.721   4.958  0.00  0.00    +0.007 A 
ATOM     34  C   UNL     1      62.271  34.698   5.903  0.00  0.00    -0.029 A 
ATOM     35  C   UNL     1      62.215  35.039   7.410  0.00  0.00    +0.045 C 
ENDROOT
BRANCH  10   9
ATOM      4  C   UNL     1      65.868  30.964   8.015  0.00  0.00    +0.077 A 
ATOM      5  C   UNL     1      66.942  31.819   7.597  0.00  0.00    +0.048 A 
ATOM      6  C   UNL     1      66.627  32.864   6.700  0.00  0.00    +0.116 A 
ATOM      7  N   UNL     1      65.332  33.033   6.260  0.00  0.00    -0.223 NA
ATOM      8  C   UNL     1      64.320  32.190   6.681  0.00  0.00    +0.220 A 
ATOM      9  N   UNL     1      63.010  32.345   6.258  0.00  0.00    -0.283 N 
ATOM     36  H   UNL     1      62.293  31.698   6.586  0.00  0.00    +0.155 HD
ATOM     37  N   UNL     1      64.595  31.183   7.537  0.00  0.00    -0.214 NA
BRANCH   4   3
ATOM      1  C   UNL     1      67.457  28.172  10.246  0.00  0.00    +0.020 A 
ATOM      2  C   UNL     1      67.346  29.280   9.325  0.00  0.00    +0.013 A 
ATOM      3  C   UNL     1      66.041  29.818   8.963  0.00  0.00    +0.019 A 
ATOM     38  C   UNL     1      64.859  29.209   9.555  0.00  0.00    +0.120 A 
ATOM     39  N   UNL     1      64.998  28.142  10.437  0.00  0.00    -0.263 NA
ATOM     40  C   UNL     1      66.248  27.614  10.792  0.00  0.00    +0.111 A 
ENDBRANCH   4   3
ENDBRANCH  10   9
BRANCH  12  13
ATOM     13  N   UNL     1      62.325  33.979   1.609  0.00  0.00    -0.281 N 
ATOM     14  C   UNL     1      63.405  33.709   0.784  0.00  0.00    +0.248 C 
ATOM     30  O   UNL     1      64.575  33.805   1.124  0.00  0.00    -0.270 OA
ATOM     31  H   UNL     1      61.417  34.049   1.149  0.00  0.00    +0.155 HD
BRANCH  14  15
ATOM     15  C   UNL     1      63.149  33.284  -0.626  0.00  0.00    +0.037 A 
ATOM     16  C   UNL     1      61.889  33.608  -1.300  0.00  0.00    +0.013 A 
ATOM     17  C   UNL     1      61.661  33.172  -2.655  0.00  0.00    +0.005 A 
ATOM     18  C   UNL     1      62.697  32.408  -3.345  0.00  0.00    -0.033 A 
ATOM     28  C   UNL     1      63.939  32.105  -2.655  0.00  0.00    +0.005 A 
ATOM     29  C   UNL     1      64.166  32.530  -1.326  0.00  0.00    +0.013 A 
BRANCH  18  19
ATOM     19  C   UNL     1      62.531  31.884  -4.784  0.00  0.00    +0.119 C 
BRANCH  19  20
ATOM     20  N   UNL     1      62.988  32.773  -5.893  0.00  0.00    -0.302 NA
ATOM     21  C   UNL     1      61.936  32.901  -6.998  0.00  0.00    +0.066 C 
ATOM     22  C   UNL     1      62.421  33.853  -8.139  0.00  0.00    -0.064 C 
ATOM     23  N   UNL     1      63.743  33.331  -8.707  0.00  0.00    +0.379 N 
ATOM     24  C   UNL     1      64.172  34.192  -9.819  0.00  0.00    -0.096 C 
ATOM     25  H   UNL     1      63.555  32.313  -9.120  0.00  0.00    -0.082 HD
ATOM     26  C   UNL     1      64.794  33.199  -7.614  0.00  0.00    -0.064 C 
ATOM     27  C   UNL     1      64.289  32.275  -6.471  0.00  0.00    +0.066 C 
ENDBRANCH  19  20
ENDBRANCH  18  19
ENDBRANCH  14  15
ENDBRANCH  12  13
TORSDOF 6
ENDMDL
