MODEL 1
REMARK VINA RESULT:     -10.8      0.000      0.000
REMARK  Name = C:\Users\Docking\Desktop\test protocol\1iep_ligandH.pdb
REMARK  8 active torsions:
REMARK  status: ('A' for Active; 'I' for Inactive)
REMARK    1  A    between atoms: _5  and  _11
REMARK    2  A    between atoms: _19  and  _21
REMARK    3  A    between atoms: _22  and  _66
REMARK    4  A    between atoms: _27  and  _30
REMARK    5  A    between atoms: _32  and  _33
REMARK    6  A    between atoms: _38  and  _43
REMARK    7  A    between atoms: _43  and  _46
REMARK    8  A    between atoms: _53  and  _55
REMARK                            x       y       z     vdW  Elec       q    Type
REMARK                         _______ _______ _______ _____ _____    ______ ____
ROOT
ATOM     10  C   UNL     1      30.241   7.184  15.736  0.00  0.00    +0.038 A 
ATOM     11  C   UNL     1      31.127   7.466  14.665  0.00  0.00    +0.047 A 
ATOM     12  C   UNL     1      32.515   7.823  14.912  0.00  0.00    +0.035 A 
ATOM     32  C   UNL     1      32.969   7.881  16.262  0.00  0.00    +0.024 A 
ATOM     33  C   UNL     1      32.082   7.598  17.363  0.00  0.00    +0.007 A 
ATOM     34  C   UNL     1      30.710   7.248  17.126  0.00  0.00    -0.029 A 
ATOM     35  C   UNL     1      29.803   6.961  18.344  0.00  0.00    +0.045 C 
ENDROOT
BRANCH  10   9
ATOM      4  C   UNL     1      26.867   4.024  14.444  0.00  0.00    +0.077 A 
ATOM      5  C   UNL     1      27.824   2.964  14.318  0.00  0.00    +0.048 A 
ATOM      6  C   UNL     1      29.176   3.274  14.587  0.00  0.00    +0.116 A 
ATOM      7  N   UNL     1      29.532   4.554  14.955  0.00  0.00    -0.223 NA
ATOM      8  C   UNL     1      28.584   5.554  15.066  0.00  0.00    +0.220 A 
ATOM      9  N   UNL     1      28.918   6.846  15.442  0.00  0.00    -0.283 N 
ATOM     36  H   UNL     1      28.190   7.557  15.505  0.00  0.00    +0.155 HD
ATOM     37  N   UNL     1      27.287   5.283  14.812  0.00  0.00    -0.214 NA
BRANCH   4   3
ATOM      1  C   UNL     1      23.127   2.929  14.781  0.00  0.00    +0.020 A 
ATOM      2  C   UNL     1      24.537   3.064  15.066  0.00  0.00    +0.013 A 
ATOM      3  C   UNL     1      25.400   3.852  14.196  0.00  0.00    +0.019 A 
ATOM     38  C   UNL     1      24.801   4.498  13.038  0.00  0.00    +0.120 A 
ATOM     39  N   UNL     1      23.440   4.349  12.788  0.00  0.00    -0.263 NA
ATOM     40  C   UNL     1      22.600   3.592  13.617  0.00  0.00    +0.111 A 
ENDBRANCH   4   3
ENDBRANCH  10   9
BRANCH  12  13
ATOM     13  N   UNL     1      33.459   8.128  13.865  0.00  0.00    -0.281 N 
ATOM     14  C   UNL     1      34.000   9.361  13.539  0.00  0.00    +0.248 C 
ATOM     30  O   UNL     1      33.589  10.430  13.963  0.00  0.00    -0.270 OA
ATOM     31  H   UNL     1      33.766   7.339  13.296  0.00  0.00    +0.155 HD
BRANCH  14  15
ATOM     15  C   UNL     1      35.156   9.415  12.592  0.00  0.00    +0.037 A 
ATOM     16  C   UNL     1      35.149   8.653  11.341  0.00  0.00    +0.013 A 
ATOM     17  C   UNL     1      36.284   8.709  10.454  0.00  0.00    +0.005 A 
ATOM     18  C   UNL     1      37.435   9.533  10.815  0.00  0.00    -0.033 A 
ATOM     28  C   UNL     1      37.413  10.283  12.060  0.00  0.00    +0.005 A 
ATOM     29  C   UNL     1      36.303  10.229  12.933  0.00  0.00    +0.013 A 
BRANCH  18  19
ATOM     19  C   UNL     1      38.698   9.636   9.940  0.00  0.00    +0.119 C 
BRANCH  19  20
ATOM     20  N   UNL     1      38.551  10.281   8.600  0.00  0.00    -0.302 NA
ATOM     21  C   UNL     1      39.842  10.205   7.781  0.00  0.00    +0.066 C 
ATOM     22  C   UNL     1      39.663  10.864   6.375  0.00  0.00    -0.064 C 
ATOM     23  N   UNL     1      39.216  12.316   6.548  0.00  0.00    +0.379 N 
ATOM     24  C   UNL     1      39.104  12.956   5.229  0.00  0.00    -0.096 C 
ATOM     25  H   UNL     1      40.014  12.850   7.116  0.00  0.00    -0.082 HD
ATOM     26  C   UNL     1      37.934  12.401   7.364  0.00  0.00    -0.064 C 
ATOM     27  C   UNL     1      38.114  11.717   8.748  0.00  0.00    +0.066 C 
ENDBRANCH  19  20
ENDBRANCH  18  19
ENDBRANCH  14  15
ENDBRANCH  12  13
TORSDOF 6
ENDMDL
MODEL 2
REMARK VINA RESULT:     -10.7      1.839      2.724
REMARK  Name = C:\Users\Docking\Desktop\test protocol\1iep_ligandH.pdb
REMARK  8 active torsions:
REMARK  status: ('A' for Active; 'I' for Inactive)
REMARK    1  A    between atoms: _5  and  _11
REMARK    2  A    between atoms: _19  and  _21
REMARK    3  A    between atoms: _22  and  _66
REMARK    4  A    between atoms: _27  and  _30
REMARK    5  A    between atoms: _32  and  _33
REMARK    6  A    between atoms: _38  and  _43
REMARK    7  A    between atoms: _43  and  _46
REMARK    8  A    between atoms: _53  and  _55
REMARK                            x       y       z     vdW  Elec       q    Type
REMARK                         _______ _______ _______ _____ _____    ______ ____
ROOT
ATOM     10  C   UNL     1      31.875   8.574  14.830  0.00  0.00    +0.038 A 
ATOM     11  C   UNL     1      32.705   8.869  13.718  0.00  0.00    +0.047 A 
ATOM     12  C   UNL     1      33.998   9.511  13.894  0.00  0.00    +0.035 A 
ATOM     32  C   UNL     1      34.416   9.837  15.217  0.00  0.00    +0.024 A 
ATOM     33  C   UNL     1      33.585   9.546  16.358  0.00  0.00    +0.007 A 
ATOM     34  C   UNL     1      32.307   8.915  16.191  0.00  0.00    -0.029 A 
ATOM     35  C   UNL     1      31.455   8.632  17.450  0.00  0.00    +0.045 C 
ENDROOT
BRANCH  10   9
ATOM      4  C   UNL     1      29.065   4.690  14.606  0.00  0.00    +0.077 A 
ATOM      5  C   UNL     1      30.150   3.813  14.943  0.00  0.00    +0.048 A 
ATOM      6  C   UNL     1      31.416   4.401  15.159  0.00  0.00    +0.116 A 
ATOM      7  N   UNL     1      31.575   5.765  15.044  0.00  0.00    -0.223 NA
ATOM      8  C   UNL     1      30.508   6.582  14.716  0.00  0.00    +0.220 A 
ATOM      9  N   UNL     1      30.643   7.957  14.604  0.00  0.00    -0.283 N 
ATOM     36  H   UNL     1      29.833   8.524  14.353  0.00  0.00    +0.155 HD
ATOM     37  N   UNL     1      29.289   6.044  14.504  0.00  0.00    -0.214 NA
BRANCH   4   3
ATOM      1  C   UNL     1      25.840   2.482  14.445  0.00  0.00    +0.020 A 
ATOM      2  C   UNL     1      27.201   2.886  14.712  0.00  0.00    +0.013 A 
ATOM      3  C   UNL     1      27.667   4.219  14.352  0.00  0.00    +0.019 A 
ATOM     38  C   UNL     1      26.722   5.127  13.718  0.00  0.00    +0.120 A 
ATOM     39  N   UNL     1      25.418   4.709  13.471  0.00  0.00    -0.263 NA
ATOM     40  C   UNL     1      24.959   3.428  13.812  0.00  0.00    +0.111 A 
ENDBRANCH   4   3
ENDBRANCH  10   9
BRANCH  12  13
ATOM     13  N   UNL     1      34.880   9.842  12.802  0.00  0.00    -0.281 N 
ATOM     14  C   UNL     1      35.266   9.035  11.745  0.00  0.00    +0.248 C 
ATOM     30  O   UNL     1      35.078   7.829  11.691  0.00  0.00    -0.270 OA
ATOM     31  H   UNL     1      35.267  10.786  12.811  0.00  0.00    +0.155 HD
BRANCH  14  15
ATOM     15  C   UNL     1      35.976   9.655  10.585  0.00  0.00    +0.037 A 
ATOM     16  C   UNL     1      35.849   9.104   9.233  0.00  0.00    +0.013 A 
ATOM     17  C   UNL     1      36.558   9.711   8.135  0.00  0.00    +0.005 A 
ATOM     18  C   UNL     1      37.401  10.879   8.385  0.00  0.00    -0.033 A 
ATOM     28  C   UNL     1      37.504  11.408   9.734  0.00  0.00    +0.005 A 
ATOM     29  C   UNL     1      36.811  10.815  10.813  0.00  0.00    +0.013 A 
BRANCH  18  19
ATOM     19  C   UNL     1      38.210  11.578   7.277  0.00  0.00    +0.119 C 
BRANCH  19  20
ATOM     20  N   UNL     1      39.558  11.020   6.959  0.00  0.00    -0.302 NA
ATOM     21  C   UNL     1      40.688  11.924   7.462  0.00  0.00    +0.066 C 
ATOM     22  C   UNL     1      42.091  11.314   7.141  0.00  0.00    -0.064 C 
ATOM     23  N   UNL     1      42.211  11.084   5.633  0.00  0.00    +0.379 N 
ATOM     24  C   UNL     1      43.551  10.564   5.322  0.00  0.00    -0.096 C 
ATOM     25  H   UNL     1      42.107  12.074   5.131  0.00  0.00    -0.082 HD
ATOM     26  C   UNL     1      41.091  10.188   5.124  0.00  0.00    -0.064 C 
ATOM     27  C   UNL     1      39.701  10.789   5.474  0.00  0.00    +0.066 C 
ENDBRANCH  19  20
ENDBRANCH  18  19
ENDBRANCH  14  15
ENDBRANCH  12  13
TORSDOF 6
ENDMDL
MODEL 3
REMARK VINA RESULT:     -10.7      4.525     14.098
REMARK  Name = C:\Users\Docking\Desktop\test protocol\1iep_ligandH.pdb
REMARK  8 active torsions:
REMARK  status: ('A' for Active; 'I' for Inactive)
REMARK    1  A    between atoms: _5  and  _11
REMARK    2  A    between atoms: _19  and  _21
REMARK    3  A    between atoms: _22  and  _66
REMARK    4  A    between atoms: _27  and  _30
REMARK    5  A    between atoms: _32  and  _33
REMARK    6  A    between atoms: _38  and  _43
REMARK    7  A    between atoms: _43  and  _46
REMARK    8  A    between atoms: _53  and  _55
REMARK                            x       y       z     vdW  Elec       q    Type
REMARK                         _______ _______ _______ _____ _____    ______ ____
ROOT
ATOM     10  C   UNL     1      30.164   6.160  14.572  0.00  0.00    +0.038 A 
ATOM     11  C   UNL     1      28.768   6.121  14.325  0.00  0.00    +0.047 A 
ATOM     12  C   UNL     1      27.956   5.001  14.774  0.00  0.00    +0.035 A 
ATOM     32  C   UNL     1      28.598   3.938  15.474  0.00  0.00    +0.024 A 
ATOM     33  C   UNL     1      30.016   3.962  15.733  0.00  0.00    +0.007 A 
ATOM     34  C   UNL     1      30.823   5.063  15.290  0.00  0.00    -0.029 A 
ATOM     35  C   UNL     1      32.340   5.032  15.589  0.00  0.00    +0.045 C 
ENDROOT
BRANCH  10   9
ATOM      4  C   UNL     1      31.960  10.575  15.141  0.00  0.00    +0.077 A 
ATOM      5  C   UNL     1      31.369  10.712  16.441  0.00  0.00    +0.048 A 
ATOM      6  C   UNL     1      30.604   9.626  16.924  0.00  0.00    +0.116 A 
ATOM      7  N   UNL     1      30.449   8.493  16.155  0.00  0.00    -0.223 NA
ATOM      8  C   UNL     1      31.032   8.394  14.905  0.00  0.00    +0.220 A 
ATOM      9  N   UNL     1      30.895   7.260  14.118  0.00  0.00    -0.283 N 
ATOM     36  H   UNL     1      31.334   7.229  13.198  0.00  0.00    +0.155 HD
ATOM     37  N   UNL     1      31.765   9.417  14.421  0.00  0.00    -0.214 NA
BRANCH   4   3
ATOM      1  C   UNL     1      33.120  13.918  13.473  0.00  0.00    +0.020 A 
ATOM      2  C   UNL     1      32.267  12.929  14.093  0.00  0.00    +0.013 A 
ATOM      3  C   UNL     1      32.799  11.633  14.495  0.00  0.00    +0.019 A 
ATOM     38  C   UNL     1      34.209  11.367  14.255  0.00  0.00    +0.120 A 
ATOM     39  N   UNL     1      35.006  12.337  13.655  0.00  0.00    -0.263 NA
ATOM     40  C   UNL     1      34.504  13.587  13.262  0.00  0.00    +0.111 A 
ENDBRANCH   4   3
ENDBRANCH  10   9
BRANCH  12  13
ATOM     13  N   UNL     1      26.535   4.902  14.545  0.00  0.00    -0.281 N 
ATOM     14  C   UNL     1      25.874   4.099  13.631  0.00  0.00    +0.248 C 
ATOM     30  O   UNL     1      26.419   3.496  12.718  0.00  0.00    -0.270 OA
ATOM     31  H   UNL     1      25.946   5.496  15.129  0.00  0.00    +0.155 HD
BRANCH  14  15
ATOM     15  C   UNL     1      24.390   3.955  13.737  0.00  0.00    +0.037 A 
ATOM     16  C   UNL     1      23.491   4.665  12.823  0.00  0.00    +0.013 A 
ATOM     17  C   UNL     1      22.063   4.522  12.958  0.00  0.00    +0.005 A 
ATOM     18  C   UNL     1      21.525   3.664  14.011  0.00  0.00    -0.033 A 
ATOM     28  C   UNL     1      22.440   2.967  14.900  0.00  0.00    +0.005 A 
ATOM     29  C   UNL     1      23.840   3.105  14.772  0.00  0.00    +0.013 A 
BRANCH  18  19
ATOM     19  C   UNL     1      20.015   3.469  14.242  0.00  0.00    +0.119 C 
BRANCH  19  20
ATOM     20  N   UNL     1      19.187   3.078  13.062  0.00  0.00    -0.302 NA
ATOM     21  C   UNL     1      17.693   3.037  13.395  0.00  0.00    +0.066 C 
ATOM     22  C   UNL     1      16.841   2.648  12.144  0.00  0.00    -0.064 C 
ATOM     23  N   UNL     1      17.314   1.295  11.609  0.00  0.00    +0.379 N 
ATOM     24  C   UNL     1      16.476   0.898  10.468  0.00  0.00    -0.096 C 
ATOM     25  H   UNL     1      17.163   0.541  12.417  0.00  0.00    -0.082 HD
ATOM     26  C   UNL     1      18.799   1.325  11.277  0.00  0.00    -0.064 C 
ATOM     27  C   UNL     1      19.634   1.742  12.520  0.00  0.00    +0.066 C 
ENDBRANCH  19  20
ENDBRANCH  18  19
ENDBRANCH  14  15
ENDBRANCH  12  13
TORSDOF 6
ENDMDL
MODEL 4
REMARK VINA RESULT:     -10.5      6.797     13.982
REMARK  Name = C:\Users\Docking\Desktop\test protocol\1iep_ligandH.pdb
REMARK  8 active torsions:
REMARK  status: ('A' for Active; 'I' for Inactive)
REMARK    1  A    between atoms: _5  and  _11
REMARK    2  A    between atoms: _19  and  _21
REMARK    3  A    between atoms: _22  and  _66
REMARK    4  A    between atoms: _27  and  _30
REMARK    5  A    between atoms: _32  and  _33
REMARK    6  A    between atoms: _38  and  _43
REMARK    7  A    between atoms: _43  and  _46
REMARK    8  A    between atoms: _53  and  _55
REMARK                            x       y       z     vdW  Elec       q    Type
REMARK                         _______ _______ _______ _____ _____    ______ ____
ROOT
ATOM     10  C   UNL     1      29.780   6.472  15.457  0.00  0.00    +0.038 A 
ATOM     11  C   UNL     1      28.530   6.037  14.947  0.00  0.00    +0.047 A 
ATOM     12  C   UNL     1      28.364   4.699  14.402  0.00  0.00    +0.035 A 
ATOM     32  C   UNL     1      29.492   3.828  14.395  0.00  0.00    +0.024 A 
ATOM     33  C   UNL     1      30.770   4.253  14.908  0.00  0.00    +0.007 A 
ATOM     34  C   UNL     1      30.941   5.573  15.444  0.00  0.00    -0.029 A 
ATOM     35  C   UNL     1      32.336   5.978  15.975  0.00  0.00    +0.045 C 
ENDROOT
BRANCH  10   9
ATOM      4  C   UNL     1      29.722   9.605  19.093  0.00  0.00    +0.077 A 
ATOM      5  C   UNL     1      29.435   8.577  20.052  0.00  0.00    +0.048 A 
ATOM      6  C   UNL     1      29.303   7.256  19.567  0.00  0.00    +0.116 A 
ATOM      7  N   UNL     1      29.450   6.994  18.222  0.00  0.00    -0.223 NA
ATOM      8  C   UNL     1      29.724   8.009  17.324  0.00  0.00    +0.220 A 
ATOM      9  N   UNL     1      29.884   7.768  15.968  0.00  0.00    -0.283 N 
ATOM     36  H   UNL     1      30.078   8.544  15.337  0.00  0.00    +0.155 HD
ATOM     37  N   UNL     1      29.854   9.279  17.761  0.00  0.00    -0.214 NA
BRANCH   4   3
ATOM      1  C   UNL     1      31.068  12.930  20.652  0.00  0.00    +0.020 A 
ATOM      2  C   UNL     1      30.946  11.525  20.339  0.00  0.00    +0.013 A 
ATOM      3  C   UNL     1      29.893  11.048  19.450  0.00  0.00    +0.019 A 
ATOM     38  C   UNL     1      28.974  12.027  18.890  0.00  0.00    +0.120 A 
ATOM     39  N   UNL     1      29.115  13.374  19.210  0.00  0.00    -0.263 NA
ATOM     40  C   UNL     1      30.123  13.844  20.066  0.00  0.00    +0.111 A 
ENDBRANCH   4   3
ENDBRANCH  10   9
BRANCH  12  13
ATOM     13  N   UNL     1      27.121   4.205  13.864  0.00  0.00    -0.281 N 
ATOM     14  C   UNL     1      26.435   3.056  14.221  0.00  0.00    +0.248 C 
ATOM     30  O   UNL     1      26.897   2.162  14.914  0.00  0.00    -0.270 OA
ATOM     31  H   UNL     1      26.695   4.771  13.129  0.00  0.00    +0.155 HD
BRANCH  14  15
ATOM     15  C   UNL     1      25.038   2.865  13.726  0.00  0.00    +0.037 A 
ATOM     16  C   UNL     1      24.352   1.578  13.862  0.00  0.00    +0.013 A 
ATOM     17  C   UNL     1      23.010   1.416  13.360  0.00  0.00    +0.005 A 
ATOM     18  C   UNL     1      22.345   2.548  12.718  0.00  0.00    -0.033 A 
ATOM     28  C   UNL     1      23.047   3.815  12.601  0.00  0.00    +0.005 A 
ATOM     29  C   UNL     1      24.362   3.977  13.091  0.00  0.00    +0.013 A 
BRANCH  18  19
ATOM     19  C   UNL     1      20.922   2.460  12.134  0.00  0.00    +0.119 C 
BRANCH  19  20
ATOM     20  N   UNL     1      19.890   1.757  12.953  0.00  0.00    -0.302 NA
ATOM     21  C   UNL     1      19.268   0.576  12.202  0.00  0.00    +0.066 C 
ATOM     22  C   UNL     1      18.206  -0.162  13.081  0.00  0.00    -0.064 C 
ATOM     23  N   UNL     1      17.128   0.833  13.515  0.00  0.00    +0.379 N 
ATOM     24  C   UNL     1      16.097   0.130  14.294  0.00  0.00    -0.096 C 
ATOM     25  H   UNL     1      16.643   1.230  12.593  0.00  0.00    -0.082 HD
ATOM     26  C   UNL     1      17.738   2.012  14.260  0.00  0.00    -0.064 C 
ATOM     27  C   UNL     1      18.813   2.719  13.389  0.00  0.00    +0.066 C 
ENDBRANCH  19  20
ENDBRANCH  18  19
ENDBRANCH  14  15
ENDBRANCH  12  13
TORSDOF 6
ENDMDL
MODEL 5
REMARK VINA RESULT:     -10.5      1.978     12.713
REMARK  Name = C:\Users\Docking\Desktop\test protocol\1iep_ligandH.pdb
REMARK  8 active torsions:
REMARK  status: ('A' for Active; 'I' for Inactive)
REMARK    1  A    between atoms: _5  and  _11
REMARK    2  A    between atoms: _19  and  _21
REMARK    3  A    between atoms: _22  and  _66
REMARK    4  A    between atoms: _27  and  _30
REMARK    5  A    between atoms: _32  and  _33
REMARK    6  A    between atoms: _38  and  _43
REMARK    7  A    between atoms: _43  and  _46
REMARK    8  A    between atoms: _53  and  _55
REMARK                            x       y       z     vdW  Elec       q    Type
REMARK                         _______ _______ _______ _____ _____    ______ ____
ROOT
ATOM     10  C   UNL     1      32.943   9.853  14.865  0.00  0.00    +0.038 A 
ATOM     11  C   UNL     1      31.943   8.945  14.434  0.00  0.00    +0.047 A 
ATOM     12  C   UNL     1      31.144   8.195  15.391  0.00  0.00    +0.035 A 
ATOM     32  C   UNL     1      31.389   8.397  16.781  0.00  0.00    +0.024 A 
ATOM     33  C   UNL     1      32.402   9.316  17.237  0.00  0.00    +0.007 A 
ATOM     34  C   UNL     1      33.195  10.056  16.297  0.00  0.00    -0.029 A 
ATOM     35  C   UNL     1      34.272  11.023  16.843  0.00  0.00    +0.045 C 
ENDROOT
BRANCH  10   9
ATOM      4  C   UNL     1      35.722   9.997  10.955  0.00  0.00    +0.077 A 
ATOM      5  C   UNL     1      35.727   8.568  10.833  0.00  0.00    +0.048 A 
ATOM      6  C   UNL     1      35.008   7.832  11.802  0.00  0.00    +0.116 A 
ATOM      7  N   UNL     1      34.337   8.487  12.812  0.00  0.00    -0.223 NA
ATOM      8  C   UNL     1      34.354   9.867  12.901  0.00  0.00    +0.220 A 
ATOM      9  N   UNL     1      33.680  10.547  13.903  0.00  0.00    -0.283 N 
ATOM     36  H   UNL     1      33.723  11.565  13.939  0.00  0.00    +0.155 HD
ATOM     37  N   UNL     1      35.035  10.592  11.989  0.00  0.00    -0.214 NA
BRANCH   4   3
ATOM      1  C   UNL     1      37.332  13.170   9.330  0.00  0.00    +0.020 A 
ATOM      2  C   UNL     1      36.639  12.329  10.279  0.00  0.00    +0.013 A 
ATOM      3  C   UNL     1      36.432  10.913  10.007  0.00  0.00    +0.019 A 
ATOM     38  C   UNL     1      36.943  10.373   8.756  0.00  0.00    +0.120 A 
ATOM     39  N   UNL     1      37.605  11.208   7.860  0.00  0.00    -0.263 NA
ATOM     40  C   UNL     1      37.809  12.573   8.111  0.00  0.00    +0.111 A 
ENDBRANCH   4   3
ENDBRANCH  10   9
BRANCH  12  13
ATOM     13  N   UNL     1      30.120   7.253  15.012  0.00  0.00    -0.281 N 
ATOM     14  C   UNL     1      30.258   5.895  14.776  0.00  0.00    +0.248 C 
ATOM     30  O   UNL     1      31.329   5.320  14.647  0.00  0.00    -0.270 OA
ATOM     31  H   UNL     1      29.180   7.633  14.904  0.00  0.00    +0.155 HD
BRANCH  14  15
ATOM     15  C   UNL     1      29.028   5.055  14.652  0.00  0.00    +0.037 A 
ATOM     16  C   UNL     1      29.015   3.656  15.085  0.00  0.00    +0.013 A 
ATOM     17  C   UNL     1      27.820   2.863  14.938  0.00  0.00    +0.005 A 
ATOM     18  C   UNL     1      26.626   3.470  14.356  0.00  0.00    -0.033 A 
ATOM     28  C   UNL     1      26.664   4.862  13.939  0.00  0.00    +0.005 A 
ATOM     29  C   UNL     1      27.834   5.641  14.080  0.00  0.00    +0.013 A 
BRANCH  18  19
ATOM     19  C   UNL     1      25.313   2.694  14.141  0.00  0.00    +0.119 C 
BRANCH  19  20
ATOM     20  N   UNL     1      24.040   3.473  14.203  0.00  0.00    -0.302 NA
ATOM     21  C   UNL     1      23.287   3.240  15.516  0.00  0.00    +0.066 C 
ATOM     22  C   UNL     1      21.970   4.080  15.572  0.00  0.00    -0.064 C 
ATOM     23  N   UNL     1      21.090   3.724  14.373  0.00  0.00    +0.379 N 
ATOM     24  C   UNL     1      19.825   4.470  14.455  0.00  0.00    -0.096 C 
ATOM     25  H   UNL     1      20.848   2.638  14.442  0.00  0.00    -0.082 HD
ATOM     26  C   UNL     1      21.832   3.950  13.063  0.00  0.00    -0.064 C 
ATOM     27  C   UNL     1      23.154   3.134  13.029  0.00  0.00    +0.066 C 
ENDBRANCH  19  20
ENDBRANCH  18  19
ENDBRANCH  14  15
ENDBRANCH  12  13
TORSDOF 6
ENDMDL
