MODEL 1
REMARK VINA RESULT:      -8.1      0.000      0.000
REMARK  Name = C:\Users\Docking\Desktop\test protocol\1iep_ligandH.pdb
REMARK  8 active torsions:
REMARK  status: ('A' for Active; 'I' for Inactive)
REMARK    1  A    between atoms: _5  and  _11
REMARK    2  A    between atoms: _19  and  _21
REMARK    3  A    between atoms: _22  and  _66
REMARK    4  A    between atoms: _27  and  _30
REMARK    5  A    between atoms: _32  and  _33
REMARK    6  A    between atoms: _38  and  _43
REMARK    7  A    between atoms: _43  and  _46
REMARK    8  A    between atoms: _53  and  _55
REMARK                            x       y       z     vdW  Elec       q    Type
REMARK                         _______ _______ _______ _____ _____    ______ ____
ROOT
ATOM     10  C   UNL     1      36.056  14.191   5.396  0.00  0.00    +0.038 A 
ATOM     11  C   UNL     1      35.005  14.966   5.951  0.00  0.00    +0.047 A 
ATOM     12  C   UNL     1      35.071  15.452   7.320  0.00  0.00    +0.035 A 
ATOM     32  C   UNL     1      36.224  15.133   8.096  0.00  0.00    +0.024 A 
ATOM     33  C   UNL     1      37.300  14.345   7.548  0.00  0.00    +0.007 A 
ATOM     34  C   UNL     1      37.239  13.860   6.199  0.00  0.00    -0.029 A 
ATOM     35  C   UNL     1      38.420  13.015   5.666  0.00  0.00    +0.045 C 
ENDROOT
BRANCH  10   9
ATOM      4  C   UNL     1      36.920  14.631   0.695  0.00  0.00    +0.077 A 
ATOM      5  C   UNL     1      37.640  15.858   0.883  0.00  0.00    +0.048 A 
ATOM      6  C   UNL     1      37.759  16.345   2.204  0.00  0.00    +0.116 A 
ATOM      7  N   UNL     1      37.197  15.649   3.251  0.00  0.00    -0.223 NA
ATOM      8  C   UNL     1      36.507  14.470   3.036  0.00  0.00    +0.220 A 
ATOM      9  N   UNL     1      35.940  13.750   4.076  0.00  0.00    -0.283 N 
ATOM     36  H   UNL     1      35.433  12.888   3.875  0.00  0.00    +0.155 HD
ATOM     37  N   UNL     1      36.378  13.985   1.784  0.00  0.00    -0.214 NA
BRANCH   4   3
ATOM      1  C   UNL     1      35.960  12.079  -2.109  0.00  0.00    +0.020 A 
ATOM      2  C   UNL     1      36.140  12.655  -0.797  0.00  0.00    +0.013 A 
ATOM      3  C   UNL     1      36.712  13.987  -0.640  0.00  0.00    +0.019 A 
ATOM     38  C   UNL     1      37.092  14.715  -1.841  0.00  0.00    +0.120 A 
ATOM     39  N   UNL     1      36.907  14.134  -3.092  0.00  0.00    -0.263 NA
ATOM     40  C   UNL     1      36.360  12.853  -3.255  0.00  0.00    +0.111 A 
ENDBRANCH   4   3
ENDBRANCH  10   9
BRANCH  12  13
ATOM     13  N   UNL     1      34.032  16.236   7.940  0.00  0.00    -0.281 N 
ATOM     14  C   UNL     1      33.634  17.525   7.624  0.00  0.00    +0.248 C 
ATOM     30  O   UNL     1      34.259  18.282   6.896  0.00  0.00    -0.270 OA
ATOM     31  H   UNL     1      33.528  15.787   8.704  0.00  0.00    +0.155 HD
BRANCH  14  15
ATOM     15  C   UNL     1      32.367  18.055   8.213  0.00  0.00    +0.037 A 
ATOM     16  C   UNL     1      32.384  19.098   9.241  0.00  0.00    +0.013 A 
ATOM     17  C   UNL     1      31.148  19.579   9.805  0.00  0.00    +0.005 A 
ATOM     18  C   UNL     1      29.882  19.017   9.339  0.00  0.00    -0.033 A 
ATOM     28  C   UNL     1      29.894  17.987   8.314  0.00  0.00    +0.005 A 
ATOM     29  C   UNL     1      31.104  17.512   7.760  0.00  0.00    +0.013 A 
BRANCH  18  19
ATOM     19  C   UNL     1      28.516  19.455   9.900  0.00  0.00    +0.119 C 
BRANCH  19  20
ATOM     20  N   UNL     1      28.262  19.211  11.351  0.00  0.00    -0.302 NA
ATOM     21  C   UNL     1      28.714  17.814  11.786  0.00  0.00    +0.066 C 
ATOM     22  C   UNL     1      28.461  17.584  13.312  0.00  0.00    -0.064 C 
ATOM     23  N   UNL     1      26.977  17.793  13.618  0.00  0.00    +0.379 N 
ATOM     24  C   UNL     1      26.727  17.521  15.041  0.00  0.00    -0.096 C 
ATOM     25  H   UNL     1      26.401  17.047  13.024  0.00  0.00    -0.082 HD
ATOM     26  C   UNL     1      26.520  19.179  13.186  0.00  0.00    -0.064 C 
ATOM     27  C   UNL     1      26.802  19.408  11.675  0.00  0.00    +0.066 C 
ENDBRANCH  19  20
ENDBRANCH  18  19
ENDBRANCH  14  15
ENDBRANCH  12  13
TORSDOF 6
ENDMDL
MODEL 2
REMARK VINA RESULT:      -7.7     11.945     15.365
REMARK  Name = C:\Users\Docking\Desktop\test protocol\1iep_ligandH.pdb
REMARK  8 active torsions:
REMARK  status: ('A' for Active; 'I' for Inactive)
REMARK    1  A    between atoms: _5  and  _11
REMARK    2  A    between atoms: _19  and  _21
REMARK    3  A    between atoms: _22  and  _66
REMARK    4  A    between atoms: _27  and  _30
REMARK    5  A    between atoms: _32  and  _33
REMARK    6  A    between atoms: _38  and  _43
REMARK    7  A    between atoms: _43  and  _46
REMARK    8  A    between atoms: _53  and  _55
REMARK                            x       y       z     vdW  Elec       q    Type
REMARK                         _______ _______ _______ _____ _____    ______ ____
ROOT
ATOM     10  C   UNL     1      23.763  20.256  13.989  0.00  0.00    +0.038 A 
ATOM     11  C   UNL     1      23.373  20.319  12.626  0.00  0.00    +0.047 A 
ATOM     12  C   UNL     1      22.735  21.506  12.080  0.00  0.00    +0.035 A 
ATOM     32  C   UNL     1      22.511  22.613  12.949  0.00  0.00    +0.024 A 
ATOM     33  C   UNL     1      22.900  22.566  14.337  0.00  0.00    +0.007 A 
ATOM     34  C   UNL     1      23.527  21.397  14.882  0.00  0.00    -0.029 A 
ATOM     35  C   UNL     1      23.917  21.400  16.379  0.00  0.00    +0.045 C 
ENDROOT
BRANCH  10   9
ATOM      4  C   UNL     1      27.638  17.567  14.877  0.00  0.00    +0.077 A 
ATOM      5  C   UNL     1      28.522  18.555  14.331  0.00  0.00    +0.048 A 
ATOM      6  C   UNL     1      27.939  19.739  13.825  0.00  0.00    +0.116 A 
ATOM      7  N   UNL     1      26.572  19.910  13.868  0.00  0.00    -0.223 NA
ATOM      8  C   UNL     1      25.748  18.936  14.400  0.00  0.00    +0.220 A 
ATOM      9  N   UNL     1      24.371  19.091  14.460  0.00  0.00    -0.283 N 
ATOM     36  H   UNL     1      23.797  18.346  14.854  0.00  0.00    +0.155 HD
ATOM     37  N   UNL     1      26.280  17.796  14.888  0.00  0.00    -0.214 NA
BRANCH   4   3
ATOM      1  C   UNL     1      28.284  13.749  15.433  0.00  0.00    +0.020 A 
ATOM      2  C   UNL     1      27.811  14.977  14.836  0.00  0.00    +0.013 A 
ATOM      3  C   UNL     1      28.103  16.265  15.453  0.00  0.00    +0.019 A 
ATOM     38  C   UNL     1      28.882  16.276  16.681  0.00  0.00    +0.120 A 
ATOM     39  N   UNL     1      29.323  15.078  17.234  0.00  0.00    -0.263 NA
ATOM     40  C   UNL     1      29.047  13.832  16.651  0.00  0.00    +0.111 A 
ENDBRANCH   4   3
ENDBRANCH  10   9
BRANCH  12  13
ATOM     13  N   UNL     1      22.310  21.624  10.707  0.00  0.00    -0.281 N 
ATOM     14  C   UNL     1      22.958  22.272   9.668  0.00  0.00    +0.248 C 
ATOM     30  O   UNL     1      23.903  23.034   9.811  0.00  0.00    -0.270 OA
ATOM     31  H   UNL     1      21.424  21.176  10.473  0.00  0.00    +0.155 HD
BRANCH  14  15
ATOM     15  C   UNL     1      22.479  22.052   8.269  0.00  0.00    +0.037 A 
ATOM     16  C   UNL     1      21.070  21.772   7.984  0.00  0.00    +0.013 A 
ATOM     17  C   UNL     1      20.637  21.547   6.628  0.00  0.00    +0.005 A 
ATOM     18  C   UNL     1      21.616  21.603   5.545  0.00  0.00    -0.033 A 
ATOM     28  C   UNL     1      23.007  21.887   5.856  0.00  0.00    +0.005 A 
ATOM     29  C   UNL     1      23.435  22.108   7.184  0.00  0.00    +0.013 A 
BRANCH  18  19
ATOM     19  C   UNL     1      21.248  21.355   4.071  0.00  0.00    +0.119 C 
BRANCH  19  20
ATOM     20  N   UNL     1      19.808  21.110   3.757  0.00  0.00    -0.302 NA
ATOM     21  C   UNL     1      19.434  19.631   3.894  0.00  0.00    +0.066 C 
ATOM     22  C   UNL     1      17.919  19.397   3.585  0.00  0.00    -0.064 C 
ATOM     23  N   UNL     1      17.604  19.908   2.178  0.00  0.00    +0.379 N 
ATOM     24  C   UNL     1      16.194  19.636   1.862  0.00  0.00    -0.096 C 
ATOM     25  H   UNL     1      18.229  19.328   1.460  0.00  0.00    -0.082 HD
ATOM     26  C   UNL     1      17.976  21.377   2.032  0.00  0.00    -0.064 C 
ATOM     27  C   UNL     1      19.476  21.603   2.371  0.00  0.00    +0.066 C 
ENDBRANCH  19  20
ENDBRANCH  18  19
ENDBRANCH  14  15
ENDBRANCH  12  13
TORSDOF 6
ENDMDL
MODEL 3
REMARK VINA RESULT:      -7.5     13.627     19.932
REMARK  Name = C:\Users\Docking\Desktop\test protocol\1iep_ligandH.pdb
REMARK  8 active torsions:
REMARK  status: ('A' for Active; 'I' for Inactive)
REMARK    1  A    between atoms: _5  and  _11
REMARK    2  A    between atoms: _19  and  _21
REMARK    3  A    between atoms: _22  and  _66
REMARK    4  A    between atoms: _27  and  _30
REMARK    5  A    between atoms: _32  and  _33
REMARK    6  A    between atoms: _38  and  _43
REMARK    7  A    between atoms: _43  and  _46
REMARK    8  A    between atoms: _53  and  _55
REMARK                            x       y       z     vdW  Elec       q    Type
REMARK                         _______ _______ _______ _____ _____    ______ ____
ROOT
ATOM     10  C   UNL     1      23.717  21.623  18.014  0.00  0.00    +0.038 A 
ATOM     11  C   UNL     1      23.385  21.862  16.656  0.00  0.00    +0.047 A 
ATOM     12  C   UNL     1      24.133  21.237  15.577  0.00  0.00    +0.035 A 
ATOM     32  C   UNL     1      25.213  20.371  15.917  0.00  0.00    +0.024 A 
ATOM     33  C   UNL     1      25.566  20.118  17.292  0.00  0.00    +0.007 A 
ATOM     34  C   UNL     1      24.833  20.734  18.361  0.00  0.00    -0.029 A 
ATOM     35  C   UNL     1      25.259  20.432  19.816  0.00  0.00    +0.045 C 
ENDROOT
BRANCH  10   9
ATOM      4  C   UNL     1      20.092  21.706  21.159  0.00  0.00    +0.077 A 
ATOM      5  C   UNL     1      19.642  20.402  20.765  0.00  0.00    +0.048 A 
ATOM      6  C   UNL     1      20.368  19.746  19.745  0.00  0.00    +0.116 A 
ATOM      7  N   UNL     1      21.459  20.359  19.169  0.00  0.00    -0.223 NA
ATOM      8  C   UNL     1      21.865  21.618  19.570  0.00  0.00    +0.220 A 
ATOM      9  N   UNL     1      22.965  22.250  19.010  0.00  0.00    -0.283 N 
ATOM     36  H   UNL     1      23.227  23.182  19.329  0.00  0.00    +0.155 HD
ATOM     37  N   UNL     1      21.188  22.266  20.542  0.00  0.00    -0.214 NA
BRANCH   4   3
ATOM      1  C   UNL     1      17.426  23.229  23.582  0.00  0.00    +0.020 A 
ATOM      2  C   UNL     1      18.014  22.416  22.543  0.00  0.00    +0.013 A 
ATOM      3  C   UNL     1      19.432  22.525  22.225  0.00  0.00    +0.019 A 
ATOM     38  C   UNL     1      20.234  23.472  22.984  0.00  0.00    +0.120 A 
ATOM     39  N   UNL     1      19.640  24.243  23.978  0.00  0.00    -0.263 NA
ATOM     40  C   UNL     1      18.276  24.148  24.292  0.00  0.00    +0.111 A 
ENDBRANCH   4   3
ENDBRANCH  10   9
BRANCH  12  13
ATOM     13  N   UNL     1      23.846  21.448  14.180  0.00  0.00    -0.281 N 
ATOM     14  C   UNL     1      23.502  20.502  13.229  0.00  0.00    +0.248 C 
ATOM     30  O   UNL     1      23.597  19.294  13.389  0.00  0.00    -0.270 OA
ATOM     31  H   UNL     1      23.905  22.412  13.852  0.00  0.00    +0.155 HD
BRANCH  14  15
ATOM     15  C   UNL     1      22.992  20.964  11.902  0.00  0.00    +0.037 A 
ATOM     16  C   UNL     1      23.846  20.947  10.711  0.00  0.00    +0.013 A 
ATOM     17  C   UNL     1      23.334  21.414   9.448  0.00  0.00    +0.005 A 
ATOM     18  C   UNL     1      21.960  21.902   9.368  0.00  0.00    -0.033 A 
ATOM     28  C   UNL     1      21.133  21.903  10.563  0.00  0.00    +0.005 A 
ATOM     29  C   UNL     1      21.631  21.446  11.804  0.00  0.00    +0.013 A 
BRANCH  18  19
ATOM     19  C   UNL     1      21.337  22.439   8.065  0.00  0.00    +0.119 C 
BRANCH  19  20
ATOM     20  N   UNL     1      20.613  21.461   7.199  0.00  0.00    -0.302 NA
ATOM     21  C   UNL     1      21.209  21.391   5.790  0.00  0.00    +0.066 C 
ATOM     22  C   UNL     1      20.454  20.347   4.904  0.00  0.00    -0.064 C 
ATOM     23  N   UNL     1      18.969  20.709   4.848  0.00  0.00    +0.379 N 
ATOM     24  C   UNL     1      18.266  19.763   3.969  0.00  0.00    -0.096 C 
ATOM     25  H   UNL     1      18.886  21.722   4.390  0.00  0.00    -0.082 HD
ATOM     26  C   UNL     1      18.370  20.784   6.245  0.00  0.00    -0.064 C 
ATOM     27  C   UNL     1      19.145  21.802   7.126  0.00  0.00    +0.066 C 
ENDBRANCH  19  20
ENDBRANCH  18  19
ENDBRANCH  14  15
ENDBRANCH  12  13
TORSDOF 6
ENDMDL
MODEL 4
REMARK VINA RESULT:      -7.5      3.239      5.610
REMARK  Name = C:\Users\Docking\Desktop\test protocol\1iep_ligandH.pdb
REMARK  8 active torsions:
REMARK  status: ('A' for Active; 'I' for Inactive)
REMARK    1  A    between atoms: _5  and  _11
REMARK    2  A    between atoms: _19  and  _21
REMARK    3  A    between atoms: _22  and  _66
REMARK    4  A    between atoms: _27  and  _30
REMARK    5  A    between atoms: _32  and  _33
REMARK    6  A    between atoms: _38  and  _43
REMARK    7  A    between atoms: _43  and  _46
REMARK    8  A    between atoms: _53  and  _55
REMARK                            x       y       z     vdW  Elec       q    Type
REMARK                         _______ _______ _______ _____ _____    ______ ____
ROOT
ATOM     10  C   UNL     1      32.743  18.583   5.251  0.00  0.00    +0.038 A 
ATOM     11  C   UNL     1      31.998  18.435   6.449  0.00  0.00    +0.047 A 
ATOM     12  C   UNL     1      31.074  19.467   6.893  0.00  0.00    +0.035 A 
ATOM     32  C   UNL     1      30.931  20.636   6.091  0.00  0.00    +0.024 A 
ATOM     33  C   UNL     1      31.681  20.804   4.871  0.00  0.00    +0.007 A 
ATOM     34  C   UNL     1      32.596  19.790   4.429  0.00  0.00    -0.029 A 
ATOM     35  C   UNL     1      33.379  20.026   3.116  0.00  0.00    +0.045 C 
ENDROOT
BRANCH  10   9
ATOM      4  C   UNL     1      36.974  16.328   5.480  0.00  0.00    +0.077 A 
ATOM      5  C   UNL     1      37.499  17.282   6.413  0.00  0.00    +0.048 A 
ATOM      6  C   UNL     1      36.651  18.343   6.803  0.00  0.00    +0.116 A 
ATOM      7  N   UNL     1      35.374  18.432   6.292  0.00  0.00    -0.223 NA
ATOM      8  C   UNL     1      34.899  17.495   5.392  0.00  0.00    +0.220 A 
ATOM      9  N   UNL     1      33.616  17.560   4.872  0.00  0.00    -0.283 N 
ATOM     36  H   UNL     1      33.306  16.854   4.205  0.00  0.00    +0.155 HD
ATOM     37  N   UNL     1      35.690  16.474   5.003  0.00  0.00    -0.214 NA
BRANCH   4   3
ATOM      1  C   UNL     1      39.540  13.389   5.198  0.00  0.00    +0.020 A 
ATOM      2  C   UNL     1      38.825  14.525   5.731  0.00  0.00    +0.013 A 
ATOM      3  C   UNL     1      37.747  15.150   4.974  0.00  0.00    +0.019 A 
ATOM     38  C   UNL     1      37.415  14.595   3.670  0.00  0.00    +0.120 A 
ATOM     39  N   UNL     1      38.122  13.501   3.182  0.00  0.00    -0.263 NA
ATOM     40  C   UNL     1      39.162  12.893   3.901  0.00  0.00    +0.111 A 
ENDBRANCH   4   3
ENDBRANCH  10   9
BRANCH  12  13
ATOM     13  N   UNL     1      30.298  19.376   8.104  0.00  0.00    -0.281 N 
ATOM     14  C   UNL     1      29.059  18.780   8.279  0.00  0.00    +0.248 C 
ATOM     30  O   UNL     1      28.331  18.419   7.366  0.00  0.00    -0.270 OA
ATOM     31  H   UNL     1      30.711  19.802   8.934  0.00  0.00    +0.155 HD
BRANCH  14  15
ATOM     15  C   UNL     1      28.550  18.567   9.668  0.00  0.00    +0.037 A 
ATOM     16  C   UNL     1      27.317  19.208  10.132  0.00  0.00    +0.013 A 
ATOM     17  C   UNL     1      26.857  18.999  11.482  0.00  0.00    +0.005 A 
ATOM     18  C   UNL     1      27.631  18.144  12.378  0.00  0.00    -0.033 A 
ATOM     28  C   UNL     1      28.848  17.516  11.890  0.00  0.00    +0.005 A 
ATOM     29  C   UNL     1      29.302  17.719  10.568  0.00  0.00    +0.013 A 
BRANCH  18  19
ATOM     19  C   UNL     1      27.227  17.882  13.841  0.00  0.00    +0.119 C 
BRANCH  19  20
ATOM     20  N   UNL     1      28.064  16.922  14.620  0.00  0.00    -0.302 NA
ATOM     21  C   UNL     1      27.483  15.505  14.600  0.00  0.00    +0.066 C 
ATOM     22  C   UNL     1      28.383  14.509  15.402  0.00  0.00    -0.064 C 
ATOM     23  N   UNL     1      28.539  15.010  16.839  0.00  0.00    +0.379 N 
ATOM     24  C   UNL     1      29.337  14.046  17.610  0.00  0.00    -0.096 C 
ATOM     25  H   UNL     1      27.523  15.050  17.295  0.00  0.00    -0.082 HD
ATOM     26  C   UNL     1      29.114  16.420  16.868  0.00  0.00    -0.064 C 
ATOM     27  C   UNL     1      28.228  17.395  16.044  0.00  0.00    +0.066 C 
ENDBRANCH  19  20
ENDBRANCH  18  19
ENDBRANCH  14  15
ENDBRANCH  12  13
TORSDOF 6
ENDMDL
MODEL 5
REMARK VINA RESULT:      -7.5      3.031      4.551
REMARK  Name = C:\Users\Docking\Desktop\test protocol\1iep_ligandH.pdb
REMARK  8 active torsions:
REMARK  status: ('A' for Active; 'I' for Inactive)
REMARK    1  A    between atoms: _5  and  _11
REMARK    2  A    between atoms: _19  and  _21
REMARK    3  A    between atoms: _22  and  _66
REMARK    4  A    between atoms: _27  and  _30
REMARK    5  A    between atoms: _32  and  _33
REMARK    6  A    between atoms: _38  and  _43
REMARK    7  A    between atoms: _43  and  _46
REMARK    8  A    between atoms: _53  and  _55
REMARK                            x       y       z     vdW  Elec       q    Type
REMARK                         _______ _______ _______ _____ _____    ______ ____
ROOT
ATOM     10  C   UNL     1      37.253  14.707   2.353  0.00  0.00    +0.038 A 
ATOM     11  C   UNL     1      36.157  15.303   3.027  0.00  0.00    +0.047 A 
ATOM     12  C   UNL     1      35.829  14.942   4.398  0.00  0.00    +0.035 A 
ATOM     32  C   UNL     1      36.643  13.972   5.053  0.00  0.00    +0.024 A 
ATOM     33  C   UNL     1      37.760  13.356   4.383  0.00  0.00    +0.007 A 
ATOM     34  C   UNL     1      38.086  13.706   3.030  0.00  0.00    -0.029 A 
ATOM     35  C   UNL     1      39.292  13.009   2.358  0.00  0.00    +0.045 C 
ENDROOT
BRANCH  10   9
ATOM      4  C   UNL     1      36.945  14.059  -2.392  0.00  0.00    +0.077 A 
ATOM      5  C   UNL     1      36.209  12.837  -2.237  0.00  0.00    +0.048 A 
ATOM      6  C   UNL     1      35.937  12.406  -0.919  0.00  0.00    +0.116 A 
ATOM      7  N   UNL     1      36.373  13.150   0.156  0.00  0.00    -0.223 NA
ATOM      8  C   UNL     1      37.081  14.323  -0.029  0.00  0.00    +0.220 A 
ATOM      9  N   UNL     1      37.522  15.092   1.038  0.00  0.00    -0.283 N 
ATOM     36  H   UNL     1      38.048  15.947   0.860  0.00  0.00    +0.155 HD
ATOM     37  N   UNL     1      37.355  14.755  -1.278  0.00  0.00    -0.214 NA
BRANCH   4   3
ATOM      1  C   UNL     1      38.408  16.396  -5.167  0.00  0.00    +0.020 A 
ATOM      2  C   UNL     1      38.084  15.871  -3.861  0.00  0.00    +0.013 A 
ATOM      3  C   UNL     1      37.308  14.646  -3.721  0.00  0.00    +0.019 A 
ATOM     38  C   UNL     1      36.871  13.970  -4.933  0.00  0.00    +0.120 A 
ATOM     39  N   UNL     1      37.196  14.499  -6.178  0.00  0.00    -0.263 NA
ATOM     40  C   UNL     1      37.942  15.678  -6.325  0.00  0.00    +0.111 A 
ENDBRANCH   4   3
ENDBRANCH  10   9
BRANCH  12  13
ATOM     13  N   UNL     1      34.724  15.507   5.130  0.00  0.00    -0.281 N 
ATOM     14  C   UNL     1      34.753  16.535   6.059  0.00  0.00    +0.248 C 
ATOM     30  O   UNL     1      35.773  16.983   6.561  0.00  0.00    -0.270 OA
ATOM     31  H   UNL     1      33.807  15.101   4.941  0.00  0.00    +0.155 HD
BRANCH  14  15
ATOM     15  C   UNL     1      33.463  17.142   6.505  0.00  0.00    +0.037 A 
ATOM     16  C   UNL     1      33.170  17.347   7.926  0.00  0.00    +0.013 A 
ATOM     17  C   UNL     1      31.911  17.920   8.330  0.00  0.00    +0.005 A 
ATOM     18  C   UNL     1      30.934  18.294   7.310  0.00  0.00    -0.033 A 
ATOM     28  C   UNL     1      31.252  18.084   5.907  0.00  0.00    +0.005 A 
ATOM     29  C   UNL     1      32.485  17.522   5.507  0.00  0.00    +0.013 A 
BRANCH  18  19
ATOM     19  C   UNL     1      29.556  18.892   7.650  0.00  0.00    +0.119 C 
BRANCH  19  20
ATOM     20  N   UNL     1      28.514  18.860   6.581  0.00  0.00    -0.302 NA
ATOM     21  C   UNL     1      28.326  20.228   5.921  0.00  0.00    +0.066 C 
ATOM     22  C   UNL     1      27.248  20.171   4.790  0.00  0.00    -0.064 C 
ATOM     23  N   UNL     1      25.927  19.665   5.373  0.00  0.00    +0.379 N 
ATOM     24  C   UNL     1      24.896  19.665   4.325  0.00  0.00    -0.096 C 
ATOM     25  H   UNL     1      25.608  20.385   6.162  0.00  0.00    -0.082 HD
ATOM     26  C   UNL     1      26.106  18.306   6.034  0.00  0.00    -0.064 C 
ATOM     27  C   UNL     1      27.200  18.366   7.136  0.00  0.00    +0.066 C 
ENDBRANCH  19  20
ENDBRANCH  18  19
ENDBRANCH  14  15
ENDBRANCH  12  13
TORSDOF 6
ENDMDL
