MODEL 1
REMARK VINA RESULT:     -10.4      0.000      0.000
REMARK  Name = C:\Users\Docking\Desktop\test protocol\1iep_ligandH.pdb
REMARK  8 active torsions:
REMARK  status: ('A' for Active; 'I' for Inactive)
REMARK    1  A    between atoms: _5  and  _11
REMARK    2  A    between atoms: _19  and  _21
REMARK    3  A    between atoms: _22  and  _66
REMARK    4  A    between atoms: _27  and  _30
REMARK    5  A    between atoms: _32  and  _33
REMARK    6  A    between atoms: _38  and  _43
REMARK    7  A    between atoms: _43  and  _46
REMARK    8  A    between atoms: _53  and  _55
REMARK                            x       y       z     vdW  Elec       q    Type
REMARK                         _______ _______ _______ _____ _____    ______ ____
ROOT
ATOM     10  C   UNL     1      -2.440   6.676  36.890  0.00  0.00    +0.038 A 
ATOM     11  C   UNL     1      -3.350   7.018  37.923  0.00  0.00    +0.047 A 
ATOM     12  C   UNL     1      -2.902   7.707  39.123  0.00  0.00    +0.035 A 
ATOM     32  C   UNL     1      -1.520   8.034  39.239  0.00  0.00    +0.024 A 
ATOM     33  C   UNL     1      -0.580   7.692  38.200  0.00  0.00    +0.007 A 
ATOM     34  C   UNL     1      -1.016   7.011  37.014  0.00  0.00    -0.029 A 
ATOM     35  C   UNL     1       0.037   6.664  35.936  0.00  0.00    +0.045 C 
ENDROOT
BRANCH  10   9
ATOM      4  C   UNL     1      -5.548   6.221  33.261  0.00  0.00    +0.077 A 
ATOM      5  C   UNL     1      -6.285   7.382  33.669  0.00  0.00    +0.048 A 
ATOM      6  C   UNL     1      -5.836   8.064  34.823  0.00  0.00    +0.116 A 
ATOM      7  N   UNL     1      -4.730   7.610  35.509  0.00  0.00    -0.223 NA
ATOM      8  C   UNL     1      -4.043   6.486  35.089  0.00  0.00    +0.220 A 
ATOM      9  N   UNL     1      -2.924   6.016  35.759  0.00  0.00    -0.283 N 
ATOM     36  H   UNL     1      -2.449   5.179  35.422  0.00  0.00    +0.155 HD
ATOM     37  N   UNL     1      -4.453   5.816  33.992  0.00  0.00    -0.214 NA
BRANCH   4   3
ATOM      1  C   UNL     1      -6.694   5.135  29.683  0.00  0.00    +0.020 A 
ATOM      2  C   UNL     1      -6.371   5.977  30.812  0.00  0.00    +0.013 A 
ATOM      3  C   UNL     1      -5.896   5.396  32.062  0.00  0.00    +0.019 A 
ATOM     38  C   UNL     1      -5.757   3.950  32.136  0.00  0.00    +0.120 A 
ATOM     39  N   UNL     1      -6.077   3.165  31.033  0.00  0.00    -0.263 NA
ATOM     40  C   UNL     1      -6.536   3.712  29.826  0.00  0.00    +0.111 A 
ENDBRANCH   4   3
ENDBRANCH  10   9
BRANCH  12  13
ATOM     13  N   UNL     1      -3.779   8.072  40.208  0.00  0.00    -0.281 N 
ATOM     14  C   UNL     1      -3.759   7.608  41.513  0.00  0.00    +0.248 C 
ATOM     30  O   UNL     1      -3.114   6.643  41.893  0.00  0.00    -0.270 OA
ATOM     31  H   UNL     1      -4.503   8.757  39.987  0.00  0.00    +0.155 HD
BRANCH  14  15
ATOM     15  C   UNL     1      -4.587   8.309  42.541  0.00  0.00    +0.037 A 
ATOM     16  C   UNL     1      -5.216   9.602  42.259  0.00  0.00    +0.013 A 
ATOM     17  C   UNL     1      -5.995  10.265  43.274  0.00  0.00    +0.005 A 
ATOM     18  C   UNL     1      -6.150   9.634  44.583  0.00  0.00    -0.033 A 
ATOM     28  C   UNL     1      -5.520   8.349  44.835  0.00  0.00    +0.005 A 
ATOM     29  C   UNL     1      -4.755   7.697  43.842  0.00  0.00    +0.013 A 
BRANCH  18  19
ATOM     19  C   UNL     1      -6.946  10.279  45.733  0.00  0.00    +0.119 C 
BRANCH  19  20
ATOM     20  N   UNL     1      -6.166  10.990  46.790  0.00  0.00    -0.302 NA
ATOM     21  C   UNL     1      -6.239  10.269  48.139  0.00  0.00    +0.066 C 
ATOM     22  C   UNL     1      -5.399  11.014  49.228  0.00  0.00    -0.064 C 
ATOM     23  N   UNL     1      -5.897  12.454  49.356  0.00  0.00    +0.379 N 
ATOM     24  C   UNL     1      -5.149  13.140  50.419  0.00  0.00    -0.096 C 
ATOM     25  H   UNL     1      -6.967  12.415  49.666  0.00  0.00    -0.082 HD
ATOM     26  C   UNL     1      -5.831  13.177  48.018  0.00  0.00    -0.064 C 
ATOM     27  C   UNL     1      -6.645  12.413  46.936  0.00  0.00    +0.066 C 
ENDBRANCH  19  20
ENDBRANCH  18  19
ENDBRANCH  14  15
ENDBRANCH  12  13
TORSDOF 6
ENDMDL
MODEL 2
REMARK VINA RESULT:      -9.8      3.354     12.997
REMARK  Name = C:\Users\Docking\Desktop\test protocol\1iep_ligandH.pdb
REMARK  8 active torsions:
REMARK  status: ('A' for Active; 'I' for Inactive)
REMARK    1  A    between atoms: _5  and  _11
REMARK    2  A    between atoms: _19  and  _21
REMARK    3  A    between atoms: _22  and  _66
REMARK    4  A    between atoms: _27  and  _30
REMARK    5  A    between atoms: _32  and  _33
REMARK    6  A    between atoms: _38  and  _43
REMARK    7  A    between atoms: _43  and  _46
REMARK    8  A    between atoms: _53  and  _55
REMARK                            x       y       z     vdW  Elec       q    Type
REMARK                         _______ _______ _______ _____ _____    ______ ____
ROOT
ATOM     10  C   UNL     1      -7.026  10.794  45.878  0.00  0.00    +0.038 A 
ATOM     11  C   UNL     1      -6.107  10.680  44.804  0.00  0.00    +0.047 A 
ATOM     12  C   UNL     1      -5.615   9.382  44.369  0.00  0.00    +0.035 A 
ATOM     32  C   UNL     1      -6.083   8.220  45.048  0.00  0.00    +0.024 A 
ATOM     33  C   UNL     1      -7.016   8.317  46.143  0.00  0.00    +0.007 A 
ATOM     34  C   UNL     1      -7.503   9.595  46.579  0.00  0.00    -0.029 A 
ATOM     35  C   UNL     1      -8.497   9.640  47.762  0.00  0.00    +0.045 C 
ENDROOT
BRANCH  10   9
ATOM      4  C   UNL     1      -9.902  14.602  45.367  0.00  0.00    +0.077 A 
ATOM      5  C   UNL     1     -10.569  14.021  44.237  0.00  0.00    +0.048 A 
ATOM      6  C   UNL     1     -10.137  12.744  43.815  0.00  0.00    +0.116 A 
ATOM      7  N   UNL     1      -9.113  12.104  44.481  0.00  0.00    -0.223 NA
ATOM      8  C   UNL     1      -8.490  12.693  45.566  0.00  0.00    +0.220 A 
ATOM      9  N   UNL     1      -7.465  12.065  46.255  0.00  0.00    -0.283 N 
ATOM     36  H   UNL     1      -7.026  12.536  47.046  0.00  0.00    +0.155 HD
ATOM     37  N   UNL     1      -8.884  13.913  45.987  0.00  0.00    -0.214 NA
BRANCH   4   3
ATOM      1  C   UNL     1     -11.783  17.926  46.213  0.00  0.00    +0.020 A 
ATOM      2  C   UNL     1     -11.498  16.631  45.638  0.00  0.00    +0.013 A 
ATOM      3  C   UNL     1     -10.247  15.944  45.934  0.00  0.00    +0.019 A 
ATOM     38  C   UNL     1      -9.299  16.599  46.822  0.00  0.00    +0.120 A 
ATOM     39  N   UNL     1      -9.600  17.847  47.359  0.00  0.00    -0.263 NA
ATOM     40  C   UNL     1     -10.799  18.518  47.080  0.00  0.00    +0.111 A 
ENDBRANCH   4   3
ENDBRANCH  10   9
BRANCH  12  13
ATOM     13  N   UNL     1      -4.675   9.205  43.289  0.00  0.00    -0.281 N 
ATOM     14  C   UNL     1      -3.604   8.329  43.228  0.00  0.00    +0.248 C 
ATOM     30  O   UNL     1      -3.161   7.711  44.185  0.00  0.00    -0.270 OA
ATOM     31  H   UNL     1      -4.817   9.797  42.471  0.00  0.00    +0.155 HD
BRANCH  14  15
ATOM     15  C   UNL     1      -2.916   8.120  41.918  0.00  0.00    +0.037 A 
ATOM     16  C   UNL     1      -2.860   6.796  41.292  0.00  0.00    +0.013 A 
ATOM     17  C   UNL     1      -2.175   6.619  40.036  0.00  0.00    +0.005 A 
ATOM     18  C   UNL     1      -1.542   7.770  39.396  0.00  0.00    -0.033 A 
ATOM     28  C   UNL     1      -1.618   9.073  40.037  0.00  0.00    +0.005 A 
ATOM     29  C   UNL     1      -2.288   9.250  41.268  0.00  0.00    +0.013 A 
BRANCH  18  19
ATOM     19  C   UNL     1      -0.772   7.670  38.066  0.00  0.00    +0.119 C 
BRANCH  19  20
ATOM     20  N   UNL     1      -1.570   7.399  36.833  0.00  0.00    -0.302 NA
ATOM     21  C   UNL     1      -3.004   7.924  36.950  0.00  0.00    +0.066 C 
ATOM     22  C   UNL     1      -3.818   7.652  35.643  0.00  0.00    -0.064 C 
ATOM     23  N   UNL     1      -3.813   6.152  35.345  0.00  0.00    +0.379 N 
ATOM     24  C   UNL     1      -4.625   5.886  34.149  0.00  0.00    -0.096 C 
ATOM     25  H   UNL     1      -4.298   5.635  36.205  0.00  0.00    -0.082 HD
ATOM     26  C   UNL     1      -2.391   5.621  35.230  0.00  0.00    -0.064 C 
ATOM     27  C   UNL     1      -1.582   5.922  36.523  0.00  0.00    +0.066 C 
ENDBRANCH  19  20
ENDBRANCH  18  19
ENDBRANCH  14  15
ENDBRANCH  12  13
TORSDOF 6
ENDMDL
MODEL 3
REMARK VINA RESULT:      -9.7      5.541      9.295
REMARK  Name = C:\Users\Docking\Desktop\test protocol\1iep_ligandH.pdb
REMARK  8 active torsions:
REMARK  status: ('A' for Active; 'I' for Inactive)
REMARK    1  A    between atoms: _5  and  _11
REMARK    2  A    between atoms: _19  and  _21
REMARK    3  A    between atoms: _22  and  _66
REMARK    4  A    between atoms: _27  and  _30
REMARK    5  A    between atoms: _32  and  _33
REMARK    6  A    between atoms: _38  and  _43
REMARK    7  A    between atoms: _43  and  _46
REMARK    8  A    between atoms: _53  and  _55
REMARK                            x       y       z     vdW  Elec       q    Type
REMARK                         _______ _______ _______ _____ _____    ______ ____
ROOT
ATOM     10  C   UNL     1      -6.647   9.627  43.493  0.00  0.00    +0.038 A 
ATOM     11  C   UNL     1      -6.823  11.034  43.505  0.00  0.00    +0.047 A 
ATOM     12  C   UNL     1      -7.346  11.718  44.678  0.00  0.00    +0.035 A 
ATOM     32  C   UNL     1      -7.676  10.936  45.823  0.00  0.00    +0.024 A 
ATOM     33  C   UNL     1      -7.505   9.505  45.828  0.00  0.00    +0.007 A 
ATOM     34  C   UNL     1      -6.992   8.825  44.673  0.00  0.00    -0.029 A 
ATOM     35  C   UNL     1      -6.835   7.288  44.732  0.00  0.00    +0.045 C 
ENDROOT
BRANCH  10   9
ATOM      4  C   UNL     1      -3.017   8.381  40.611  0.00  0.00    +0.077 A 
ATOM      5  C   UNL     1      -2.048   9.011  41.462  0.00  0.00    +0.048 A 
ATOM      6  C   UNL     1      -2.526   9.650  42.628  0.00  0.00    +0.116 A 
ATOM      7  N   UNL     1      -3.874   9.653  42.912  0.00  0.00    -0.223 NA
ATOM      8  C   UNL     1      -4.782   9.039  42.069  0.00  0.00    +0.220 A 
ATOM      9  N   UNL     1      -6.142   9.023  42.340  0.00  0.00    -0.283 N 
ATOM     36  H   UNL     1      -6.780   8.565  41.689  0.00  0.00    +0.155 HD
ATOM     37  N   UNL     1      -4.351   8.422  40.949  0.00  0.00    -0.214 NA
BRANCH   4   3
ATOM      1  C   UNL     1      -1.127   6.259  37.923  0.00  0.00    +0.020 A 
ATOM      2  C   UNL     1      -1.416   6.937  39.166  0.00  0.00    +0.013 A 
ATOM      3  C   UNL     1      -2.667   7.662  39.345  0.00  0.00    +0.019 A 
ATOM     38  C   UNL     1      -3.613   7.681  38.239  0.00  0.00    +0.120 A 
ATOM     39  N   UNL     1      -3.307   7.020  37.054  0.00  0.00    -0.263 NA
ATOM     40  C   UNL     1      -2.105   6.321  36.869  0.00  0.00    +0.111 A 
ENDBRANCH   4   3
ENDBRANCH  10   9
BRANCH  12  13
ATOM     13  N   UNL     1      -7.554  13.143  44.745  0.00  0.00    -0.281 N 
ATOM     14  C   UNL     1      -8.754  13.832  44.689  0.00  0.00    +0.248 C 
ATOM     30  O   UNL     1      -9.820  13.337  44.356  0.00  0.00    -0.270 OA
ATOM     31  H   UNL     1      -6.714  13.713  44.847  0.00  0.00    +0.155 HD
BRANCH  14  15
ATOM     15  C   UNL     1      -8.769  15.285  45.040  0.00  0.00    +0.037 A 
ATOM     16  C   UNL     1      -9.075  16.306  44.035  0.00  0.00    +0.013 A 
ATOM     17  C   UNL     1      -9.066  17.702  44.396  0.00  0.00    +0.005 A 
ATOM     18  C   UNL     1      -8.752  18.084  45.770  0.00  0.00    -0.033 A 
ATOM     28  C   UNL     1      -8.458  17.050  46.749  0.00  0.00    +0.005 A 
ATOM     29  C   UNL     1      -8.464  15.681  46.398  0.00  0.00    +0.013 A 
BRANCH  18  19
ATOM     19  C   UNL     1      -8.699  19.550  46.240  0.00  0.00    +0.119 C 
BRANCH  19  20
ATOM     20  N   UNL     1      -9.956  20.349  46.129  0.00  0.00    -0.302 NA
ATOM     21  C   UNL     1      -9.783  21.770  46.672  0.00  0.00    +0.066 C 
ATOM     22  C   UNL     1     -11.100  22.599  46.528  0.00  0.00    -0.064 C 
ATOM     23  N   UNL     1     -12.236  21.877  47.253  0.00  0.00    +0.379 N 
ATOM     24  C   UNL     1     -13.463  22.682  47.168  0.00  0.00    -0.096 C 
ATOM     25  H   UNL     1     -11.956  21.800  48.329  0.00  0.00    -0.082 HD
ATOM     26  C   UNL     1     -12.414  20.462  46.720  0.00  0.00    -0.064 C 
ATOM     27  C   UNL     1     -11.090  19.656  46.842  0.00  0.00    +0.066 C 
ENDBRANCH  19  20
ENDBRANCH  18  19
ENDBRANCH  14  15
ENDBRANCH  12  13
TORSDOF 6
ENDMDL
MODEL 4
REMARK VINA RESULT:      -9.6      3.466     12.505
REMARK  Name = C:\Users\Docking\Desktop\test protocol\1iep_ligandH.pdb
REMARK  8 active torsions:
REMARK  status: ('A' for Active; 'I' for Inactive)
REMARK    1  A    between atoms: _5  and  _11
REMARK    2  A    between atoms: _19  and  _21
REMARK    3  A    between atoms: _22  and  _66
REMARK    4  A    between atoms: _27  and  _30
REMARK    5  A    between atoms: _32  and  _33
REMARK    6  A    between atoms: _38  and  _43
REMARK    7  A    between atoms: _43  and  _46
REMARK    8  A    between atoms: _53  and  _55
REMARK                            x       y       z     vdW  Elec       q    Type
REMARK                         _______ _______ _______ _____ _____    ______ ____
ROOT
ATOM     10  C   UNL     1      -3.389   7.152  39.095  0.00  0.00    +0.038 A 
ATOM     11  C   UNL     1      -4.152   7.500  37.951  0.00  0.00    +0.047 A 
ATOM     12  C   UNL     1      -3.605   7.359  36.611  0.00  0.00    +0.035 A 
ATOM     32  C   UNL     1      -2.278   6.857  36.472  0.00  0.00    +0.024 A 
ATOM     33  C   UNL     1      -1.489   6.499  37.624  0.00  0.00    +0.007 A 
ATOM     34  C   UNL     1      -2.022   6.638  38.949  0.00  0.00    -0.029 A 
ATOM     35  C   UNL     1      -1.128   6.245  40.148  0.00  0.00    +0.045 C 
ENDROOT
BRANCH  10   9
ATOM      4  C   UNL     1      -4.586   9.819  42.902  0.00  0.00    +0.077 A 
ATOM      5  C   UNL     1      -3.991  10.996  42.338  0.00  0.00    +0.048 A 
ATOM      6  C   UNL     1      -3.381  10.872  41.070  0.00  0.00    +0.116 A 
ATOM      7  N   UNL     1      -3.373   9.655  40.422  0.00  0.00    -0.223 NA
ATOM      8  C   UNL     1      -3.954   8.539  40.995  0.00  0.00    +0.220 A 
ATOM      9  N   UNL     1      -3.965   7.307  40.359  0.00  0.00    -0.283 N 
ATOM     36  H   UNL     1      -4.397   6.506  40.818  0.00  0.00    +0.155 HD
ATOM     37  N   UNL     1      -4.541   8.632  42.206  0.00  0.00    -0.214 NA
BRANCH   4   3
ATOM      1  C   UNL     1      -6.153   8.592  46.269  0.00  0.00    +0.020 A 
ATOM      2  C   UNL     1      -5.486   8.564  44.988  0.00  0.00    +0.013 A 
ATOM      3  C   UNL     1      -5.271   9.792  44.233  0.00  0.00    +0.019 A 
ATOM     38  C   UNL     1      -5.745  11.041  44.808  0.00  0.00    +0.120 A 
ATOM     39  N   UNL     1      -6.385  11.038  46.043  0.00  0.00    -0.263 NA
ATOM     40  C   UNL     1      -6.600   9.862  46.778  0.00  0.00    +0.111 A 
ENDBRANCH   4   3
ENDBRANCH  10   9
BRANCH  12  13
ATOM     13  N   UNL     1      -4.329   7.705  35.412  0.00  0.00    -0.281 N 
ATOM     14  C   UNL     1      -5.258   6.938  34.729  0.00  0.00    +0.248 C 
ATOM     30  O   UNL     1      -5.452   5.748  34.925  0.00  0.00    -0.270 OA
ATOM     31  H   UNL     1      -4.132   8.626  35.021  0.00  0.00    +0.155 HD
BRANCH  14  15
ATOM     15  C   UNL     1      -6.082   7.585  33.662  0.00  0.00    +0.037 A 
ATOM     16  C   UNL     1      -5.974   7.169  32.261  0.00  0.00    +0.013 A 
ATOM     17  C   UNL     1      -6.768   7.820  31.250  0.00  0.00    +0.005 A 
ATOM     18  C   UNL     1      -7.679   8.895  31.637  0.00  0.00    -0.033 A 
ATOM     28  C   UNL     1      -7.770   9.284  33.034  0.00  0.00    +0.005 A 
ATOM     29  C   UNL     1      -6.993   8.649  34.028  0.00  0.00    +0.013 A 
BRANCH  18  19
ATOM     19  C   UNL     1      -8.548   9.660  30.622  0.00  0.00    +0.119 C 
BRANCH  19  20
ATOM     20  N   UNL     1      -7.867  10.678  29.767  0.00  0.00    -0.302 NA
ATOM     21  C   UNL     1      -7.244  10.053  28.516  0.00  0.00    +0.066 C 
ATOM     22  C   UNL     1      -6.555  11.135  27.622  0.00  0.00    -0.064 C 
ATOM     23  N   UNL     1      -5.495  11.872  28.444  0.00  0.00    +0.379 N 
ATOM     24  C   UNL     1      -4.805  12.850  27.590  0.00  0.00    -0.096 C 
ATOM     25  H   UNL     1      -4.742  11.120  28.775  0.00  0.00    -0.082 HD
ATOM     26  C   UNL     1      -6.105  12.494  29.692  0.00  0.00    -0.064 C 
ATOM     27  C   UNL     1      -6.813  11.414  30.558  0.00  0.00    +0.066 C 
ENDBRANCH  19  20
ENDBRANCH  18  19
ENDBRANCH  14  15
ENDBRANCH  12  13
TORSDOF 6
ENDMDL
MODEL 5
REMARK VINA RESULT:      -9.4      3.605     12.328
REMARK  Name = C:\Users\Docking\Desktop\test protocol\1iep_ligandH.pdb
REMARK  8 active torsions:
REMARK  status: ('A' for Active; 'I' for Inactive)
REMARK    1  A    between atoms: _5  and  _11
REMARK    2  A    between atoms: _19  and  _21
REMARK    3  A    between atoms: _22  and  _66
REMARK    4  A    between atoms: _27  and  _30
REMARK    5  A    between atoms: _32  and  _33
REMARK    6  A    between atoms: _38  and  _43
REMARK    7  A    between atoms: _43  and  _46
REMARK    8  A    between atoms: _53  and  _55
REMARK                            x       y       z     vdW  Elec       q    Type
REMARK                         _______ _______ _______ _____ _____    ______ ____
ROOT
ATOM     10  C   UNL     1      -3.334   7.223  38.981  0.00  0.00    +0.038 A 
ATOM     11  C   UNL     1      -4.200   7.519  37.897  0.00  0.00    +0.047 A 
ATOM     12  C   UNL     1      -3.758   7.373  36.519  0.00  0.00    +0.035 A 
ATOM     32  C   UNL     1      -2.428   6.920  36.280  0.00  0.00    +0.024 A 
ATOM     33  C   UNL     1      -1.534   6.616  37.370  0.00  0.00    +0.007 A 
ATOM     34  C   UNL     1      -1.963   6.760  38.731  0.00  0.00    -0.029 A 
ATOM     35  C   UNL     1      -0.960   6.426  39.859  0.00  0.00    +0.045 C 
ENDROOT
BRANCH  10   9
ATOM      4  C   UNL     1      -4.700   9.949  42.687  0.00  0.00    +0.077 A 
ATOM      5  C   UNL     1      -4.415  11.162  41.976  0.00  0.00    +0.048 A 
ATOM      6  C   UNL     1      -3.911  11.041  40.661  0.00  0.00    +0.116 A 
ATOM      7  N   UNL     1      -3.712   9.794  40.109  0.00  0.00    -0.223 NA
ATOM      8  C   UNL     1      -3.995   8.644  40.823  0.00  0.00    +0.220 A 
ATOM      9  N   UNL     1      -3.810   7.380  40.284  0.00  0.00    -0.283 N 
ATOM     36  H   UNL     1      -4.024   6.557  40.846  0.00  0.00    +0.155 HD
ATOM     37  N   UNL     1      -4.476   8.734  42.080  0.00  0.00    -0.214 NA
BRANCH   4   3
ATOM      1  C   UNL     1      -6.217  11.014  46.131  0.00  0.00    +0.020 A 
ATOM      2  C   UNL     1      -5.704  11.104  44.784  0.00  0.00    +0.013 A 
ATOM      3  C   UNL     1      -5.239   9.913  44.083  0.00  0.00    +0.019 A 
ATOM     38  C   UNL     1      -5.308   8.637  44.779  0.00  0.00    +0.120 A 
ATOM     39  N   UNL     1      -5.806   8.582  46.078  0.00  0.00    -0.263 NA
ATOM     40  C   UNL     1      -6.254   9.721  46.763  0.00  0.00    +0.111 A 
ENDBRANCH   4   3
ENDBRANCH  10   9
BRANCH  12  13
ATOM     13  N   UNL     1      -4.590   7.666  35.379  0.00  0.00    -0.281 N 
ATOM     14  C   UNL     1      -4.975   6.807  34.362  0.00  0.00    +0.248 C 
ATOM     30  O   UNL     1      -4.485   5.706  34.165  0.00  0.00    -0.270 OA
ATOM     31  H   UNL     1      -4.937   8.623  35.313  0.00  0.00    +0.155 HD
BRANCH  14  15
ATOM     15  C   UNL     1      -6.051   7.241  33.419  0.00  0.00    +0.037 A 
ATOM     16  C   UNL     1      -6.201   6.620  32.101  0.00  0.00    +0.013 A 
ATOM     17  C   UNL     1      -7.236   7.069  31.204  0.00  0.00    +0.005 A 
ATOM     18  C   UNL     1      -8.131   8.145  31.624  0.00  0.00    -0.033 A 
ATOM     28  C   UNL     1      -7.963   8.740  32.939  0.00  0.00    +0.005 A 
ATOM     29  C   UNL     1      -6.948   8.303  33.821  0.00  0.00    +0.013 A 
BRANCH  18  19
ATOM     19  C   UNL     1      -9.250   8.702  30.723  0.00  0.00    +0.119 C 
BRANCH  19  20
ATOM     20  N   UNL     1     -10.659   8.462  31.156  0.00  0.00    -0.302 NA
ATOM     21  C   UNL     1     -10.923   6.985  31.458  0.00  0.00    +0.066 C 
ATOM     22  C   UNL     1     -12.396   6.755  31.931  0.00  0.00    -0.064 C 
ATOM     23  N   UNL     1     -13.359   7.270  30.860  0.00  0.00    +0.379 N 
ATOM     24  C   UNL     1     -14.743   7.003  31.276  0.00  0.00    -0.096 C 
ATOM     25  H   UNL     1     -13.168   6.690  29.927  0.00  0.00    -0.082 HD
ATOM     26  C   UNL     1     -13.101   8.738  30.552  0.00  0.00    -0.064 C 
ATOM     27  C   UNL     1     -11.627   8.960  30.111  0.00  0.00    +0.066 C 
ENDBRANCH  19  20
ENDBRANCH  18  19
ENDBRANCH  14  15
ENDBRANCH  12  13
TORSDOF 6
ENDMDL
