MODEL 1
REMARK VINA RESULT:      -8.9      0.000      0.000
REMARK  Name = C:\Users\Docking\Desktop\test protocol\1iep_ligandH.pdb
REMARK  8 active torsions:
REMARK  status: ('A' for Active; 'I' for Inactive)
REMARK    1  A    between atoms: _5  and  _11
REMARK    2  A    between atoms: _19  and  _21
REMARK    3  A    between atoms: _22  and  _66
REMARK    4  A    between atoms: _27  and  _30
REMARK    5  A    between atoms: _32  and  _33
REMARK    6  A    between atoms: _38  and  _43
REMARK    7  A    between atoms: _43  and  _46
REMARK    8  A    between atoms: _53  and  _55
REMARK                            x       y       z     vdW  Elec       q    Type
REMARK                         _______ _______ _______ _____ _____    ______ ____
ROOT
ATOM     10  C   UNL     1      17.065  47.515  20.087  0.00  0.00    +0.038 A 
ATOM     11  C   UNL     1      17.394  46.465  20.983  0.00  0.00    +0.047 A 
ATOM     12  C   UNL     1      16.458  45.384  21.250  0.00  0.00    +0.035 A 
ATOM     32  C   UNL     1      15.197  45.402  20.586  0.00  0.00    +0.024 A 
ATOM     33  C   UNL     1      14.846  46.462  19.674  0.00  0.00    +0.007 A 
ATOM     34  C   UNL     1      15.764  47.532  19.408  0.00  0.00    -0.029 A 
ATOM     35  C   UNL     1      15.331  48.646  18.426  0.00  0.00    +0.045 C 
ENDROOT
BRANCH  10   9
ATOM      4  C   UNL     1      21.430  49.037  18.798  0.00  0.00    +0.077 A 
ATOM      5  C   UNL     1      21.894  47.699  18.569  0.00  0.00    +0.048 A 
ATOM      6  C   UNL     1      20.980  46.647  18.801  0.00  0.00    +0.116 A 
ATOM      7  N   UNL     1      19.700  46.924  19.231  0.00  0.00    -0.223 NA
ATOM      8  C   UNL     1      19.286  48.226  19.444  0.00  0.00    +0.220 A 
ATOM      9  N   UNL     1      18.001  48.528  19.867  0.00  0.00    -0.283 N 
ATOM     36  H   UNL     1      17.736  49.501  20.020  0.00  0.00    +0.155 HD
ATOM     37  N   UNL     1      20.140  49.248  19.230  0.00  0.00    -0.214 NA
BRANCH   4   3
ATOM      1  C   UNL     1      24.153  51.511  17.468  0.00  0.00    +0.020 A 
ATOM      2  C   UNL     1      23.366  50.310  17.627  0.00  0.00    +0.013 A 
ATOM      3  C   UNL     1      22.277  50.255  18.594  0.00  0.00    +0.019 A 
ATOM     38  C   UNL     1      22.007  51.443  19.390  0.00  0.00    +0.120 A 
ATOM     39  N   UNL     1      22.783  52.585  19.216  0.00  0.00    -0.263 NA
ATOM     40  C   UNL     1      23.835  52.649  18.290  0.00  0.00    +0.111 A 
ENDBRANCH   4   3
ENDBRANCH  10   9
BRANCH  12  13
ATOM     13  N   UNL     1      16.734  44.296  22.155  0.00  0.00    -0.281 N 
ATOM     14  C   UNL     1      17.911  43.578  22.291  0.00  0.00    +0.248 C 
ATOM     30  O   UNL     1      18.843  43.624  21.502  0.00  0.00    -0.270 OA
ATOM     31  H   UNL     1      15.968  44.021  22.770  0.00  0.00    +0.155 HD
BRANCH  14  15
ATOM     15  C   UNL     1      18.070  42.668  23.466  0.00  0.00    +0.037 A 
ATOM     16  C   UNL     1      18.732  43.119  24.693  0.00  0.00    +0.013 A 
ATOM     17  C   UNL     1      18.887  42.215  25.805  0.00  0.00    +0.005 A 
ATOM     18  C   UNL     1      18.378  40.851  25.695  0.00  0.00    -0.033 A 
ATOM     28  C   UNL     1      17.721  40.431  24.468  0.00  0.00    +0.005 A 
ATOM     29  C   UNL     1      17.568  41.314  23.376  0.00  0.00    +0.013 A 
BRANCH  18  19
ATOM     19  C   UNL     1      18.519  39.812  26.824  0.00  0.00    +0.119 C 
BRANCH  19  20
ATOM     20  N   UNL     1      17.356  38.908  27.070  0.00  0.00    -0.302 NA
ATOM     21  C   UNL     1      17.011  38.809  28.559  0.00  0.00    +0.066 C 
ATOM     22  C   UNL     1      15.778  37.877  28.796  0.00  0.00    -0.064 C 
ATOM     23  N   UNL     1      16.069  36.492  28.214  0.00  0.00    +0.379 N 
ATOM     24  C   UNL     1      14.936  35.597  28.487  0.00  0.00    -0.096 C 
ATOM     25  H   UNL     1      16.959  36.083  28.746  0.00  0.00    -0.082 HD
ATOM     26  C   UNL     1      16.417  36.582  26.735  0.00  0.00    -0.064 C 
ATOM     27  C   UNL     1      17.624  37.534  26.507  0.00  0.00    +0.066 C 
ENDBRANCH  19  20
ENDBRANCH  18  19
ENDBRANCH  14  15
ENDBRANCH  12  13
TORSDOF 6
ENDMDL
MODEL 2
REMARK VINA RESULT:      -8.6      2.718      5.358
REMARK  Name = C:\Users\Docking\Desktop\test protocol\1iep_ligandH.pdb
REMARK  8 active torsions:
REMARK  status: ('A' for Active; 'I' for Inactive)
REMARK    1  A    between atoms: _5  and  _11
REMARK    2  A    between atoms: _19  and  _21
REMARK    3  A    between atoms: _22  and  _66
REMARK    4  A    between atoms: _27  and  _30
REMARK    5  A    between atoms: _32  and  _33
REMARK    6  A    between atoms: _38  and  _43
REMARK    7  A    between atoms: _43  and  _46
REMARK    8  A    between atoms: _53  and  _55
REMARK                            x       y       z     vdW  Elec       q    Type
REMARK                         _______ _______ _______ _____ _____    ______ ____
ROOT
ATOM     10  C   UNL     1      19.793  45.599  20.122  0.00  0.00    +0.038 A 
ATOM     11  C   UNL     1      19.492  44.675  21.155  0.00  0.00    +0.047 A 
ATOM     12  C   UNL     1      20.541  44.107  21.987  0.00  0.00    +0.035 A 
ATOM     32  C   UNL     1      21.887  44.506  21.742  0.00  0.00    +0.024 A 
ATOM     33  C   UNL     1      22.212  45.443  20.696  0.00  0.00    +0.007 A 
ATOM     34  C   UNL     1      21.181  46.004  19.870  0.00  0.00    -0.029 A 
ATOM     35  C   UNL     1      21.588  47.000  18.759  0.00  0.00    +0.045 C 
ENDROOT
BRANCH  10   9
ATOM      4  C   UNL     1      15.663  48.000  19.661  0.00  0.00    +0.077 A 
ATOM      5  C   UNL     1      15.569  48.228  21.074  0.00  0.00    +0.048 A 
ATOM      6  C   UNL     1      16.600  47.704  21.886  0.00  0.00    +0.116 A 
ATOM      7  N   UNL     1      17.643  47.007  21.316  0.00  0.00    -0.223 NA
ATOM      8  C   UNL     1      17.703  46.804  19.949  0.00  0.00    +0.220 A 
ATOM      9  N   UNL     1      18.747  46.113  19.353  0.00  0.00    -0.283 N 
ATOM     36  H   UNL     1      18.750  45.978  18.343  0.00  0.00    +0.155 HD
ATOM     37  N   UNL     1      16.730  47.293  19.153  0.00  0.00    -0.214 NA
BRANCH   4   3
ATOM      1  C   UNL     1      12.400  49.453  18.067  0.00  0.00    +0.020 A 
ATOM      2  C   UNL     1      13.338  48.988  19.062  0.00  0.00    +0.013 A 
ATOM      3  C   UNL     1      14.653  48.494  18.672  0.00  0.00    +0.019 A 
ATOM     38  C   UNL     1      14.990  48.485  17.256  0.00  0.00    +0.120 A 
ATOM     39  N   UNL     1      14.065  48.938  16.321  0.00  0.00    -0.263 NA
ATOM     40  C   UNL     1      12.796  49.414  16.684  0.00  0.00    +0.111 A 
ENDBRANCH   4   3
ENDBRANCH  10   9
BRANCH  12  13
ATOM     13  N   UNL     1      20.296  43.159  23.045  0.00  0.00    -0.281 N 
ATOM     14  C   UNL     1      19.763  43.402  24.301  0.00  0.00    +0.248 C 
ATOM     30  O   UNL     1      19.614  44.514  24.785  0.00  0.00    -0.270 OA
ATOM     31  H   UNL     1      20.545  42.190  22.844  0.00  0.00    +0.155 HD
BRANCH  14  15
ATOM     15  C   UNL     1      19.350  42.241  25.147  0.00  0.00    +0.037 A 
ATOM     16  C   UNL     1      20.139  41.830  26.311  0.00  0.00    +0.013 A 
ATOM     17  C   UNL     1      19.727  40.696  27.100  0.00  0.00    +0.005 A 
ATOM     18  C   UNL     1      18.518  39.966  26.728  0.00  0.00    -0.033 A 
ATOM     28  C   UNL     1      17.751  40.399  25.571  0.00  0.00    +0.005 A 
ATOM     29  C   UNL     1      18.152  41.509  24.795  0.00  0.00    +0.013 A 
BRANCH  18  19
ATOM     19  C   UNL     1      18.015  38.732  27.500  0.00  0.00    +0.119 C 
BRANCH  19  20
ATOM     20  N   UNL     1      16.685  38.840  28.171  0.00  0.00    -0.302 NA
ATOM     21  C   UNL     1      16.805  38.789  29.696  0.00  0.00    +0.066 C 
ATOM     22  C   UNL     1      15.407  38.926  30.382  0.00  0.00    -0.064 C 
ATOM     23  N   UNL     1      14.482  37.818  29.874  0.00  0.00    +0.379 N 
ATOM     24  C   UNL     1      13.185  37.909  30.560  0.00  0.00    -0.096 C 
ATOM     25  H   UNL     1      14.943  36.841  30.149  0.00  0.00    -0.082 HD
ATOM     26  C   UNL     1      14.360  37.860  28.358  0.00  0.00    -0.064 C 
ATOM     27  C   UNL     1      15.757  37.753  27.687  0.00  0.00    +0.066 C 
ENDBRANCH  19  20
ENDBRANCH  18  19
ENDBRANCH  14  15
ENDBRANCH  12  13
TORSDOF 6
ENDMDL
MODEL 3
REMARK VINA RESULT:      -8.6      7.404     10.223
REMARK  Name = C:\Users\Docking\Desktop\test protocol\1iep_ligandH.pdb
REMARK  8 active torsions:
REMARK  status: ('A' for Active; 'I' for Inactive)
REMARK    1  A    between atoms: _5  and  _11
REMARK    2  A    between atoms: _19  and  _21
REMARK    3  A    between atoms: _22  and  _66
REMARK    4  A    between atoms: _27  and  _30
REMARK    5  A    between atoms: _32  and  _33
REMARK    6  A    between atoms: _38  and  _43
REMARK    7  A    between atoms: _43  and  _46
REMARK    8  A    between atoms: _53  and  _55
REMARK                            x       y       z     vdW  Elec       q    Type
REMARK                         _______ _______ _______ _____ _____    ______ ____
ROOT
ATOM     10  C   UNL     1      21.331  49.518  21.624  0.00  0.00    +0.038 A 
ATOM     11  C   UNL     1      21.753  49.298  22.960  0.00  0.00    +0.047 A 
ATOM     12  C   UNL     1      23.142  49.484  23.351  0.00  0.00    +0.035 A 
ATOM     32  C   UNL     1      24.074  49.896  22.355  0.00  0.00    +0.024 A 
ATOM     33  C   UNL     1      23.663  50.122  20.991  0.00  0.00    +0.007 A 
ATOM     34  C   UNL     1      22.295  49.939  20.600  0.00  0.00    -0.029 A 
ATOM     35  C   UNL     1      21.911  50.190  19.123  0.00  0.00    +0.045 C 
ENDROOT
BRANCH  10   9
ATOM      4  C   UNL     1      17.598  46.699  20.546  0.00  0.00    +0.077 A 
ATOM      5  C   UNL     1      18.403  45.513  20.598  0.00  0.00    +0.048 A 
ATOM      6  C   UNL     1      19.775  45.672  20.898  0.00  0.00    +0.116 A 
ATOM      7  N   UNL     1      20.292  46.929  21.128  0.00  0.00    -0.223 NA
ATOM      8  C   UNL     1      19.488  48.052  21.069  0.00  0.00    +0.220 A 
ATOM      9  N   UNL     1      19.985  49.325  21.304  0.00  0.00    -0.283 N 
ATOM     36  H   UNL     1      19.361  50.129  21.244  0.00  0.00    +0.155 HD
ATOM     37  N   UNL     1      18.175  47.927  20.782  0.00  0.00    -0.214 NA
BRANCH   4   3
ATOM      1  C   UNL     1      13.895  45.546  20.041  0.00  0.00    +0.020 A 
ATOM      2  C   UNL     1      15.307  45.497  20.343  0.00  0.00    +0.013 A 
ATOM      3  C   UNL     1      16.132  46.695  20.244  0.00  0.00    +0.019 A 
ATOM     38  C   UNL     1      15.492  47.936  19.835  0.00  0.00    +0.120 A 
ATOM     39  N   UNL     1      14.130  47.953  19.549  0.00  0.00    -0.263 NA
ATOM     40  C   UNL     1      13.327  46.806  19.639  0.00  0.00    +0.111 A 
ENDBRANCH   4   3
ENDBRANCH  10   9
BRANCH  12  13
ATOM     13  N   UNL     1      23.630  49.268  24.690  0.00  0.00    -0.281 N 
ATOM     14  C   UNL     1      23.407  50.047  25.814  0.00  0.00    +0.248 C 
ATOM     30  O   UNL     1      22.927  51.171  25.791  0.00  0.00    -0.270 OA
ATOM     31  H   UNL     1      24.210  48.440  24.827  0.00  0.00    +0.155 HD
BRANCH  14  15
ATOM     15  C   UNL     1      23.786  49.506  27.154  0.00  0.00    +0.037 A 
ATOM     16  C   UNL     1      22.813  49.435  28.248  0.00  0.00    +0.013 A 
ATOM     17  C   UNL     1      23.209  48.925  29.536  0.00  0.00    +0.005 A 
ATOM     18  C   UNL     1      24.586  48.480  29.738  0.00  0.00    -0.033 A 
ATOM     28  C   UNL     1      25.529  48.557  28.634  0.00  0.00    +0.005 A 
ATOM     29  C   UNL     1      25.145  49.057  27.370  0.00  0.00    +0.013 A 
BRANCH  18  19
ATOM     19  C   UNL     1      25.102  47.941  31.085  0.00  0.00    +0.119 C 
BRANCH  19  20
ATOM     20  N   UNL     1      26.550  47.585  31.170  0.00  0.00    -0.302 NA
ATOM     21  C   UNL     1      26.760  46.098  31.467  0.00  0.00    +0.066 C 
ATOM     22  C   UNL     1      28.280  45.739  31.530  0.00  0.00    -0.064 C 
ATOM     23  N   UNL     1      28.962  46.605  32.591  0.00  0.00    +0.379 N 
ATOM     24  C   UNL     1      30.380  46.229  32.694  0.00  0.00    -0.096 C 
ATOM     25  H   UNL     1      28.481  46.380  33.571  0.00  0.00    -0.082 HD
ATOM     26  C   UNL     1      28.756  48.085  32.305  0.00  0.00    -0.064 C 
ATOM     27  C   UNL     1      27.242  48.426  32.215  0.00  0.00    +0.066 C 
ENDBRANCH  19  20
ENDBRANCH  18  19
ENDBRANCH  14  15
ENDBRANCH  12  13
TORSDOF 6
ENDMDL
MODEL 4
REMARK VINA RESULT:      -8.4      6.965      9.605
REMARK  Name = C:\Users\Docking\Desktop\test protocol\1iep_ligandH.pdb
REMARK  8 active torsions:
REMARK  status: ('A' for Active; 'I' for Inactive)
REMARK    1  A    between atoms: _5  and  _11
REMARK    2  A    between atoms: _19  and  _21
REMARK    3  A    between atoms: _22  and  _66
REMARK    4  A    between atoms: _27  and  _30
REMARK    5  A    between atoms: _32  and  _33
REMARK    6  A    between atoms: _38  and  _43
REMARK    7  A    between atoms: _43  and  _46
REMARK    8  A    between atoms: _53  and  _55
REMARK                            x       y       z     vdW  Elec       q    Type
REMARK                         _______ _______ _______ _____ _____    ______ ____
ROOT
ATOM     10  C   UNL     1      21.377  50.392  22.626  0.00  0.00    +0.038 A 
ATOM     11  C   UNL     1      21.934  49.997  23.869  0.00  0.00    +0.047 A 
ATOM     12  C   UNL     1      23.224  50.504  24.311  0.00  0.00    +0.035 A 
ATOM     32  C   UNL     1      23.919  51.415  23.462  0.00  0.00    +0.024 A 
ATOM     33  C   UNL     1      23.368  51.826  22.195  0.00  0.00    +0.007 A 
ATOM     34  C   UNL     1      22.097  51.327  21.753  0.00  0.00    -0.029 A 
ATOM     35  C   UNL     1      21.558  51.798  20.382  0.00  0.00    +0.045 C 
ENDROOT
BRANCH  10   9
ATOM      4  C   UNL     1      18.645  47.078  20.483  0.00  0.00    +0.077 A 
ATOM      5  C   UNL     1      19.789  46.329  20.051  0.00  0.00    +0.048 A 
ATOM      6  C   UNL     1      21.063  46.835  20.394  0.00  0.00    +0.116 A 
ATOM      7  N   UNL     1      21.173  48.003  21.117  0.00  0.00    -0.223 NA
ATOM      8  C   UNL     1      20.049  48.702  21.517  0.00  0.00    +0.220 A 
ATOM      9  N   UNL     1      20.135  49.874  22.251  0.00  0.00    -0.283 N 
ATOM     36  H   UNL     1      19.283  50.364  22.521  0.00  0.00    +0.155 HD
ATOM     37  N   UNL     1      18.821  48.241  21.201  0.00  0.00    -0.214 NA
BRANCH   4   3
ATOM      1  C   UNL     1      15.187  45.256  20.621  0.00  0.00    +0.020 A 
ATOM      2  C   UNL     1      16.552  45.610  20.933  0.00  0.00    +0.013 A 
ATOM      3  C   UNL     1      17.232  46.672  20.201  0.00  0.00    +0.019 A 
ATOM     38  C   UNL     1      16.496  47.362  19.153  0.00  0.00    +0.120 A 
ATOM     39  N   UNL     1      15.182  46.999  18.875  0.00  0.00    -0.263 NA
ATOM     40  C   UNL     1      14.518  45.977  19.571  0.00  0.00    +0.111 A 
ENDBRANCH   4   3
ENDBRANCH  10   9
BRANCH  12  13
ATOM     13  N   UNL     1      23.843  50.132  25.559  0.00  0.00    -0.281 N 
ATOM     14  C   UNL     1      23.369  50.348  26.843  0.00  0.00    +0.248 C 
ATOM     30  O   UNL     1      22.436  51.087  27.119  0.00  0.00    -0.270 OA
ATOM     31  H   UNL     1      24.740  49.652  25.487  0.00  0.00    +0.155 HD
BRANCH  14  15
ATOM     15  C   UNL     1      24.036  49.653  27.985  0.00  0.00    +0.037 A 
ATOM     16  C   UNL     1      23.262  48.881  28.962  0.00  0.00    +0.013 A 
ATOM     17  C   UNL     1      23.929  48.235  30.064  0.00  0.00    +0.005 A 
ATOM     18  C   UNL     1      25.379  48.356  30.195  0.00  0.00    -0.033 A 
ATOM     28  C   UNL     1      26.122  49.123  29.209  0.00  0.00    +0.005 A 
ATOM     29  C   UNL     1      25.472  49.759  28.128  0.00  0.00    +0.013 A 
BRANCH  18  19
ATOM     19  C   UNL     1      26.171  47.717  31.351  0.00  0.00    +0.119 C 
BRANCH  19  20
ATOM     20  N   UNL     1      26.089  46.233  31.498  0.00  0.00    -0.302 NA
ATOM     21  C   UNL     1      26.973  45.719  32.637  0.00  0.00    +0.066 C 
ATOM     22  C   UNL     1      26.858  44.167  32.791  0.00  0.00    -0.064 C 
ATOM     23  N   UNL     1      27.235  43.497  31.469  0.00  0.00    +0.379 N 
ATOM     24  C   UNL     1      27.185  42.036  31.627  0.00  0.00    -0.096 C 
ATOM     25  H   UNL     1      28.290  43.776  31.237  0.00  0.00    -0.082 HD
ATOM     26  C   UNL     1      26.363  44.005  30.330  0.00  0.00    -0.064 C 
ATOM     27  C   UNL     1      26.462  45.551  30.204  0.00  0.00    +0.066 C 
ENDBRANCH  19  20
ENDBRANCH  18  19
ENDBRANCH  14  15
ENDBRANCH  12  13
TORSDOF 6
ENDMDL
MODEL 5
REMARK VINA RESULT:      -8.3     28.057     32.796
REMARK  Name = C:\Users\Docking\Desktop\test protocol\1iep_ligandH.pdb
REMARK  8 active torsions:
REMARK  status: ('A' for Active; 'I' for Inactive)
REMARK    1  A    between atoms: _5  and  _11
REMARK    2  A    between atoms: _19  and  _21
REMARK    3  A    between atoms: _22  and  _66
REMARK    4  A    between atoms: _27  and  _30
REMARK    5  A    between atoms: _32  and  _33
REMARK    6  A    between atoms: _38  and  _43
REMARK    7  A    between atoms: _43  and  _46
REMARK    8  A    between atoms: _53  and  _55
REMARK                            x       y       z     vdW  Elec       q    Type
REMARK                         _______ _______ _______ _____ _____    ______ ____
ROOT
ATOM     10  C   UNL     1      -6.920  62.804  13.534  0.00  0.00    +0.038 A 
ATOM     11  C   UNL     1      -5.736  63.529  13.823  0.00  0.00    +0.047 A 
ATOM     12  C   UNL     1      -5.618  64.941  13.491  0.00  0.00    +0.035 A 
ATOM     32  C   UNL     1      -6.728  65.583  12.868  0.00  0.00    +0.024 A 
ATOM     33  C   UNL     1      -7.939  64.861  12.566  0.00  0.00    +0.007 A 
ATOM     34  C   UNL     1      -8.060  63.468  12.889  0.00  0.00    -0.029 A 
ATOM     35  C   UNL     1      -9.379  62.742  12.537  0.00  0.00    +0.045 C 
ENDROOT
BRANCH  10   9
ATOM      4  C   UNL     1      -7.874  59.253  16.619  0.00  0.00    +0.077 A 
ATOM      5  C   UNL     1      -8.264  60.173  17.649  0.00  0.00    +0.048 A 
ATOM      6  C   UNL     1      -8.197  61.552  17.347  0.00  0.00    +0.116 A 
ATOM      7  N   UNL     1      -7.772  61.968  16.104  0.00  0.00    -0.223 NA
ATOM      8  C   UNL     1      -7.402  61.055  15.134  0.00  0.00    +0.220 A 
ATOM      9  N   UNL     1      -6.979  61.451  13.875  0.00  0.00    -0.283 N 
ATOM     36  H   UNL     1      -6.707  60.746  13.189  0.00  0.00    +0.155 HD
ATOM     37  N   UNL     1      -7.455  59.733  15.398  0.00  0.00    -0.214 NA
BRANCH   4   3
ATOM      1  C   UNL     1      -8.261  55.672  18.143  0.00  0.00    +0.020 A 
ATOM      2  C   UNL     1      -8.259  57.112  18.036  0.00  0.00    +0.013 A 
ATOM      3  C   UNL     1      -7.893  57.765  16.785  0.00  0.00    +0.019 A 
ATOM     38  C   UNL     1      -7.533  56.925  15.653  0.00  0.00    +0.120 A 
ATOM     39  N   UNL     1      -7.543  55.540  15.787  0.00  0.00    -0.263 NA
ATOM     40  C   UNL     1      -7.891  54.901  16.986  0.00  0.00    +0.111 A 
ENDBRANCH   4   3
ENDBRANCH  10   9
BRANCH  12  13
ATOM     13  N   UNL     1      -4.438  65.727  13.752  0.00  0.00    -0.281 N 
ATOM     14  C   UNL     1      -3.273  65.788  13.006  0.00  0.00    +0.248 C 
ATOM     30  O   UNL     1      -2.985  65.009  12.110  0.00  0.00    -0.270 OA
ATOM     31  H   UNL     1      -4.465  66.309  14.589  0.00  0.00    +0.155 HD
BRANCH  14  15
ATOM     15  C   UNL     1      -2.277  66.861  13.308  0.00  0.00    +0.037 A 
ATOM     16  C   UNL     1      -2.367  68.180  12.677  0.00  0.00    +0.013 A 
ATOM     17  C   UNL     1      -1.383  69.192  12.973  0.00  0.00    +0.005 A 
ATOM     18  C   UNL     1      -0.302  68.887  13.907  0.00  0.00    -0.033 A 
ATOM     28  C   UNL     1      -0.240  67.572  14.523  0.00  0.00    +0.005 A 
ATOM     29  C   UNL     1      -1.202  66.578  14.234  0.00  0.00    +0.013 A 
BRANCH  18  19
ATOM     19  C   UNL     1       0.803  69.899  14.265  0.00  0.00    +0.119 C 
BRANCH  19  20
ATOM     20  N   UNL     1       1.988  69.381  15.012  0.00  0.00    -0.302 NA
ATOM     21  C   UNL     1       2.185  70.103  16.348  0.00  0.00    +0.066 C 
ATOM     22  C   UNL     1       3.416  69.533  17.126  0.00  0.00    -0.064 C 
ATOM     23  N   UNL     1       4.667  69.655  16.255  0.00  0.00    +0.379 N 
ATOM     24  C   UNL     1       5.836  69.174  17.006  0.00  0.00    -0.096 C 
ATOM     25  H   UNL     1       4.825  70.737  16.040  0.00  0.00    -0.082 HD
ATOM     26  C   UNL     1       4.479  68.942  14.924  0.00  0.00    -0.064 C 
ATOM     27  C   UNL     1       3.236  69.495  14.172  0.00  0.00    +0.066 C 
ENDBRANCH  19  20
ENDBRANCH  18  19
ENDBRANCH  14  15
ENDBRANCH  12  13
TORSDOF 6
ENDMDL
