MODEL 1
REMARK VINA RESULT:     -11.8      0.000      0.000
REMARK  Name = C:\Users\Docking\Desktop\test protocol\1iep_ligandH.pdb
REMARK  8 active torsions:
REMARK  status: ('A' for Active; 'I' for Inactive)
REMARK    1  A    between atoms: _5  and  _11
REMARK    2  A    between atoms: _19  and  _21
REMARK    3  A    between atoms: _22  and  _66
REMARK    4  A    between atoms: _27  and  _30
REMARK    5  A    between atoms: _32  and  _33
REMARK    6  A    between atoms: _38  and  _43
REMARK    7  A    between atoms: _43  and  _46
REMARK    8  A    between atoms: _53  and  _55
REMARK                            x       y       z     vdW  Elec       q    Type
REMARK                         _______ _______ _______ _____ _____    ______ ____
ROOT
ATOM     10  C   UNL     1      20.309 -14.716  44.999  0.00  0.00    +0.038 A 
ATOM     11  C   UNL     1      20.762 -13.930  43.908  0.00  0.00    +0.047 A 
ATOM     12  C   UNL     1      20.250 -14.144  42.563  0.00  0.00    +0.035 A 
ATOM     32  C   UNL     1      19.275 -15.164  42.366  0.00  0.00    +0.024 A 
ATOM     33  C   UNL     1      18.804 -15.972  43.463  0.00  0.00    +0.007 A 
ATOM     34  C   UNL     1      19.307 -15.768  44.791  0.00  0.00    -0.029 A 
ATOM     35  C   UNL     1      18.770 -16.668  45.929  0.00  0.00    +0.045 C 
ENDROOT
BRANCH  10   9
ATOM      4  C   UNL     1      21.025 -11.878  48.803  0.00  0.00    +0.077 A 
ATOM      5  C   UNL     1      20.315 -10.788  48.198  0.00  0.00    +0.048 A 
ATOM      6  C   UNL     1      19.787 -10.996  46.904  0.00  0.00    +0.116 A 
ATOM      7  N   UNL     1      19.962 -12.208  46.272  0.00  0.00    -0.223 NA
ATOM      8  C   UNL     1      20.653 -13.238  46.883  0.00  0.00    +0.220 A 
ATOM      9  N   UNL     1      20.834 -14.468  46.269  0.00  0.00    -0.283 N 
ATOM     36  H   UNL     1      21.356 -15.199  46.750  0.00  0.00    +0.155 HD
ATOM     37  N   UNL     1      21.168 -13.063  48.118  0.00  0.00    -0.214 NA
BRANCH   4   3
ATOM      1  C   UNL     1      21.983 -12.690  52.507  0.00  0.00    +0.020 A 
ATOM      2  C   UNL     1      21.364 -12.798  51.206  0.00  0.00    +0.013 A 
ATOM      3  C   UNL     1      21.637 -11.813  50.167  0.00  0.00    +0.019 A 
ATOM     38  C   UNL     1      22.548 -10.722  50.480  0.00  0.00    +0.120 A 
ATOM     39  N   UNL     1      23.128 -10.643  51.743  0.00  0.00    -0.263 NA
ATOM     40  C   UNL     1      22.871 -11.585  52.751  0.00  0.00    +0.111 A 
ENDBRANCH   4   3
ENDBRANCH  10   9
BRANCH  12  13
ATOM     13  N   UNL     1      20.679 -13.383  41.416  0.00  0.00    -0.281 N 
ATOM     14  C   UNL     1      21.939 -13.346  40.841  0.00  0.00    +0.248 C 
ATOM     30  O   UNL     1      22.948 -13.800  41.359  0.00  0.00    -0.270 OA
ATOM     31  H   UNL     1      19.967 -12.802  40.973  0.00  0.00    +0.155 HD
BRANCH  14  15
ATOM     15  C   UNL     1      22.104 -12.698  39.504  0.00  0.00    +0.037 A 
ATOM     16  C   UNL     1      23.432 -12.403  38.962  0.00  0.00    +0.013 A 
ATOM     17  C   UNL     1      23.563 -11.762  37.678  0.00  0.00    +0.005 A 
ATOM     18  C   UNL     1      22.360 -11.413  36.926  0.00  0.00    -0.033 A 
ATOM     28  C   UNL     1      21.054 -11.722  37.485  0.00  0.00    +0.005 A 
ATOM     29  C   UNL     1      20.923 -12.350  38.744  0.00  0.00    +0.013 A 
BRANCH  18  19
ATOM     19  C   UNL     1      22.404 -10.708  35.557  0.00  0.00    +0.119 C 
BRANCH  19  20
ATOM     20  N   UNL     1      21.863 -11.457  34.384  0.00  0.00    -0.302 NA
ATOM     21  C   UNL     1      21.972 -12.973  34.571  0.00  0.00    +0.066 C 
ATOM     22  C   UNL     1      21.380 -13.742  33.345  0.00  0.00    -0.064 C 
ATOM     23  N   UNL     1      22.105 -13.300  32.072  0.00  0.00    +0.379 N 
ATOM     24  C   UNL     1      21.591 -14.063  30.925  0.00  0.00    -0.096 C 
ATOM     25  H   UNL     1      23.183 -13.554  32.191  0.00  0.00    -0.082 HD
ATOM     26  C   UNL     1      22.004 -11.793  31.880  0.00  0.00    -0.064 C 
ATOM     27  C   UNL     1      22.567 -11.039  33.117  0.00  0.00    +0.066 C 
ENDBRANCH  19  20
ENDBRANCH  18  19
ENDBRANCH  14  15
ENDBRANCH  12  13
TORSDOF 6
ENDMDL
MODEL 2
REMARK VINA RESULT:     -11.0      3.181     12.552
REMARK  Name = C:\Users\Docking\Desktop\test protocol\1iep_ligandH.pdb
REMARK  8 active torsions:
REMARK  status: ('A' for Active; 'I' for Inactive)
REMARK    1  A    between atoms: _5  and  _11
REMARK    2  A    between atoms: _19  and  _21
REMARK    3  A    between atoms: _22  and  _66
REMARK    4  A    between atoms: _27  and  _30
REMARK    5  A    between atoms: _32  and  _33
REMARK    6  A    between atoms: _38  and  _43
REMARK    7  A    between atoms: _43  and  _46
REMARK    8  A    between atoms: _53  and  _55
REMARK                            x       y       z     vdW  Elec       q    Type
REMARK                         _______ _______ _______ _____ _____    ______ ____
ROOT
ATOM     10  C   UNL     1      16.341 -13.166  37.510  0.00  0.00    +0.038 A 
ATOM     11  C   UNL     1      17.008 -13.358  38.747  0.00  0.00    +0.047 A 
ATOM     12  C   UNL     1      16.277 -13.361  40.004  0.00  0.00    +0.035 A 
ATOM     32  C   UNL     1      14.865 -13.168  39.965  0.00  0.00    +0.024 A 
ATOM     33  C   UNL     1      14.170 -12.971  38.717  0.00  0.00    +0.007 A 
ATOM     34  C   UNL     1      14.887 -12.964  37.474  0.00  0.00    -0.029 A 
ATOM     35  C   UNL     1      14.092 -12.741  36.166  0.00  0.00    +0.045 C 
ENDROOT
BRANCH  10   9
ATOM      4  C   UNL     1      20.439 -12.503  35.102  0.00  0.00    +0.077 A 
ATOM      5  C   UNL     1      21.135 -12.084  36.284  0.00  0.00    +0.048 A 
ATOM      6  C   UNL     1      20.400 -12.045  37.490  0.00  0.00    +0.116 A 
ATOM      7  N   UNL     1      19.069 -12.402  37.502  0.00  0.00    -0.223 NA
ATOM      8  C   UNL     1      18.428 -12.801  36.343  0.00  0.00    +0.220 A 
ATOM      9  N   UNL     1      17.092 -13.172  36.333  0.00  0.00    -0.283 N 
ATOM     36  H   UNL     1      16.654 -13.453  35.456  0.00  0.00    +0.155 HD
ATOM     37  N   UNL     1      19.107 -12.845  35.178  0.00  0.00    -0.214 NA
BRANCH   4   3
ATOM      1  C   UNL     1      21.679 -13.850  31.645  0.00  0.00    +0.020 A 
ATOM      2  C   UNL     1      21.045 -13.810  32.942  0.00  0.00    +0.013 A 
ATOM      3  C   UNL     1      21.080 -12.599  33.752  0.00  0.00    +0.019 A 
ATOM     38  C   UNL     1      21.770 -11.436  33.215  0.00  0.00    +0.120 A 
ATOM     39  N   UNL     1      22.373 -11.504  31.963  0.00  0.00    -0.263 NA
ATOM     40  C   UNL     1      22.347 -12.664  31.176  0.00  0.00    +0.111 A 
ENDBRANCH   4   3
ENDBRANCH  10   9
BRANCH  12  13
ATOM     13  N   UNL     1      16.901 -13.543  41.291  0.00  0.00    -0.281 N 
ATOM     14  C   UNL     1      18.099 -14.180  41.574  0.00  0.00    +0.248 C 
ATOM     30  O   UNL     1      18.713 -14.880  40.783  0.00  0.00    -0.270 OA
ATOM     31  H   UNL     1      16.400 -13.155  42.090  0.00  0.00    +0.155 HD
BRANCH  14  15
ATOM     15  C   UNL     1      18.692 -14.028  42.937  0.00  0.00    +0.037 A 
ATOM     16  C   UNL     1      18.868 -12.708  43.547  0.00  0.00    +0.013 A 
ATOM     17  C   UNL     1      19.459 -12.589  44.856  0.00  0.00    +0.005 A 
ATOM     18  C   UNL     1      19.878 -13.796  45.565  0.00  0.00    -0.033 A 
ATOM     28  C   UNL     1      19.687 -15.093  44.939  0.00  0.00    +0.005 A 
ATOM     29  C   UNL     1      19.109 -15.214  43.655  0.00  0.00    +0.013 A 
BRANCH  18  19
ATOM     19  C   UNL     1      20.537 -13.762  46.957  0.00  0.00    +0.119 C 
BRANCH  19  20
ATOM     20  N   UNL     1      20.813 -12.419  47.550  0.00  0.00    -0.302 NA
ATOM     21  C   UNL     1      21.921 -11.676  46.800  0.00  0.00    +0.066 C 
ATOM     22  C   UNL     1      22.181 -10.265  47.420  0.00  0.00    -0.064 C 
ATOM     23  N   UNL     1      22.538 -10.419  48.899  0.00  0.00    +0.379 N 
ATOM     24  C   UNL     1      22.840  -9.098  49.471  0.00  0.00    -0.096 C 
ATOM     25  H   UNL     1      23.466 -11.034  48.960  0.00  0.00    -0.082 HD
ATOM     26  C   UNL     1      21.443 -11.159  49.653  0.00  0.00    -0.064 C 
ATOM     27  C   UNL     1      21.172 -12.548  49.010  0.00  0.00    +0.066 C 
ENDBRANCH  19  20
ENDBRANCH  18  19
ENDBRANCH  14  15
ENDBRANCH  12  13
TORSDOF 6
ENDMDL
MODEL 3
REMARK VINA RESULT:     -10.9      5.812      7.153
REMARK  Name = C:\Users\Docking\Desktop\test protocol\1iep_ligandH.pdb
REMARK  8 active torsions:
REMARK  status: ('A' for Active; 'I' for Inactive)
REMARK    1  A    between atoms: _5  and  _11
REMARK    2  A    between atoms: _19  and  _21
REMARK    3  A    between atoms: _22  and  _66
REMARK    4  A    between atoms: _27  and  _30
REMARK    5  A    between atoms: _32  and  _33
REMARK    6  A    between atoms: _38  and  _43
REMARK    7  A    between atoms: _43  and  _46
REMARK    8  A    between atoms: _53  and  _55
REMARK                            x       y       z     vdW  Elec       q    Type
REMARK                         _______ _______ _______ _____ _____    ______ ____
ROOT
ATOM     10  C   UNL     1      20.082 -14.755  44.719  0.00  0.00    +0.038 A 
ATOM     11  C   UNL     1      18.922 -14.212  44.111  0.00  0.00    +0.047 A 
ATOM     12  C   UNL     1      18.693 -14.338  42.679  0.00  0.00    +0.035 A 
ATOM     32  C   UNL     1      19.667 -15.026  41.898  0.00  0.00    +0.024 A 
ATOM     33  C   UNL     1      20.852 -15.584  42.500  0.00  0.00    +0.007 A 
ATOM     34  C   UNL     1      21.084 -15.460  43.911  0.00  0.00    -0.029 A 
ATOM     35  C   UNL     1      22.376 -16.072  44.502  0.00  0.00    +0.045 C 
ENDROOT
BRANCH  10   9
ATOM      4  C   UNL     1      21.430 -12.223  48.568  0.00  0.00    +0.077 A 
ATOM      5  C   UNL     1      21.861 -11.117  47.762  0.00  0.00    +0.048 A 
ATOM      6  C   UNL     1      21.725 -11.242  46.361  0.00  0.00    +0.116 A 
ATOM      7  N   UNL     1      21.196 -12.392  45.818  0.00  0.00    -0.223 NA
ATOM      8  C   UNL     1      20.792 -13.442  46.623  0.00  0.00    +0.220 A 
ATOM      9  N   UNL     1      20.250 -14.605  46.098  0.00  0.00    -0.283 N 
ATOM     36  H   UNL     1      19.971 -15.359  46.725  0.00  0.00    +0.155 HD
ATOM     37  N   UNL     1      20.913 -13.347  47.963  0.00  0.00    -0.214 NA
BRANCH   4   3
ATOM      1  C   UNL     1      20.746 -13.040  52.331  0.00  0.00    +0.020 A 
ATOM      2  C   UNL     1      20.631 -13.060  50.891  0.00  0.00    +0.013 A 
ATOM      3  C   UNL     1      21.507 -12.241  50.063  0.00  0.00    +0.019 A 
ATOM     38  C   UNL     1      22.497 -11.407  50.728  0.00  0.00    +0.120 A 
ATOM     39  N   UNL     1      22.584 -11.408  52.116  0.00  0.00    -0.263 NA
ATOM     40  C   UNL     1      21.745 -12.190  52.924  0.00  0.00    +0.111 A 
ENDBRANCH   4   3
ENDBRANCH  10   9
BRANCH  12  13
ATOM     13  N   UNL     1      17.539 -13.800  42.005  0.00  0.00    -0.281 N 
ATOM     14  C   UNL     1      17.406 -12.560  41.399  0.00  0.00    +0.248 C 
ATOM     30  O   UNL     1      18.197 -11.638  41.533  0.00  0.00    -0.270 OA
ATOM     31  H   UNL     1      16.719 -14.406  41.969  0.00  0.00    +0.155 HD
BRANCH  14  15
ATOM     15  C   UNL     1      16.217 -12.304  40.531  0.00  0.00    +0.037 A 
ATOM     16  C   UNL     1      15.575 -10.988  40.491  0.00  0.00    +0.013 A 
ATOM     17  C   UNL     1      14.419 -10.772  39.658  0.00  0.00    +0.005 A 
ATOM     18  C   UNL     1      13.898 -11.877  38.856  0.00  0.00    -0.033 A 
ATOM     28  C   UNL     1      14.557 -13.171  38.911  0.00  0.00    +0.005 A 
ATOM     29  C   UNL     1      15.690 -13.386  39.727  0.00  0.00    +0.013 A 
BRANCH  18  19
ATOM     19  C   UNL     1      12.656 -11.743  37.955  0.00  0.00    +0.119 C 
BRANCH  19  20
ATOM     20  N   UNL     1      11.646 -10.709  38.331  0.00  0.00    -0.302 NA
ATOM     21  C   UNL     1      11.158 -10.881  39.772  0.00  0.00    +0.066 C 
ATOM     22  C   UNL     1      10.119  -9.777  40.157  0.00  0.00    -0.064 C 
ATOM     23  N   UNL     1       8.944  -9.824  39.178  0.00  0.00    +0.379 N 
ATOM     24  C   UNL     1       7.938  -8.827  39.571  0.00  0.00    -0.096 C 
ATOM     25  H   UNL     1       8.474 -10.831  39.263  0.00  0.00    -0.082 HD
ATOM     26  C   UNL     1       9.421  -9.657  37.742  0.00  0.00    -0.064 C 
ATOM     27  C   UNL     1      10.475 -10.740  37.380  0.00  0.00    +0.066 C 
ENDBRANCH  19  20
ENDBRANCH  18  19
ENDBRANCH  14  15
ENDBRANCH  12  13
TORSDOF 6
ENDMDL
MODEL 4
REMARK VINA RESULT:     -10.8      6.280      7.930
REMARK  Name = C:\Users\Docking\Desktop\test protocol\1iep_ligandH.pdb
REMARK  8 active torsions:
REMARK  status: ('A' for Active; 'I' for Inactive)
REMARK    1  A    between atoms: _5  and  _11
REMARK    2  A    between atoms: _19  and  _21
REMARK    3  A    between atoms: _22  and  _66
REMARK    4  A    between atoms: _27  and  _30
REMARK    5  A    between atoms: _32  and  _33
REMARK    6  A    between atoms: _38  and  _43
REMARK    7  A    between atoms: _43  and  _46
REMARK    8  A    between atoms: _53  and  _55
REMARK                            x       y       z     vdW  Elec       q    Type
REMARK                         _______ _______ _______ _____ _____    ______ ____
ROOT
ATOM     10  C   UNL     1      21.023 -12.862  42.486  0.00  0.00    +0.038 A 
ATOM     11  C   UNL     1      19.777 -12.510  41.906  0.00  0.00    +0.047 A 
ATOM     12  C   UNL     1      19.568 -12.586  40.469  0.00  0.00    +0.035 A 
ATOM     32  C   UNL     1      20.649 -13.027  39.651  0.00  0.00    +0.024 A 
ATOM     33  C   UNL     1      21.922 -13.388  40.224  0.00  0.00    +0.007 A 
ATOM     34  C   UNL     1      22.135 -13.312  41.641  0.00  0.00    -0.029 A 
ATOM     35  C   UNL     1      23.523 -13.705  42.199  0.00  0.00    +0.045 C 
ENDROOT
BRANCH  10   9
ATOM      4  C   UNL     1      22.064 -10.411  46.479  0.00  0.00    +0.077 A 
ATOM      5  C   UNL     1      22.370  -9.220  45.740  0.00  0.00    +0.048 A 
ATOM      6  C   UNL     1      22.253  -9.283  44.333  0.00  0.00    +0.116 A 
ATOM      7  N   UNL     1      21.860 -10.453  43.722  0.00  0.00    -0.223 NA
ATOM      8  C   UNL     1      21.574 -11.584  44.465  0.00  0.00    +0.220 A 
ATOM      9  N   UNL     1      21.168 -12.770  43.872  0.00  0.00    -0.283 N 
ATOM     36  H   UNL     1      20.974 -13.584  44.454  0.00  0.00    +0.155 HD
ATOM     37  N   UNL     1      21.678 -11.551  45.810  0.00  0.00    -0.214 NA
BRANCH   4   3
ATOM      1  C   UNL     1      22.674  -9.553  50.247  0.00  0.00    +0.020 A 
ATOM      2  C   UNL     1      22.625  -9.414  48.809  0.00  0.00    +0.013 A 
ATOM      3  C   UNL     1      22.136 -10.502  47.972  0.00  0.00    +0.019 A 
ATOM     38  C   UNL     1      21.701 -11.727  48.626  0.00  0.00    +0.120 A 
ATOM     39  N   UNL     1      21.762 -11.833  50.012  0.00  0.00    -0.263 NA
ATOM     40  C   UNL     1      22.231 -10.793  50.828  0.00  0.00    +0.111 A 
ENDBRANCH   4   3
ENDBRANCH  10   9
BRANCH  12  13
ATOM     13  N   UNL     1      18.328 -12.235  39.822  0.00  0.00    -0.281 N 
ATOM     14  C   UNL     1      17.125 -12.921  39.857  0.00  0.00    +0.248 C 
ATOM     30  O   UNL     1      16.991 -14.061  40.277  0.00  0.00    -0.270 OA
ATOM     31  H   UNL     1      18.338 -11.375  39.273  0.00  0.00    +0.155 HD
BRANCH  14  15
ATOM     15  C   UNL     1      15.895 -12.250  39.336  0.00  0.00    +0.037 A 
ATOM     16  C   UNL     1      15.416 -12.494  37.973  0.00  0.00    +0.013 A 
ATOM     17  C   UNL     1      14.237 -11.820  37.490  0.00  0.00    +0.005 A 
ATOM     18  C   UNL     1      13.527 -10.896  38.372  0.00  0.00    -0.033 A 
ATOM     28  C   UNL     1      14.022 -10.677  39.721  0.00  0.00    +0.005 A 
ATOM     29  C   UNL     1      15.178 -11.335  40.198  0.00  0.00    +0.013 A 
BRANCH  18  19
ATOM     19  C   UNL     1      12.273 -10.118  37.933  0.00  0.00    +0.119 C 
BRANCH  19  20
ATOM     20  N   UNL     1      11.127 -10.072  38.890  0.00  0.00    -0.302 NA
ATOM     21  C   UNL     1       9.780 -10.240  38.183  0.00  0.00    +0.066 C 
ATOM     22  C   UNL     1       8.594 -10.212  39.202  0.00  0.00    -0.064 C 
ATOM     23  N   UNL     1       8.633  -8.901  39.988  0.00  0.00    +0.379 N 
ATOM     24  C   UNL     1       7.486  -8.845  40.906  0.00  0.00    -0.096 C 
ATOM     25  H   UNL     1       8.522  -8.065  39.258  0.00  0.00    -0.082 HD
ATOM     26  C   UNL     1       9.970  -8.724  40.693  0.00  0.00    -0.064 C 
ATOM     27  C   UNL     1      11.143  -8.783  39.675  0.00  0.00    +0.066 C 
ENDBRANCH  19  20
ENDBRANCH  18  19
ENDBRANCH  14  15
ENDBRANCH  12  13
TORSDOF 6
ENDMDL
MODEL 5
REMARK VINA RESULT:     -10.7      5.612      6.372
REMARK  Name = C:\Users\Docking\Desktop\test protocol\1iep_ligandH.pdb
REMARK  8 active torsions:
REMARK  status: ('A' for Active; 'I' for Inactive)
REMARK    1  A    between atoms: _5  and  _11
REMARK    2  A    between atoms: _19  and  _21
REMARK    3  A    between atoms: _22  and  _66
REMARK    4  A    between atoms: _27  and  _30
REMARK    5  A    between atoms: _32  and  _33
REMARK    6  A    between atoms: _38  and  _43
REMARK    7  A    between atoms: _43  and  _46
REMARK    8  A    between atoms: _53  and  _55
REMARK                            x       y       z     vdW  Elec       q    Type
REMARK                         _______ _______ _______ _____ _____    ______ ____
ROOT
ATOM     10  C   UNL     1      19.720 -14.624  44.669  0.00  0.00    +0.038 A 
ATOM     11  C   UNL     1      18.542 -14.072  44.104  0.00  0.00    +0.047 A 
ATOM     12  C   UNL     1      18.269 -14.179  42.679  0.00  0.00    +0.035 A 
ATOM     32  C   UNL     1      19.217 -14.859  41.859  0.00  0.00    +0.024 A 
ATOM     33  C   UNL     1      20.420 -15.425  42.417  0.00  0.00    +0.007 A 
ATOM     34  C   UNL     1      20.696 -15.319  43.821  0.00  0.00    -0.029 A 
ATOM     35  C   UNL     1      22.005 -15.939  44.364  0.00  0.00    +0.045 C 
ENDROOT
BRANCH  10   9
ATOM      4  C   UNL     1      21.403 -12.245  48.483  0.00  0.00    +0.077 A 
ATOM      5  C   UNL     1      21.929 -11.189  47.666  0.00  0.00    +0.048 A 
ATOM      6  C   UNL     1      21.752 -11.300  46.269  0.00  0.00    +0.116 A 
ATOM      7  N   UNL     1      21.095 -12.389  45.739  0.00  0.00    -0.223 NA
ATOM      8  C   UNL     1      20.602 -13.391  46.554  0.00  0.00    +0.220 A 
ATOM      9  N   UNL     1      19.931 -14.491  46.043  0.00  0.00    -0.283 N 
ATOM     36  H   UNL     1      19.588 -15.212  46.678  0.00  0.00    +0.155 HD
ATOM     37  N   UNL     1      20.759 -13.309  47.892  0.00  0.00    -0.214 NA
BRANCH   4   3
ATOM      1  C   UNL     1      20.893 -13.182  52.246  0.00  0.00    +0.020 A 
ATOM      2  C   UNL     1      20.755 -13.200  50.808  0.00  0.00    +0.013 A 
ATOM      3  C   UNL     1      21.508 -12.269  49.976  0.00  0.00    +0.019 A 
ATOM     38  C   UNL     1      22.399 -11.327  50.636  0.00  0.00    +0.120 A 
ATOM     39  N   UNL     1      22.511 -11.333  52.023  0.00  0.00    -0.263 NA
ATOM     40  C   UNL     1      21.790 -12.222  52.834  0.00  0.00    +0.111 A 
ENDBRANCH   4   3
ENDBRANCH  10   9
BRANCH  12  13
ATOM     13  N   UNL     1      17.094 -13.632  42.047  0.00  0.00    -0.281 N 
ATOM     14  C   UNL     1      17.022 -12.579  41.151  0.00  0.00    +0.248 C 
ATOM     30  O   UNL     1      17.939 -11.805  40.918  0.00  0.00    -0.270 OA
ATOM     31  H   UNL     1      16.208 -14.075  42.291  0.00  0.00    +0.155 HD
BRANCH  14  15
ATOM     15  C   UNL     1      15.742 -12.341  40.417  0.00  0.00    +0.037 A 
ATOM     16  C   UNL     1      15.221 -10.987  40.215  0.00  0.00    +0.013 A 
ATOM     17  C   UNL     1      13.975 -10.787  39.519  0.00  0.00    +0.005 A 
ATOM     18  C   UNL     1      13.242 -11.947  39.017  0.00  0.00    -0.033 A 
ATOM     28  C   UNL     1      13.784 -13.279  39.226  0.00  0.00    +0.005 A 
ATOM     29  C   UNL     1      15.004 -13.479  39.909  0.00  0.00    +0.013 A 
BRANCH  18  19
ATOM     19  C   UNL     1      11.894 -11.829  38.281  0.00  0.00    +0.119 C 
BRANCH  19  20
ATOM     20  N   UNL     1      11.896 -12.070  36.807  0.00  0.00    -0.302 NA
ATOM     21  C   UNL     1      11.171 -10.959  36.042  0.00  0.00    +0.066 C 
ATOM     22  C   UNL     1      11.203 -11.215  34.500  0.00  0.00    -0.064 C 
ATOM     23  N   UNL     1      10.576 -12.577  34.199  0.00  0.00    +0.379 N 
ATOM     24  C   UNL     1      10.552 -12.796  32.746  0.00  0.00    -0.096 C 
ATOM     25  H   UNL     1       9.520 -12.550  34.555  0.00  0.00    -0.082 HD
ATOM     26  C   UNL     1      11.290 -13.688  34.958  0.00  0.00    -0.064 C 
ATOM     27  C   UNL     1      11.278 -13.408  36.487  0.00  0.00    +0.066 C 
ENDBRANCH  19  20
ENDBRANCH  18  19
ENDBRANCH  14  15
ENDBRANCH  12  13
TORSDOF 6
ENDMDL
