MODEL 1
REMARK VINA RESULT:      -8.8      0.000      0.000
REMARK  Name = C:\Users\Docking\Desktop\test protocol\1iep_ligandH.pdb
REMARK  8 active torsions:
REMARK  status: ('A' for Active; 'I' for Inactive)
REMARK    1  A    between atoms: _5  and  _11
REMARK    2  A    between atoms: _19  and  _21
REMARK    3  A    between atoms: _22  and  _66
REMARK    4  A    between atoms: _27  and  _30
REMARK    5  A    between atoms: _32  and  _33
REMARK    6  A    between atoms: _38  and  _43
REMARK    7  A    between atoms: _43  and  _46
REMARK    8  A    between atoms: _53  and  _55
REMARK                            x       y       z     vdW  Elec       q    Type
REMARK                         _______ _______ _______ _____ _____    ______ ____
ROOT
ATOM     10  C   UNL     1      14.092   5.958  32.056  0.00  0.00    +0.038 A 
ATOM     11  C   UNL     1      13.340   5.202  31.121  0.00  0.00    +0.047 A 
ATOM     12  C   UNL     1      13.906   4.810  29.840  0.00  0.00    +0.035 A 
ATOM     32  C   UNL     1      15.244   5.204  29.544  0.00  0.00    +0.024 A 
ATOM     33  C   UNL     1      16.023   5.974  30.482  0.00  0.00    +0.007 A 
ATOM     34  C   UNL     1      15.468   6.365  31.746  0.00  0.00    -0.029 A 
ATOM     35  C   UNL     1      16.347   7.196  32.710  0.00  0.00    +0.045 C 
ENDROOT
BRANCH  10   9
ATOM      4  C   UNL     1      13.163   5.157  36.696  0.00  0.00    +0.077 A 
ATOM      5  C   UNL     1      13.900   3.926  36.692  0.00  0.00    +0.048 A 
ATOM      6  C   UNL     1      14.497   3.531  35.474  0.00  0.00    +0.116 A 
ATOM      7  N   UNL     1      14.361   4.317  34.350  0.00  0.00    -0.223 NA
ATOM      8  C   UNL     1      13.642   5.497  34.387  0.00  0.00    +0.220 A 
ATOM      9  N   UNL     1      13.499   6.307  33.271  0.00  0.00    -0.283 N 
ATOM     36  H   UNL     1      12.954   7.166  33.338  0.00  0.00    +0.155 HD
ATOM     37  N   UNL     1      13.061   5.896  35.538  0.00  0.00    -0.214 NA
BRANCH   4   3
ATOM      1  C   UNL     1      11.963   7.571  39.530  0.00  0.00    +0.020 A 
ATOM      2  C   UNL     1      12.648   7.087  38.354  0.00  0.00    +0.013 A 
ATOM      3  C   UNL     1      12.477   5.710  37.907  0.00  0.00    +0.019 A 
ATOM     38  C   UNL     1      11.599   4.843  38.677  0.00  0.00    +0.120 A 
ATOM     39  N   UNL     1      10.953   5.337  39.806  0.00  0.00    -0.263 NA
ATOM     40  C   UNL     1      11.111   6.659  40.248  0.00  0.00    +0.111 A 
ENDBRANCH   4   3
ENDBRANCH  10   9
BRANCH  12  13
ATOM     13  N   UNL     1      13.188   4.049  28.848  0.00  0.00    -0.281 N 
ATOM     14  C   UNL     1      12.555   4.518  27.709  0.00  0.00    +0.248 C 
ATOM     30  O   UNL     1      12.328   5.697  27.480  0.00  0.00    -0.270 OA
ATOM     31  H   UNL     1      13.139   3.042  29.006  0.00  0.00    +0.155 HD
BRANCH  14  15
ATOM     15  C   UNL     1      12.096   3.535  26.681  0.00  0.00    +0.037 A 
ATOM     16  C   UNL     1      11.111   2.500  27.007  0.00  0.00    +0.013 A 
ATOM     17  C   UNL     1      10.698   1.553  26.002  0.00  0.00    +0.005 A 
ATOM     18  C   UNL     1      11.269   1.638  24.660  0.00  0.00    -0.033 A 
ATOM     28  C   UNL     1      12.240   2.678  24.363  0.00  0.00    +0.005 A 
ATOM     29  C   UNL     1      12.648   3.607  25.345  0.00  0.00    +0.013 A 
BRANCH  18  19
ATOM     19  C   UNL     1      10.902   0.656  23.531  0.00  0.00    +0.119 C 
BRANCH  19  20
ATOM     20  N   UNL     1      10.454   1.244  22.233  0.00  0.00    -0.302 NA
ATOM     21  C   UNL     1       9.302   2.236  22.419  0.00  0.00    +0.066 C 
ATOM     22  C   UNL     1       8.861   2.858  21.054  0.00  0.00    -0.064 C 
ATOM     23  N   UNL     1       8.461   1.738  20.092  0.00  0.00    +0.379 N 
ATOM     24  C   UNL     1       7.991   2.321  18.827  0.00  0.00    -0.096 C 
ATOM     25  H   UNL     1       7.606   1.188  20.549  0.00  0.00    -0.082 HD
ATOM     26  C   UNL     1       9.600   0.745  19.904  0.00  0.00    -0.064 C 
ATOM     27  C   UNL     1      10.050   0.155  21.269  0.00  0.00    +0.066 C 
ENDBRANCH  19  20
ENDBRANCH  18  19
ENDBRANCH  14  15
ENDBRANCH  12  13
TORSDOF 6
ENDMDL
MODEL 2
REMARK VINA RESULT:      -8.5      2.234      2.970
REMARK  Name = C:\Users\Docking\Desktop\test protocol\1iep_ligandH.pdb
REMARK  8 active torsions:
REMARK  status: ('A' for Active; 'I' for Inactive)
REMARK    1  A    between atoms: _5  and  _11
REMARK    2  A    between atoms: _19  and  _21
REMARK    3  A    between atoms: _22  and  _66
REMARK    4  A    between atoms: _27  and  _30
REMARK    5  A    between atoms: _32  and  _33
REMARK    6  A    between atoms: _38  and  _43
REMARK    7  A    between atoms: _43  and  _46
REMARK    8  A    between atoms: _53  and  _55
REMARK                            x       y       z     vdW  Elec       q    Type
REMARK                         _______ _______ _______ _____ _____    ______ ____
ROOT
ATOM     10  C   UNL     1      14.373   5.101  32.477  0.00  0.00    +0.038 A 
ATOM     11  C   UNL     1      13.604   4.556  31.416  0.00  0.00    +0.047 A 
ATOM     12  C   UNL     1      13.814   4.979  30.040  0.00  0.00    +0.035 A 
ATOM     32  C   UNL     1      14.817   5.958  29.780  0.00  0.00    +0.024 A 
ATOM     33  C   UNL     1      15.606   6.523  30.846  0.00  0.00    +0.007 A 
ATOM     34  C   UNL     1      15.402   6.111  32.205  0.00  0.00    -0.029 A 
ATOM     35  C   UNL     1      16.273   6.756  33.309  0.00  0.00    +0.045 C 
ENDROOT
BRANCH  10   9
ATOM      4  C   UNL     1      12.038   5.344  36.663  0.00  0.00    +0.077 A 
ATOM      5  C   UNL     1      11.255   6.465  36.229  0.00  0.00    +0.048 A 
ATOM      6  C   UNL     1      11.489   6.953  34.924  0.00  0.00    +0.116 A 
ATOM      7  N   UNL     1      12.437   6.357  34.121  0.00  0.00    -0.223 NA
ATOM      8  C   UNL     1      13.176   5.278  34.572  0.00  0.00    +0.220 A 
ATOM      9  N   UNL     1      14.129   4.658  33.779  0.00  0.00    -0.283 N 
ATOM     36  H   UNL     1      14.659   3.870  34.150  0.00  0.00    +0.155 HD
ATOM     37  N   UNL     1      12.973   4.794  35.814  0.00  0.00    -0.214 NA
BRANCH   4   3
ATOM      1  C   UNL     1      10.554   3.964  40.009  0.00  0.00    +0.020 A 
ATOM      2  C   UNL     1      10.628   4.583  38.705  0.00  0.00    +0.013 A 
ATOM      3  C   UNL     1      11.904   4.712  38.014  0.00  0.00    +0.019 A 
ATOM     38  C   UNL     1      13.096   4.200  38.673  0.00  0.00    +0.120 A 
ATOM     39  N   UNL     1      12.994   3.610  39.929  0.00  0.00    -0.263 NA
ATOM     40  C   UNL     1      11.772   3.482  40.605  0.00  0.00    +0.111 A 
ENDBRANCH   4   3
ENDBRANCH  10   9
BRANCH  12  13
ATOM     13  N   UNL     1      13.059   4.468  28.924  0.00  0.00    -0.281 N 
ATOM     14  C   UNL     1      13.542   3.863  27.775  0.00  0.00    +0.248 C 
ATOM     30  O   UNL     1      14.716   3.862  27.435  0.00  0.00    -0.270 OA
ATOM     31  H   UNL     1      12.045   4.563  28.988  0.00  0.00    +0.155 HD
BRANCH  14  15
ATOM     15  C   UNL     1      12.580   3.170  26.864  0.00  0.00    +0.037 A 
ATOM     16  C   UNL     1      11.588   2.225  27.383  0.00  0.00    +0.013 A 
ATOM     17  C   UNL     1      10.683   1.558  26.481  0.00  0.00    +0.005 A 
ATOM     18  C   UNL     1      10.765   1.836  25.049  0.00  0.00    -0.033 A 
ATOM     28  C   UNL     1      11.755   2.782  24.562  0.00  0.00    +0.005 A 
ATOM     29  C   UNL     1      12.645   3.437  25.443  0.00  0.00    +0.013 A 
BRANCH  18  19
ATOM     19  C   UNL     1       9.854   1.154  24.011  0.00  0.00    +0.119 C 
BRANCH  19  20
ATOM     20  N   UNL     1       8.910   0.111  24.511  0.00  0.00    -0.302 NA
ATOM     21  C   UNL     1       9.247  -1.279  23.963  0.00  0.00    +0.066 C 
ATOM     22  C   UNL     1       8.263  -2.362  24.514  0.00  0.00    -0.064 C 
ATOM     23  N   UNL     1       6.828  -1.973  24.156  0.00  0.00    +0.379 N 
ATOM     24  C   UNL     1       5.905  -3.018  24.622  0.00  0.00    -0.096 C 
ATOM     25  H   UNL     1       6.757  -1.929  23.045  0.00  0.00    -0.082 HD
ATOM     26  C   UNL     1       6.485  -0.591  24.695  0.00  0.00    -0.064 C 
ATOM     27  C   UNL     1       7.486   0.473  24.165  0.00  0.00    +0.066 C 
ENDBRANCH  19  20
ENDBRANCH  18  19
ENDBRANCH  14  15
ENDBRANCH  12  13
TORSDOF 6
ENDMDL
MODEL 3
REMARK VINA RESULT:      -8.3      1.822      2.576
REMARK  Name = C:\Users\Docking\Desktop\test protocol\1iep_ligandH.pdb
REMARK  8 active torsions:
REMARK  status: ('A' for Active; 'I' for Inactive)
REMARK    1  A    between atoms: _5  and  _11
REMARK    2  A    between atoms: _19  and  _21
REMARK    3  A    between atoms: _22  and  _66
REMARK    4  A    between atoms: _27  and  _30
REMARK    5  A    between atoms: _32  and  _33
REMARK    6  A    between atoms: _38  and  _43
REMARK    7  A    between atoms: _43  and  _46
REMARK    8  A    between atoms: _53  and  _55
REMARK                            x       y       z     vdW  Elec       q    Type
REMARK                         _______ _______ _______ _____ _____    ______ ____
ROOT
ATOM     10  C   UNL     1      14.107   5.964  32.135  0.00  0.00    +0.038 A 
ATOM     11  C   UNL     1      13.352   5.219  31.193  0.00  0.00    +0.047 A 
ATOM     12  C   UNL     1      13.914   4.844  29.905  0.00  0.00    +0.035 A 
ATOM     32  C   UNL     1      15.251   5.243  29.610  0.00  0.00    +0.024 A 
ATOM     33  C   UNL     1      16.032   6.002  30.555  0.00  0.00    +0.007 A 
ATOM     34  C   UNL     1      15.481   6.377  31.826  0.00  0.00    -0.029 A 
ATOM     35  C   UNL     1      16.362   7.196  32.797  0.00  0.00    +0.045 C 
ENDROOT
BRANCH  10   9
ATOM      4  C   UNL     1      13.169   5.088  36.760  0.00  0.00    +0.077 A 
ATOM      5  C   UNL     1      13.893   3.850  36.733  0.00  0.00    +0.048 A 
ATOM      6  C   UNL     1      14.486   3.471  35.508  0.00  0.00    +0.116 A 
ATOM      7  N   UNL     1      14.358   4.278  34.398  0.00  0.00    -0.223 NA
ATOM      8  C   UNL     1      13.652   5.465  34.458  0.00  0.00    +0.220 A 
ATOM      9  N   UNL     1      13.517   6.297  33.356  0.00  0.00    -0.283 N 
ATOM     36  H   UNL     1      12.982   7.160  33.439  0.00  0.00    +0.155 HD
ATOM     37  N   UNL     1      13.075   5.849  35.616  0.00  0.00    -0.214 NA
BRANCH   4   3
ATOM      1  C   UNL     1      11.107   5.354  40.073  0.00  0.00    +0.020 A 
ATOM      2  C   UNL     1      11.744   4.784  38.908  0.00  0.00    +0.013 A 
ATOM      3  C   UNL     1      12.490   5.626  37.981  0.00  0.00    +0.019 A 
ATOM     38  C   UNL     1      12.574   7.051  38.264  0.00  0.00    +0.120 A 
ATOM     39  N   UNL     1      11.949   7.571  39.393  0.00  0.00    -0.263 NA
ATOM     40  C   UNL     1      11.226   6.771  40.291  0.00  0.00    +0.111 A 
ENDBRANCH   4   3
ENDBRANCH  10   9
BRANCH  12  13
ATOM     13  N   UNL     1      13.193   4.095  28.907  0.00  0.00    -0.281 N 
ATOM     14  C   UNL     1      12.620   4.567  27.737  0.00  0.00    +0.248 C 
ATOM     30  O   UNL     1      12.456   5.749  27.476  0.00  0.00    -0.270 OA
ATOM     31  H   UNL     1      13.093   3.095  29.083  0.00  0.00    +0.155 HD
BRANCH  14  15
ATOM     15  C   UNL     1      12.148   3.583  26.716  0.00  0.00    +0.037 A 
ATOM     16  C   UNL     1      12.611   3.647  25.327  0.00  0.00    +0.013 A 
ATOM     17  C   UNL     1      12.127   2.696  24.359  0.00  0.00    +0.005 A 
ATOM     18  C   UNL     1      11.174   1.670  24.776  0.00  0.00    -0.033 A 
ATOM     28  C   UNL     1      10.736   1.625  26.161  0.00  0.00    +0.005 A 
ATOM     29  C   UNL     1      11.207   2.557  27.114  0.00  0.00    +0.013 A 
BRANCH  18  19
ATOM     19  C   UNL     1      10.589   0.627  23.806  0.00  0.00    +0.119 C 
BRANCH  19  20
ATOM     20  N   UNL     1       9.417  -0.167  24.281  0.00  0.00    -0.302 NA
ATOM     21  C   UNL     1       9.683  -1.674  24.224  0.00  0.00    +0.066 C 
ATOM     22  C   UNL     1       8.455  -2.488  24.745  0.00  0.00    -0.064 C 
ATOM     23  N   UNL     1       7.218  -2.125  23.921  0.00  0.00    +0.379 N 
ATOM     24  C   UNL     1       6.074  -2.932  24.371  0.00  0.00    -0.096 C 
ATOM     25  H   UNL     1       7.427  -2.396  22.861  0.00  0.00    -0.082 HD
ATOM     26  C   UNL     1       6.948  -0.628  23.970  0.00  0.00    -0.064 C 
ATOM     27  C   UNL     1       8.185   0.173  23.478  0.00  0.00    +0.066 C 
ENDBRANCH  19  20
ENDBRANCH  18  19
ENDBRANCH  14  15
ENDBRANCH  12  13
TORSDOF 6
ENDMDL
MODEL 4
REMARK VINA RESULT:      -8.3      1.496      2.043
REMARK  Name = C:\Users\Docking\Desktop\test protocol\1iep_ligandH.pdb
REMARK  8 active torsions:
REMARK  status: ('A' for Active; 'I' for Inactive)
REMARK    1  A    between atoms: _5  and  _11
REMARK    2  A    between atoms: _19  and  _21
REMARK    3  A    between atoms: _22  and  _66
REMARK    4  A    between atoms: _27  and  _30
REMARK    5  A    between atoms: _32  and  _33
REMARK    6  A    between atoms: _38  and  _43
REMARK    7  A    between atoms: _43  and  _46
REMARK    8  A    between atoms: _53  and  _55
REMARK                            x       y       z     vdW  Elec       q    Type
REMARK                         _______ _______ _______ _____ _____    ______ ____
ROOT
ATOM     10  C   UNL     1      14.496   5.002  32.408  0.00  0.00    +0.038 A 
ATOM     11  C   UNL     1      13.742   4.404  31.366  0.00  0.00    +0.047 A 
ATOM     12  C   UNL     1      13.929   4.800  29.978  0.00  0.00    +0.035 A 
ATOM     32  C   UNL     1      14.896   5.807  29.688  0.00  0.00    +0.024 A 
ATOM     33  C   UNL     1      15.670   6.426  30.735  0.00  0.00    +0.007 A 
ATOM     34  C   UNL     1      15.487   6.041  32.105  0.00  0.00    -0.029 A 
ATOM     35  C   UNL     1      16.340   6.744  33.187  0.00  0.00    +0.045 C 
ENDROOT
BRANCH  10   9
ATOM      4  C   UNL     1      12.203   5.295  36.614  0.00  0.00    +0.077 A 
ATOM      5  C   UNL     1      11.395   6.392  36.164  0.00  0.00    +0.048 A 
ATOM      6  C   UNL     1      11.605   6.856  34.846  0.00  0.00    +0.116 A 
ATOM      7  N   UNL     1      12.556   6.259  34.046  0.00  0.00    -0.223 NA
ATOM      8  C   UNL     1      13.319   5.204  34.512  0.00  0.00    +0.220 A 
ATOM      9  N   UNL     1      14.275   4.584  33.722  0.00  0.00    -0.283 N 
ATOM     36  H   UNL     1      14.823   3.814  34.104  0.00  0.00    +0.155 HD
ATOM     37  N   UNL     1      13.138   4.744  35.767  0.00  0.00    -0.214 NA
BRANCH   4   3
ATOM      1  C   UNL     1      12.986   3.296  39.884  0.00  0.00    +0.020 A 
ATOM      2  C   UNL     1      13.139   3.855  38.560  0.00  0.00    +0.013 A 
ATOM      3  C   UNL     1      12.096   4.691  37.980  0.00  0.00    +0.019 A 
ATOM     38  C   UNL     1      10.901   4.945  38.771  0.00  0.00    +0.120 A 
ATOM     39  N   UNL     1      10.782   4.392  40.042  0.00  0.00    -0.263 NA
ATOM     40  C   UNL     1      11.778   3.585  40.611  0.00  0.00    +0.111 A 
ENDBRANCH   4   3
ENDBRANCH  10   9
BRANCH  12  13
ATOM     13  N   UNL     1      13.188   4.233  28.879  0.00  0.00    -0.281 N 
ATOM     14  C   UNL     1      13.365   2.997  28.279  0.00  0.00    +0.248 C 
ATOM     30  O   UNL     1      14.333   2.274  28.459  0.00  0.00    -0.270 OA
ATOM     31  H   UNL     1      12.441   4.814  28.497  0.00  0.00    +0.155 HD
BRANCH  14  15
ATOM     15  C   UNL     1      12.322   2.499  27.331  0.00  0.00    +0.037 A 
ATOM     16  C   UNL     1      11.653   3.404  26.394  0.00  0.00    +0.013 A 
ATOM     17  C   UNL     1      10.638   2.900  25.502  0.00  0.00    +0.005 A 
ATOM     18  C   UNL     1      10.289   1.482  25.543  0.00  0.00    -0.033 A 
ATOM     28  C   UNL     1      10.972   0.606  26.480  0.00  0.00    +0.005 A 
ATOM     29  C   UNL     1      11.966   1.096  27.356  0.00  0.00    +0.013 A 
BRANCH  18  19
ATOM     19  C   UNL     1       9.204   0.862  24.643  0.00  0.00    +0.119 C 
BRANCH  19  20
ATOM     20  N   UNL     1       9.242   1.205  23.190  0.00  0.00    -0.302 NA
ATOM     21  C   UNL     1       8.706   2.614  22.919  0.00  0.00    +0.066 C 
ATOM     22  C   UNL     1       8.774   2.965  21.397  0.00  0.00    -0.064 C 
ATOM     23  N   UNL     1       7.987   1.923  20.600  0.00  0.00    +0.379 N 
ATOM     24  C   UNL     1       8.001   2.283  19.174  0.00  0.00    -0.096 C 
ATOM     25  H   UNL     1       6.929   1.959  20.948  0.00  0.00    -0.082 HD
ATOM     26  C   UNL     1       8.512   0.519  20.866  0.00  0.00    -0.064 C 
ATOM     27  C   UNL     1       8.468   0.191  22.385  0.00  0.00    +0.066 C 
ENDBRANCH  19  20
ENDBRANCH  18  19
ENDBRANCH  14  15
ENDBRANCH  12  13
TORSDOF 6
ENDMDL
MODEL 5
REMARK VINA RESULT:      -8.2      4.618     13.091
REMARK  Name = C:\Users\Docking\Desktop\test protocol\1iep_ligandH.pdb
REMARK  8 active torsions:
REMARK  status: ('A' for Active; 'I' for Inactive)
REMARK    1  A    between atoms: _5  and  _11
REMARK    2  A    between atoms: _19  and  _21
REMARK    3  A    between atoms: _22  and  _66
REMARK    4  A    between atoms: _27  and  _30
REMARK    5  A    between atoms: _32  and  _33
REMARK    6  A    between atoms: _38  and  _43
REMARK    7  A    between atoms: _43  and  _46
REMARK    8  A    between atoms: _53  and  _55
REMARK                            x       y       z     vdW  Elec       q    Type
REMARK                         _______ _______ _______ _____ _____    ______ ____
ROOT
ATOM     10  C   UNL     1       9.253  -0.065  23.977  0.00  0.00    +0.038 A 
ATOM     11  C   UNL     1       9.974   0.542  25.037  0.00  0.00    +0.047 A 
ATOM     12  C   UNL     1      10.531   1.878  24.899  0.00  0.00    +0.035 A 
ATOM     32  C   UNL     1      10.332   2.570  23.669  0.00  0.00    +0.024 A 
ATOM     33  C   UNL     1       9.603   1.967  22.581  0.00  0.00    +0.007 A 
ATOM     34  C   UNL     1       9.053   0.648  22.710  0.00  0.00    -0.029 A 
ATOM     35  C   UNL     1       8.286   0.049  21.508  0.00  0.00    +0.045 C 
ENDROOT
BRANCH  10   9
ATOM      4  C   UNL     1       5.748  -3.076  25.276  0.00  0.00    +0.077 A 
ATOM      5  C   UNL     1       4.875  -1.997  25.638  0.00  0.00    +0.048 A 
ATOM      6  C   UNL     1       5.368  -0.683  25.482  0.00  0.00    +0.116 A 
ATOM      7  N   UNL     1       6.642  -0.474  24.998  0.00  0.00    -0.223 NA
ATOM      8  C   UNL     1       7.459  -1.537  24.660  0.00  0.00    +0.220 A 
ATOM      9  N   UNL     1       8.740  -1.351  24.164  0.00  0.00    -0.283 N 
ATOM     36  H   UNL     1       9.314  -2.161  23.932  0.00  0.00    +0.155 HD
ATOM     37  N   UNL     1       7.011  -2.802  24.801  0.00  0.00    -0.214 NA
BRANCH   4   3
ATOM      1  C   UNL     1       4.998  -6.646  26.688  0.00  0.00    +0.020 A 
ATOM      2  C   UNL     1       5.373  -5.251  26.642  0.00  0.00    +0.013 A 
ATOM      3  C   UNL     1       5.369  -4.521  25.380  0.00  0.00    +0.019 A 
ATOM     38  C   UNL     1       4.978  -5.236  24.175  0.00  0.00    +0.120 A 
ATOM     39  N   UNL     1       4.623  -6.580  24.251  0.00  0.00    -0.263 NA
ATOM     40  C   UNL     1       4.625  -7.294  25.459  0.00  0.00    +0.111 A 
ENDBRANCH   4   3
ENDBRANCH  10   9
BRANCH  12  13
ATOM     13  N   UNL     1      11.279   2.542  25.938  0.00  0.00    -0.281 N 
ATOM     14  C   UNL     1      12.587   2.997  25.888  0.00  0.00    +0.248 C 
ATOM     30  O   UNL     1      13.385   2.709  25.009  0.00  0.00    -0.270 OA
ATOM     31  H   UNL     1      10.784   2.696  26.817  0.00  0.00    +0.155 HD
BRANCH  14  15
ATOM     15  C   UNL     1      13.083   3.889  26.979  0.00  0.00    +0.037 A 
ATOM     16  C   UNL     1      14.400   3.685  27.588  0.00  0.00    +0.013 A 
ATOM     17  C   UNL     1      14.848   4.549  28.651  0.00  0.00    +0.005 A 
ATOM     18  C   UNL     1      13.977   5.628  29.111  0.00  0.00    -0.033 A 
ATOM     28  C   UNL     1      12.678   5.812  28.486  0.00  0.00    +0.005 A 
ATOM     29  C   UNL     1      12.235   4.966  27.445  0.00  0.00    +0.013 A 
BRANCH  18  19
ATOM     19  C   UNL     1      14.364   6.585  30.254  0.00  0.00    +0.119 C 
BRANCH  19  20
ATOM     20  N   UNL     1      14.603   5.983  31.599  0.00  0.00    -0.302 NA
ATOM     21  C   UNL     1      13.333   5.966  32.455  0.00  0.00    +0.066 C 
ATOM     22  C   UNL     1      13.595   5.312  33.850  0.00  0.00    -0.064 C 
ATOM     23  N   UNL     1      14.718   6.069  34.562  0.00  0.00    +0.379 N 
ATOM     24  C   UNL     1      14.927   5.492  35.899  0.00  0.00    -0.096 C 
ATOM     25  H   UNL     1      14.382   7.123  34.697  0.00  0.00    -0.082 HD
ATOM     26  C   UNL     1      15.983   6.092  33.717  0.00  0.00    -0.064 C 
ATOM     27  C   UNL     1      15.705   6.717  32.322  0.00  0.00    +0.066 C 
ENDBRANCH  19  20
ENDBRANCH  18  19
ENDBRANCH  14  15
ENDBRANCH  12  13
TORSDOF 6
ENDMDL
