MODEL 1
REMARK VINA RESULT:      -9.0      0.000      0.000
REMARK  Name = C:\Users\Docking\Desktop\test protocol\1iep_ligandH.pdb
REMARK  8 active torsions:
REMARK  status: ('A' for Active; 'I' for Inactive)
REMARK    1  A    between atoms: _5  and  _11
REMARK    2  A    between atoms: _19  and  _21
REMARK    3  A    between atoms: _22  and  _66
REMARK    4  A    between atoms: _27  and  _30
REMARK    5  A    between atoms: _32  and  _33
REMARK    6  A    between atoms: _38  and  _43
REMARK    7  A    between atoms: _43  and  _46
REMARK    8  A    between atoms: _53  and  _55
REMARK                            x       y       z     vdW  Elec       q    Type
REMARK                         _______ _______ _______ _____ _____    ______ ____
ROOT
ATOM     10  C   UNL     1      10.395  25.972  20.193  0.00  0.00    +0.038 A 
ATOM     11  C   UNL     1       9.779  27.207  19.866  0.00  0.00    +0.047 A 
ATOM     12  C   UNL     1       8.687  27.739  20.667  0.00  0.00    +0.035 A 
ATOM     32  C   UNL     1       8.251  26.989  21.798  0.00  0.00    +0.024 A 
ATOM     33  C   UNL     1       8.865  25.731  22.144  0.00  0.00    +0.007 A 
ATOM     34  C   UNL     1       9.940  25.200  21.356  0.00  0.00    -0.029 A 
ATOM     35  C   UNL     1      10.557  23.844  21.770  0.00  0.00    +0.045 C 
ENDROOT
BRANCH  10   9
ATOM      4  C   UNL     1      12.172  23.023  16.850  0.00  0.00    +0.077 A 
ATOM      5  C   UNL     1      10.924  22.330  16.712  0.00  0.00    +0.048 A 
ATOM      6  C   UNL     1       9.851  22.759  17.526  0.00  0.00    +0.116 A 
ATOM      7  N   UNL     1      10.025  23.804  18.407  0.00  0.00    -0.223 NA
ATOM      8  C   UNL     1      11.243  24.450  18.515  0.00  0.00    +0.220 A 
ATOM      9  N   UNL     1      11.438  25.509  19.389  0.00  0.00    -0.283 N 
ATOM     36  H   UNL     1      12.354  25.954  19.445  0.00  0.00    +0.155 HD
ATOM     37  N   UNL     1      12.283  24.058  17.751  0.00  0.00    -0.214 NA
BRANCH   4   3
ATOM      1  C   UNL     1      14.561  21.924  13.953  0.00  0.00    +0.020 A 
ATOM      2  C   UNL     1      13.347  22.233  14.674  0.00  0.00    +0.013 A 
ATOM      3  C   UNL     1      13.398  22.689  16.057  0.00  0.00    +0.019 A 
ATOM     38  C   UNL     1      14.703  22.823  16.687  0.00  0.00    +0.120 A 
ATOM     39  N   UNL     1      15.854  22.517  15.969  0.00  0.00    -0.263 NA
ATOM     40  C   UNL     1      15.818  22.076  14.638  0.00  0.00    +0.111 A 
ENDBRANCH   4   3
ENDBRANCH  10   9
BRANCH  12  13
ATOM     13  N   UNL     1       8.018  28.984  20.379  0.00  0.00    -0.281 N 
ATOM     14  C   UNL     1       8.089  30.173  21.086  0.00  0.00    +0.248 C 
ATOM     30  O   UNL     1       8.574  30.285  22.202  0.00  0.00    -0.270 OA
ATOM     31  H   UNL     1       7.419  28.988  19.553  0.00  0.00    +0.155 HD
BRANCH  14  15
ATOM     15  C   UNL     1       7.526  31.413  20.472  0.00  0.00    +0.037 A 
ATOM     16  C   UNL     1       6.347  31.363  19.603  0.00  0.00    +0.013 A 
ATOM     17  C   UNL     1       5.835  32.572  19.009  0.00  0.00    +0.005 A 
ATOM     18  C   UNL     1       6.501  33.843  19.284  0.00  0.00    -0.033 A 
ATOM     28  C   UNL     1       7.665  33.865  20.154  0.00  0.00    +0.005 A 
ATOM     29  C   UNL     1       8.171  32.681  20.737  0.00  0.00    +0.013 A 
BRANCH  18  19
ATOM     19  C   UNL     1       6.036  35.180  18.676  0.00  0.00    +0.119 C 
BRANCH  19  20
ATOM     20  N   UNL     1       5.189  36.063  19.533  0.00  0.00    -0.302 NA
ATOM     21  C   UNL     1       5.985  37.235  20.113  0.00  0.00    +0.066 C 
ATOM     22  C   UNL     1       5.078  38.161  20.988  0.00  0.00    -0.064 C 
ATOM     23  N   UNL     1       4.439  37.335  22.105  0.00  0.00    +0.379 N 
ATOM     24  C   UNL     1       3.632  38.213  22.965  0.00  0.00    -0.096 C 
ATOM     25  H   UNL     1       5.262  36.915  22.729  0.00  0.00    -0.082 HD
ATOM     26  C   UNL     1       3.647  36.165  21.537  0.00  0.00    -0.064 C 
ATOM     27  C   UNL     1       4.550  35.268  20.645  0.00  0.00    +0.066 C 
ENDBRANCH  19  20
ENDBRANCH  18  19
ENDBRANCH  14  15
ENDBRANCH  12  13
TORSDOF 6
ENDMDL
MODEL 2
REMARK VINA RESULT:      -8.8      1.444      1.927
REMARK  Name = C:\Users\Docking\Desktop\test protocol\1iep_ligandH.pdb
REMARK  8 active torsions:
REMARK  status: ('A' for Active; 'I' for Inactive)
REMARK    1  A    between atoms: _5  and  _11
REMARK    2  A    between atoms: _19  and  _21
REMARK    3  A    between atoms: _22  and  _66
REMARK    4  A    between atoms: _27  and  _30
REMARK    5  A    between atoms: _32  and  _33
REMARK    6  A    between atoms: _38  and  _43
REMARK    7  A    between atoms: _43  and  _46
REMARK    8  A    between atoms: _53  and  _55
REMARK                            x       y       z     vdW  Elec       q    Type
REMARK                         _______ _______ _______ _____ _____    ______ ____
ROOT
ATOM     10  C   UNL     1      10.613  26.924  20.655  0.00  0.00    +0.038 A 
ATOM     11  C   UNL     1      10.030  28.062  20.042  0.00  0.00    +0.047 A 
ATOM     12  C   UNL     1       9.116  28.925  20.773  0.00  0.00    +0.035 A 
ATOM     32  C   UNL     1       8.820  28.601  22.129  0.00  0.00    +0.024 A 
ATOM     33  C   UNL     1       9.403  27.447  22.768  0.00  0.00    +0.007 A 
ATOM     34  C   UNL     1      10.303  26.590  22.050  0.00  0.00    -0.029 A 
ATOM     35  C   UNL     1      10.894  25.363  22.783  0.00  0.00    +0.045 C 
ENDROOT
BRANCH  10   9
ATOM      4  C   UNL     1      11.499  23.295  17.641  0.00  0.00    +0.077 A 
ATOM      5  C   UNL     1      10.112  22.934  17.574  0.00  0.00    +0.048 A 
ATOM      6  C   UNL     1       9.204  23.703  18.336  0.00  0.00    +0.116 A 
ATOM      7  N   UNL     1       9.660  24.752  19.103  0.00  0.00    -0.223 NA
ATOM      8  C   UNL     1      11.004  25.073  19.147  0.00  0.00    +0.220 A 
ATOM      9  N   UNL     1      11.484  26.129  19.905  0.00  0.00    -0.283 N 
ATOM     36  H   UNL     1      12.484  26.329  19.916  0.00  0.00    +0.155 HD
ATOM     37  N   UNL     1      11.892  24.353  18.429  0.00  0.00    -0.214 NA
BRANCH   4   3
ATOM      1  C   UNL     1      14.107  22.292  14.903  0.00  0.00    +0.020 A 
ATOM      2  C   UNL     1      13.061  23.018  15.586  0.00  0.00    +0.013 A 
ATOM      3  C   UNL     1      12.579  22.580  16.890  0.00  0.00    +0.019 A 
ATOM     38  C   UNL     1      13.183  21.395  17.481  0.00  0.00    +0.120 A 
ATOM     39  N   UNL     1      14.188  20.715  16.800  0.00  0.00    -0.263 NA
ATOM     40  C   UNL     1      14.658  21.126  15.543  0.00  0.00    +0.111 A 
ENDBRANCH   4   3
ENDBRANCH  10   9
BRANCH  12  13
ATOM     13  N   UNL     1       8.487  30.090  20.201  0.00  0.00    -0.281 N 
ATOM     14  C   UNL     1       7.615  30.975  20.814  0.00  0.00    +0.248 C 
ATOM     30  O   UNL     1       7.074  30.776  21.891  0.00  0.00    -0.270 OA
ATOM     31  H   UNL     1       8.712  30.286  19.225  0.00  0.00    +0.155 HD
BRANCH  14  15
ATOM     15  C   UNL     1       7.286  32.259  20.124  0.00  0.00    +0.037 A 
ATOM     16  C   UNL     1       8.339  33.182  19.694  0.00  0.00    +0.013 A 
ATOM     17  C   UNL     1       7.993  34.422  19.046  0.00  0.00    +0.005 A 
ATOM     18  C   UNL     1       6.586  34.745  18.822  0.00  0.00    -0.033 A 
ATOM     28  C   UNL     1       5.562  33.808  19.253  0.00  0.00    +0.005 A 
ATOM     29  C   UNL     1       5.897  32.593  19.890  0.00  0.00    +0.013 A 
BRANCH  18  19
ATOM     19  C   UNL     1       6.124  36.055  18.156  0.00  0.00    +0.119 C 
BRANCH  19  20
ATOM     20  N   UNL     1       5.946  37.245  19.041  0.00  0.00    -0.302 NA
ATOM     21  C   UNL     1       4.920  36.989  20.148  0.00  0.00    +0.066 C 
ATOM     22  C   UNL     1       4.762  38.236  21.078  0.00  0.00    -0.064 C 
ATOM     23  N   UNL     1       4.359  39.448  20.236  0.00  0.00    +0.379 N 
ATOM     24  C   UNL     1       4.153  40.609  21.114  0.00  0.00    -0.096 C 
ATOM     25  H   UNL     1       3.383  39.214  19.751  0.00  0.00    -0.082 HD
ATOM     26  C   UNL     1       5.372  39.709  19.131  0.00  0.00    -0.064 C 
ATOM     27  C   UNL     1       5.543  38.453  18.231  0.00  0.00    +0.066 C 
ENDBRANCH  19  20
ENDBRANCH  18  19
ENDBRANCH  14  15
ENDBRANCH  12  13
TORSDOF 6
ENDMDL
MODEL 3
REMARK VINA RESULT:      -8.7      5.894     11.741
REMARK  Name = C:\Users\Docking\Desktop\test protocol\1iep_ligandH.pdb
REMARK  8 active torsions:
REMARK  status: ('A' for Active; 'I' for Inactive)
REMARK    1  A    between atoms: _5  and  _11
REMARK    2  A    between atoms: _19  and  _21
REMARK    3  A    between atoms: _22  and  _66
REMARK    4  A    between atoms: _27  and  _30
REMARK    5  A    between atoms: _32  and  _33
REMARK    6  A    between atoms: _38  and  _43
REMARK    7  A    between atoms: _43  and  _46
REMARK    8  A    between atoms: _53  and  _55
REMARK                            x       y       z     vdW  Elec       q    Type
REMARK                         _______ _______ _______ _____ _____    ______ ____
ROOT
ATOM     10  C   UNL     1      19.729  23.058  14.114  0.00  0.00    +0.038 A 
ATOM     11  C   UNL     1      18.530  23.248  14.847  0.00  0.00    +0.047 A 
ATOM     12  C   UNL     1      17.331  22.484  14.540  0.00  0.00    +0.035 A 
ATOM     32  C   UNL     1      17.390  21.531  13.481  0.00  0.00    +0.024 A 
ATOM     33  C   UNL     1      18.600  21.326  12.725  0.00  0.00    +0.007 A 
ATOM     34  C   UNL     1      19.785  22.079  13.022  0.00  0.00    -0.029 A 
ATOM     35  C   UNL     1      21.053  21.821  12.174  0.00  0.00    +0.045 C 
ENDROOT
BRANCH  10   9
ATOM      4  C   UNL     1      21.910  27.259  14.911  0.00  0.00    +0.077 A 
ATOM      5  C   UNL     1      20.721  28.001  14.603  0.00  0.00    +0.048 A 
ATOM      6  C   UNL     1      19.572  27.265  14.238  0.00  0.00    +0.116 A 
ATOM      7  N   UNL     1      19.620  25.888  14.187  0.00  0.00    -0.223 NA
ATOM      8  C   UNL     1      20.783  25.203  14.488  0.00  0.00    +0.220 A 
ATOM      9  N   UNL     1      20.851  23.819  14.451  0.00  0.00    -0.283 N 
ATOM     36  H   UNL     1      21.729  23.351  14.672  0.00  0.00    +0.155 HD
ATOM     37  N   UNL     1      21.894  25.884  14.838  0.00  0.00    -0.214 NA
BRANCH   4   3
ATOM      1  C   UNL     1      24.734  29.883  15.573  0.00  0.00    +0.020 A 
ATOM      2  C   UNL     1      23.468  29.319  15.165  0.00  0.00    +0.013 A 
ATOM      3  C   UNL     1      23.203  27.894  15.317  0.00  0.00    +0.019 A 
ATOM     38  C   UNL     1      24.248  27.060  15.891  0.00  0.00    +0.120 A 
ATOM     39  N   UNL     1      25.458  27.631  16.274  0.00  0.00    -0.263 NA
ATOM     40  C   UNL     1      25.725  29.001  16.130  0.00  0.00    +0.111 A 
ENDBRANCH   4   3
ENDBRANCH  10   9
BRANCH  12  13
ATOM     13  N   UNL     1      16.083  22.640  15.245  0.00  0.00    -0.281 N 
ATOM     14  C   UNL     1      15.858  22.550  16.608  0.00  0.00    +0.248 C 
ATOM     30  O   UNL     1      16.663  22.107  17.414  0.00  0.00    -0.270 OA
ATOM     31  H   UNL     1      15.266  22.841  14.668  0.00  0.00    +0.155 HD
BRANCH  14  15
ATOM     15  C   UNL     1      14.542  23.003  17.155  0.00  0.00    +0.037 A 
ATOM     16  C   UNL     1      14.439  23.603  18.487  0.00  0.00    +0.013 A 
ATOM     17  C   UNL     1      13.155  24.016  18.996  0.00  0.00    +0.005 A 
ATOM     18  C   UNL     1      11.964  23.831  18.171  0.00  0.00    -0.033 A 
ATOM     28  C   UNL     1      12.096  23.237  16.851  0.00  0.00    +0.005 A 
ATOM     29  C   UNL     1      13.352  22.830  16.349  0.00  0.00    +0.013 A 
BRANCH  18  19
ATOM     19  C   UNL     1      10.551  24.223  18.643  0.00  0.00    +0.119 C 
BRANCH  19  20
ATOM     20  N   UNL     1      10.448  25.287  19.685  0.00  0.00    -0.302 NA
ATOM     21  C   UNL     1       9.342  24.991  20.702  0.00  0.00    +0.066 C 
ATOM     22  C   UNL     1       9.264  26.103  21.798  0.00  0.00    -0.064 C 
ATOM     23  N   UNL     1       9.036  27.460  21.129  0.00  0.00    +0.379 N 
ATOM     24  C   UNL     1       8.904  28.499  22.160  0.00  0.00    -0.096 C 
ATOM     25  H   UNL     1       8.069  27.406  20.576  0.00  0.00    -0.082 HD
ATOM     26  C   UNL     1      10.130  27.761  20.114  0.00  0.00    -0.064 C 
ATOM     27  C   UNL     1      10.219  26.635  19.047  0.00  0.00    +0.066 C 
ENDBRANCH  19  20
ENDBRANCH  18  19
ENDBRANCH  14  15
ENDBRANCH  12  13
TORSDOF 6
ENDMDL
MODEL 4
REMARK VINA RESULT:      -8.5      7.493     12.102
REMARK  Name = C:\Users\Docking\Desktop\test protocol\1iep_ligandH.pdb
REMARK  8 active torsions:
REMARK  status: ('A' for Active; 'I' for Inactive)
REMARK    1  A    between atoms: _5  and  _11
REMARK    2  A    between atoms: _19  and  _21
REMARK    3  A    between atoms: _22  and  _66
REMARK    4  A    between atoms: _27  and  _30
REMARK    5  A    between atoms: _32  and  _33
REMARK    6  A    between atoms: _38  and  _43
REMARK    7  A    between atoms: _43  and  _46
REMARK    8  A    between atoms: _53  and  _55
REMARK                            x       y       z     vdW  Elec       q    Type
REMARK                         _______ _______ _______ _____ _____    ______ ____
ROOT
ATOM     10  C   UNL     1      19.631  23.432  14.358  0.00  0.00    +0.038 A 
ATOM     11  C   UNL     1      18.456  23.619  15.130  0.00  0.00    +0.047 A 
ATOM     12  C   UNL     1      17.205  22.973  14.763  0.00  0.00    +0.035 A 
ATOM     32  C   UNL     1      17.187  22.141  13.606  0.00  0.00    +0.024 A 
ATOM     33  C   UNL     1      18.373  21.941  12.810  0.00  0.00    +0.007 A 
ATOM     34  C   UNL     1      19.609  22.577  13.165  0.00  0.00    -0.029 A 
ATOM     35  C   UNL     1      20.847  22.332  12.271  0.00  0.00    +0.045 C 
ENDROOT
BRANCH  10   9
ATOM      4  C   UNL     1      22.269  27.384  15.038  0.00  0.00    +0.077 A 
ATOM      5  C   UNL     1      21.231  28.235  14.533  0.00  0.00    +0.048 A 
ATOM      6  C   UNL     1      20.036  27.616  14.102  0.00  0.00    +0.116 A 
ATOM      7  N   UNL     1      19.901  26.247  14.175  0.00  0.00    -0.223 NA
ATOM      8  C   UNL     1      20.922  25.454  14.666  0.00  0.00    +0.220 A 
ATOM      9  N   UNL     1      20.805  24.076  14.756  0.00  0.00    -0.283 N 
ATOM     36  H   UNL     1      21.584  23.526  15.117  0.00  0.00    +0.155 HD
ATOM     37  N   UNL     1      22.074  26.021  15.083  0.00  0.00    -0.214 NA
BRANCH   4   3
ATOM      1  C   UNL     1      25.243  29.734  16.004  0.00  0.00    +0.020 A 
ATOM      2  C   UNL     1      23.956  29.299  15.511  0.00  0.00    +0.013 A 
ATOM      3  C   UNL     1      23.588  27.889  15.535  0.00  0.00    +0.019 A 
ATOM     38  C   UNL     1      24.552  26.938  16.068  0.00  0.00    +0.120 A 
ATOM     39  N   UNL     1      25.784  27.386  16.534  0.00  0.00    -0.263 NA
ATOM     40  C   UNL     1      26.150  28.740  16.514  0.00  0.00    +0.111 A 
ENDBRANCH   4   3
ENDBRANCH  10   9
BRANCH  12  13
ATOM     13  N   UNL     1      15.977  23.132  15.503  0.00  0.00    -0.281 N 
ATOM     14  C   UNL     1      15.676  22.650  16.766  0.00  0.00    +0.248 C 
ATOM     30  O   UNL     1      16.344  21.822  17.368  0.00  0.00    -0.270 OA
ATOM     31  H   UNL     1      15.241  23.665  15.039  0.00  0.00    +0.155 HD
BRANCH  14  15
ATOM     15  C   UNL     1      14.447  23.149  17.455  0.00  0.00    +0.037 A 
ATOM     16  C   UNL     1      13.140  23.120  16.793  0.00  0.00    +0.013 A 
ATOM     17  C   UNL     1      11.973  23.623  17.474  0.00  0.00    +0.005 A 
ATOM     18  C   UNL     1      12.108  24.158  18.827  0.00  0.00    -0.033 A 
ATOM     28  C   UNL     1      13.416  24.169  19.462  0.00  0.00    +0.005 A 
ATOM     29  C   UNL     1      14.562  23.678  18.797  0.00  0.00    +0.013 A 
BRANCH  18  19
ATOM     19  C   UNL     1      10.921  24.735  19.620  0.00  0.00    +0.119 C 
BRANCH  19  20
ATOM     20  N   UNL     1       9.611  24.027  19.503  0.00  0.00    -0.302 NA
ATOM     21  C   UNL     1       8.671  24.719  18.512  0.00  0.00    +0.066 C 
ATOM     22  C   UNL     1       7.314  23.953  18.384  0.00  0.00    -0.064 C 
ATOM     23  N   UNL     1       6.662  23.843  19.764  0.00  0.00    +0.379 N 
ATOM     24  C   UNL     1       5.359  23.174  19.638  0.00  0.00    -0.096 C 
ATOM     25  H   UNL     1       6.477  24.878  20.133  0.00  0.00    -0.082 HD
ATOM     26  C   UNL     1       7.592  23.158  20.756  0.00  0.00    -0.064 C 
ATOM     27  C   UNL     1       8.948  23.911  20.853  0.00  0.00    +0.066 C 
ENDBRANCH  19  20
ENDBRANCH  18  19
ENDBRANCH  14  15
ENDBRANCH  12  13
TORSDOF 6
ENDMDL
MODEL 5
REMARK VINA RESULT:      -8.5      3.227     13.985
REMARK  Name = C:\Users\Docking\Desktop\test protocol\1iep_ligandH.pdb
REMARK  8 active torsions:
REMARK  status: ('A' for Active; 'I' for Inactive)
REMARK    1  A    between atoms: _5  and  _11
REMARK    2  A    between atoms: _19  and  _21
REMARK    3  A    between atoms: _22  and  _66
REMARK    4  A    between atoms: _27  and  _30
REMARK    5  A    between atoms: _32  and  _33
REMARK    6  A    between atoms: _38  and  _43
REMARK    7  A    between atoms: _43  and  _46
REMARK    8  A    between atoms: _53  and  _55
REMARK                            x       y       z     vdW  Elec       q    Type
REMARK                         _______ _______ _______ _____ _____    ______ ____
ROOT
ATOM     10  C   UNL     1       9.360  25.654  19.017  0.00  0.00    +0.038 A 
ATOM     11  C   UNL     1      10.674  25.439  18.528  0.00  0.00    +0.047 A 
ATOM     12  C   UNL     1      11.277  24.115  18.549  0.00  0.00    +0.035 A 
ATOM     32  C   UNL     1      10.513  23.032  19.073  0.00  0.00    +0.024 A 
ATOM     33  C   UNL     1       9.176  23.234  19.576  0.00  0.00    +0.007 A 
ATOM     34  C   UNL     1       8.577  24.538  19.559  0.00  0.00    -0.029 A 
ATOM     35  C   UNL     1       7.143  24.696  20.117  0.00  0.00    +0.045 C 
ENDROOT
BRANCH  10   9
ATOM      4  C   UNL     1       8.200  29.827  21.086  0.00  0.00    +0.077 A 
ATOM      5  C   UNL     1       8.664  29.387  22.370  0.00  0.00    +0.048 A 
ATOM      6  C   UNL     1       9.188  28.077  22.457  0.00  0.00    +0.116 A 
ATOM      7  N   UNL     1       9.239  27.276  21.337  0.00  0.00    -0.223 NA
ATOM      8  C   UNL     1       8.781  27.731  20.114  0.00  0.00    +0.220 A 
ATOM      9  N   UNL     1       8.831  26.946  18.972  0.00  0.00    -0.283 N 
ATOM     36  H   UNL     1       8.476  27.315  18.090  0.00  0.00    +0.155 HD
ATOM     37  N   UNL     1       8.275  28.977  20.005  0.00  0.00    -0.214 NA
BRANCH   4   3
ATOM      1  C   UNL     1       6.002  33.053  21.327  0.00  0.00    +0.020 A 
ATOM      2  C   UNL     1       6.522  31.736  21.613  0.00  0.00    +0.013 A 
ATOM      3  C   UNL     1       7.623  31.185  20.832  0.00  0.00    +0.019 A 
ATOM     38  C   UNL     1       8.180  31.999  19.763  0.00  0.00    +0.120 A 
ATOM     39  N   UNL     1       7.658  33.264  19.511  0.00  0.00    -0.263 NA
ATOM     40  C   UNL     1       6.597  33.804  20.253  0.00  0.00    +0.111 A 
ENDBRANCH   4   3
ENDBRANCH  10   9
BRANCH  12  13
ATOM     13  N   UNL     1      12.610  23.837  18.074  0.00  0.00    -0.281 N 
ATOM     14  C   UNL     1      12.992  22.954  17.078  0.00  0.00    +0.248 C 
ATOM     30  O   UNL     1      12.260  22.107  16.587  0.00  0.00    -0.270 OA
ATOM     31  H   UNL     1      13.363  24.355  18.527  0.00  0.00    +0.155 HD
BRANCH  14  15
ATOM     15  C   UNL     1      14.393  23.010  16.561  0.00  0.00    +0.037 A 
ATOM     16  C   UNL     1      14.710  22.635  15.181  0.00  0.00    +0.013 A 
ATOM     17  C   UNL     1      16.073  22.682  14.713  0.00  0.00    +0.005 A 
ATOM     18  C   UNL     1      17.130  23.107  15.628  0.00  0.00    -0.033 A 
ATOM     28  C   UNL     1      16.787  23.478  16.991  0.00  0.00    +0.005 A 
ATOM     29  C   UNL     1      15.452  23.432  17.453  0.00  0.00    +0.013 A 
BRANCH  18  19
ATOM     19  C   UNL     1      18.614  23.167  15.221  0.00  0.00    +0.119 C 
BRANCH  19  20
ATOM     20  N   UNL     1      19.090  22.165  14.220  0.00  0.00    -0.302 NA
ATOM     21  C   UNL     1      18.963  20.730  14.739  0.00  0.00    +0.066 C 
ATOM     22  C   UNL     1      19.444  19.694  13.672  0.00  0.00    -0.064 C 
ATOM     23  N   UNL     1      20.890  20.003  13.281  0.00  0.00    +0.379 N 
ATOM     24  C   UNL     1      21.364  18.996  12.320  0.00  0.00    -0.096 C 
ATOM     25  H   UNL     1      21.515  19.915  14.200  0.00  0.00    -0.082 HD
ATOM     26  C   UNL     1      21.025  21.429  12.766  0.00  0.00    -0.064 C 
ATOM     27  C   UNL     1      20.517  22.449  13.823  0.00  0.00    +0.066 C 
ENDBRANCH  19  20
ENDBRANCH  18  19
ENDBRANCH  14  15
ENDBRANCH  12  13
TORSDOF 6
ENDMDL
