MODEL 1
REMARK VINA RESULT:      -9.1      0.000      0.000
REMARK  Name = C:\Users\Docking\Desktop\test protocol\1iep_ligandH.pdb
REMARK  8 active torsions:
REMARK  status: ('A' for Active; 'I' for Inactive)
REMARK    1  A    between atoms: _5  and  _11
REMARK    2  A    between atoms: _19  and  _21
REMARK    3  A    between atoms: _22  and  _66
REMARK    4  A    between atoms: _27  and  _30
REMARK    5  A    between atoms: _32  and  _33
REMARK    6  A    between atoms: _38  and  _43
REMARK    7  A    between atoms: _43  and  _46
REMARK    8  A    between atoms: _53  and  _55
REMARK                            x       y       z     vdW  Elec       q    Type
REMARK                         _______ _______ _______ _____ _____    ______ ____
ROOT
ATOM     10  C   UNL     1       8.704  60.887  15.121  0.00  0.00    +0.038 A 
ATOM     11  C   UNL     1       7.338  60.510  15.073  0.00  0.00    +0.047 A 
ATOM     12  C   UNL     1       6.938  59.116  15.195  0.00  0.00    +0.035 A 
ATOM     32  C   UNL     1       7.956  58.134  15.369  0.00  0.00    +0.024 A 
ATOM     33  C   UNL     1       9.350  58.500  15.419  0.00  0.00    +0.007 A 
ATOM     34  C   UNL     1       9.751  59.873  15.296  0.00  0.00    -0.029 A 
ATOM     35  C   UNL     1      11.259  60.207  15.350  0.00  0.00    +0.045 C 
ENDROOT
BRANCH  10   9
ATOM      4  C   UNL     1      10.183  64.669  12.561  0.00  0.00    +0.077 A 
ATOM      5  C   UNL     1      10.341  63.878  11.375  0.00  0.00    +0.048 A 
ATOM      6  C   UNL     1      10.039  62.501  11.467  0.00  0.00    +0.116 A 
ATOM      7  N   UNL     1       9.610  61.966  12.662  0.00  0.00    -0.223 NA
ATOM      8  C   UNL     1       9.469  62.756  13.788  0.00  0.00    +0.220 A 
ATOM      9  N   UNL     1       9.032  62.240  14.998  0.00  0.00    -0.283 N 
ATOM     36  H   UNL     1       8.948  62.854  15.808  0.00  0.00    +0.155 HD
ATOM     37  N   UNL     1       9.753  64.073  13.726  0.00  0.00    -0.214 NA
BRANCH   4   3
ATOM      1  C   UNL     1      11.719  68.143  13.494  0.00  0.00    +0.020 A 
ATOM      2  C   UNL     1      11.492  66.716  13.473  0.00  0.00    +0.013 A 
ATOM      3  C   UNL     1      10.459  66.139  12.622  0.00  0.00    +0.019 A 
ATOM     38  C   UNL     1       9.668  67.040  11.797  0.00  0.00    +0.120 A 
ATOM     39  N   UNL     1       9.908  68.410  11.840  0.00  0.00    -0.263 NA
ATOM     40  C   UNL     1      10.898  68.977  12.656  0.00  0.00    +0.111 A 
ENDBRANCH   4   3
ENDBRANCH  10   9
BRANCH  12  13
ATOM     13  N   UNL     1       5.567  58.672  15.146  0.00  0.00    -0.281 N 
ATOM     14  C   UNL     1       4.529  59.018  15.995  0.00  0.00    +0.248 C 
ATOM     30  O   UNL     1       4.671  59.600  17.060  0.00  0.00    -0.270 OA
ATOM     31  H   UNL     1       5.334  58.023  14.394  0.00  0.00    +0.155 HD
BRANCH  14  15
ATOM     15  C   UNL     1       3.131  58.652  15.612  0.00  0.00    +0.037 A 
ATOM     16  C   UNL     1       2.799  57.304  15.145  0.00  0.00    +0.013 A 
ATOM     17  C   UNL     1       1.446  56.982  14.766  0.00  0.00    +0.005 A 
ATOM     18  C   UNL     1       0.414  58.012  14.853  0.00  0.00    -0.033 A 
ATOM     28  C   UNL     1       0.770  59.340  15.325  0.00  0.00    +0.005 A 
ATOM     29  C   UNL     1       2.095  59.660  15.696  0.00  0.00    +0.013 A 
BRANCH  18  19
ATOM     19  C   UNL     1      -1.052  57.764  14.450  0.00  0.00    +0.119 C 
BRANCH  19  20
ATOM     20  N   UNL     1      -1.406  57.951  13.011  0.00  0.00    -0.302 NA
ATOM     21  C   UNL     1      -2.430  59.073  12.813  0.00  0.00    +0.066 C 
ATOM     22  C   UNL     1      -2.772  59.270  11.300  0.00  0.00    -0.064 C 
ATOM     23  N   UNL     1      -3.292  57.953  10.721  0.00  0.00    +0.379 N 
ATOM     24  C   UNL     1      -3.669  58.151   9.314  0.00  0.00    -0.096 C 
ATOM     25  H   UNL     1      -4.214  57.678  11.283  0.00  0.00    -0.082 HD
ATOM     26  C   UNL     1      -2.280  56.832  10.917  0.00  0.00    -0.064 C 
ATOM     27  C   UNL     1      -1.925  56.664  12.420  0.00  0.00    +0.066 C 
ENDBRANCH  19  20
ENDBRANCH  18  19
ENDBRANCH  14  15
ENDBRANCH  12  13
TORSDOF 6
ENDMDL
MODEL 2
REMARK VINA RESULT:      -9.0      5.997     14.313
REMARK  Name = C:\Users\Docking\Desktop\test protocol\1iep_ligandH.pdb
REMARK  8 active torsions:
REMARK  status: ('A' for Active; 'I' for Inactive)
REMARK    1  A    between atoms: _5  and  _11
REMARK    2  A    between atoms: _19  and  _21
REMARK    3  A    between atoms: _22  and  _66
REMARK    4  A    between atoms: _27  and  _30
REMARK    5  A    between atoms: _32  and  _33
REMARK    6  A    between atoms: _38  and  _43
REMARK    7  A    between atoms: _43  and  _46
REMARK    8  A    between atoms: _53  and  _55
REMARK                            x       y       z     vdW  Elec       q    Type
REMARK                         _______ _______ _______ _____ _____    ______ ____
ROOT
ATOM     10  C   UNL     1       9.797  62.802  14.251  0.00  0.00    +0.038 A 
ATOM     11  C   UNL     1      10.974  62.747  15.040  0.00  0.00    +0.047 A 
ATOM     12  C   UNL     1      12.236  63.280  14.549  0.00  0.00    +0.035 A 
ATOM     32  C   UNL     1      12.261  63.865  13.250  0.00  0.00    +0.024 A 
ATOM     33  C   UNL     1      11.074  63.929  12.434  0.00  0.00    +0.007 A 
ATOM     34  C   UNL     1       9.828  63.403  12.912  0.00  0.00    -0.029 A 
ATOM     35  C   UNL     1       8.589  63.492  11.991  0.00  0.00    +0.045 C 
ENDROOT
BRANCH  10   9
ATOM      4  C   UNL     1       6.995  59.109  15.494  0.00  0.00    +0.077 A 
ATOM      5  C   UNL     1       7.959  58.149  15.042  0.00  0.00    +0.048 A 
ATOM      6  C   UNL     1       9.161  58.646  14.490  0.00  0.00    +0.116 A 
ATOM      7  N   UNL     1       9.371  60.005  14.401  0.00  0.00    -0.223 NA
ATOM      8  C   UNL     1       8.420  60.905  14.845  0.00  0.00    +0.220 A 
ATOM      9  N   UNL     1       8.614  62.275  14.773  0.00  0.00    -0.283 N 
ATOM     36  H   UNL     1       7.884  62.906  15.104  0.00  0.00    +0.155 HD
ATOM     37  N   UNL     1       7.263  60.455  15.375  0.00  0.00    -0.214 NA
BRANCH   4   3
ATOM      1  C   UNL     1       3.265  58.021  15.950  0.00  0.00    +0.020 A 
ATOM      2  C   UNL     1       4.513  58.371  15.311  0.00  0.00    +0.013 A 
ATOM      3  C   UNL     1       5.679  58.740  16.105  0.00  0.00    +0.019 A 
ATOM     38  C   UNL     1       5.547  58.745  17.554  0.00  0.00    +0.120 A 
ATOM     39  N   UNL     1       4.332  58.405  18.141  0.00  0.00    -0.263 NA
ATOM     40  C   UNL     1       3.203  58.050  17.388  0.00  0.00    +0.111 A 
ENDBRANCH   4   3
ENDBRANCH  10   9
BRANCH  12  13
ATOM     13  N   UNL     1      13.465  63.244  15.302  0.00  0.00    -0.281 N 
ATOM     14  C   UNL     1      13.637  63.451  16.661  0.00  0.00    +0.248 C 
ATOM     30  O   UNL     1      12.783  63.912  17.404  0.00  0.00    -0.270 OA
ATOM     31  H   UNL     1      14.310  63.042  14.769  0.00  0.00    +0.155 HD
BRANCH  14  15
ATOM     15  C   UNL     1      14.954  63.111  17.282  0.00  0.00    +0.037 A 
ATOM     16  C   UNL     1      15.047  62.689  18.681  0.00  0.00    +0.013 A 
ATOM     17  C   UNL     1      16.332  62.383  19.260  0.00  0.00    +0.005 A 
ATOM     18  C   UNL     1      17.534  62.497  18.438  0.00  0.00    -0.033 A 
ATOM     28  C   UNL     1      17.411  62.914  17.050  0.00  0.00    +0.005 A 
ATOM     29  C   UNL     1      16.154  63.215  16.480  0.00  0.00    +0.013 A 
BRANCH  18  19
ATOM     19  C   UNL     1      18.947  62.211  18.978  0.00  0.00    +0.119 C 
BRANCH  19  20
ATOM     20  N   UNL     1      19.106  61.042  19.893  0.00  0.00    -0.302 NA
ATOM     21  C   UNL     1      20.460  61.051  20.608  0.00  0.00    +0.066 C 
ATOM     22  C   UNL     1      20.600  59.834  21.578  0.00  0.00    -0.064 C 
ATOM     23  N   UNL     1      20.411  58.535  20.793  0.00  0.00    +0.379 N 
ATOM     24  C   UNL     1      20.599  57.386  21.692  0.00  0.00    -0.096 C 
ATOM     25  H   UNL     1      21.209  58.491  20.016  0.00  0.00    -0.082 HD
ATOM     26  C   UNL     1      19.068  58.518  20.078  0.00  0.00    -0.064 C 
ATOM     27  C   UNL     1      18.927  59.748  19.138  0.00  0.00    +0.066 C 
ENDBRANCH  19  20
ENDBRANCH  18  19
ENDBRANCH  14  15
ENDBRANCH  12  13
TORSDOF 6
ENDMDL
MODEL 3
REMARK VINA RESULT:      -8.8      7.056     15.072
REMARK  Name = C:\Users\Docking\Desktop\test protocol\1iep_ligandH.pdb
REMARK  8 active torsions:
REMARK  status: ('A' for Active; 'I' for Inactive)
REMARK    1  A    between atoms: _5  and  _11
REMARK    2  A    between atoms: _19  and  _21
REMARK    3  A    between atoms: _22  and  _66
REMARK    4  A    between atoms: _27  and  _30
REMARK    5  A    between atoms: _32  and  _33
REMARK    6  A    between atoms: _38  and  _43
REMARK    7  A    between atoms: _43  and  _46
REMARK    8  A    between atoms: _53  and  _55
REMARK                            x       y       z     vdW  Elec       q    Type
REMARK                         _______ _______ _______ _____ _____    ______ ____
ROOT
ATOM     10  C   UNL     1      11.507  63.081  15.025  0.00  0.00    +0.038 A 
ATOM     11  C   UNL     1      12.733  62.763  15.664  0.00  0.00    +0.047 A 
ATOM     12  C   UNL     1      14.003  63.226  15.128  0.00  0.00    +0.035 A 
ATOM     32  C   UNL     1      13.988  64.015  13.940  0.00  0.00    +0.024 A 
ATOM     33  C   UNL     1      12.751  64.347  13.278  0.00  0.00    +0.007 A 
ATOM     34  C   UNL     1      11.496  63.890  13.800  0.00  0.00    -0.029 A 
ATOM     35  C   UNL     1      10.201  64.271  13.045  0.00  0.00    +0.045 C 
ENDROOT
BRANCH  10   9
ATOM      4  C   UNL     1       8.215  59.655  15.702  0.00  0.00    +0.077 A 
ATOM      5  C   UNL     1       8.912  58.735  14.850  0.00  0.00    +0.048 A 
ATOM      6  C   UNL     1      10.110  59.185  14.251  0.00  0.00    +0.116 A 
ATOM      7  N   UNL     1      10.568  60.461  14.494  0.00  0.00    -0.223 NA
ATOM      8  C   UNL     1       9.871  61.324  15.319  0.00  0.00    +0.220 A 
ATOM      9  N   UNL     1      10.317  62.610  15.583  0.00  0.00    -0.283 N 
ATOM     36  H   UNL     1       9.770  63.218  16.192  0.00  0.00    +0.155 HD
ATOM     37  N   UNL     1       8.723  60.919  15.902  0.00  0.00    -0.214 NA
BRANCH   4   3
ATOM      1  C   UNL     1       4.491  58.712  16.437  0.00  0.00    +0.020 A 
ATOM      2  C   UNL     1       5.697  59.024  15.706  0.00  0.00    +0.013 A 
ATOM      3  C   UNL     1       6.937  59.326  16.410  0.00  0.00    +0.019 A 
ATOM     38  C   UNL     1       6.923  59.303  17.865  0.00  0.00    +0.120 A 
ATOM     39  N   UNL     1       5.745  59.000  18.542  0.00  0.00    -0.263 NA
ATOM     40  C   UNL     1       4.546  58.710  17.875  0.00  0.00    +0.111 A 
ENDBRANCH   4   3
ENDBRANCH  10   9
BRANCH  12  13
ATOM     13  N   UNL     1      15.280  62.928  15.728  0.00  0.00    -0.281 N 
ATOM     14  C   UNL     1      16.065  63.754  16.516  0.00  0.00    +0.248 C 
ATOM     30  O   UNL     1      15.886  64.956  16.649  0.00  0.00    -0.270 OA
ATOM     31  H   UNL     1      15.650  61.994  15.550  0.00  0.00    +0.155 HD
BRANCH  14  15
ATOM     15  C   UNL     1      17.224  63.163  17.251  0.00  0.00    +0.037 A 
ATOM     16  C   UNL     1      18.548  63.788  17.212  0.00  0.00    +0.013 A 
ATOM     17  C   UNL     1      19.653  63.188  17.917  0.00  0.00    +0.005 A 
ATOM     18  C   UNL     1      19.437  61.954  18.669  0.00  0.00    -0.033 A 
ATOM     28  C   UNL     1      18.111  61.358  18.695  0.00  0.00    +0.005 A 
ATOM     29  C   UNL     1      17.026  61.943  18.005  0.00  0.00    +0.013 A 
BRANCH  18  19
ATOM     19  C   UNL     1      20.563  61.232  19.433  0.00  0.00    +0.119 C 
BRANCH  19  20
ATOM     20  N   UNL     1      20.158  60.294  20.522  0.00  0.00    -0.302 NA
ATOM     21  C   UNL     1      20.927  60.555  21.820  0.00  0.00    +0.066 C 
ATOM     22  C   UNL     1      20.475  59.579  22.955  0.00  0.00    -0.064 C 
ATOM     23  N   UNL     1      20.670  58.135  22.490  0.00  0.00    +0.379 N 
ATOM     24  C   UNL     1      20.300  57.216  23.576  0.00  0.00    -0.096 C 
ATOM     25  H   UNL     1      21.755  57.991  22.279  0.00  0.00    -0.082 HD
ATOM     26  C   UNL     1      19.910  57.868  21.198  0.00  0.00    -0.064 C 
ATOM     27  C   UNL     1      20.345  58.862  20.086  0.00  0.00    +0.066 C 
ENDBRANCH  19  20
ENDBRANCH  18  19
ENDBRANCH  14  15
ENDBRANCH  12  13
TORSDOF 6
ENDMDL
MODEL 4
REMARK VINA RESULT:      -8.7      6.655     15.219
REMARK  Name = C:\Users\Docking\Desktop\test protocol\1iep_ligandH.pdb
REMARK  8 active torsions:
REMARK  status: ('A' for Active; 'I' for Inactive)
REMARK    1  A    between atoms: _5  and  _11
REMARK    2  A    between atoms: _19  and  _21
REMARK    3  A    between atoms: _22  and  _66
REMARK    4  A    between atoms: _27  and  _30
REMARK    5  A    between atoms: _32  and  _33
REMARK    6  A    between atoms: _38  and  _43
REMARK    7  A    between atoms: _43  and  _46
REMARK    8  A    between atoms: _53  and  _55
REMARK                            x       y       z     vdW  Elec       q    Type
REMARK                         _______ _______ _______ _____ _____    ______ ____
ROOT
ATOM     10  C   UNL     1      10.119  63.121  14.000  0.00  0.00    +0.038 A 
ATOM     11  C   UNL     1      11.313  63.344  14.733  0.00  0.00    +0.047 A 
ATOM     12  C   UNL     1      12.493  63.907  14.096  0.00  0.00    +0.035 A 
ATOM     32  C   UNL     1      12.421  64.235  12.711  0.00  0.00    +0.024 A 
ATOM     33  C   UNL     1      11.216  64.015  11.950  0.00  0.00    +0.007 A 
ATOM     34  C   UNL     1      10.049  63.457  12.573  0.00  0.00    -0.029 A 
ATOM     35  C   UNL     1       8.787  63.236  11.707  0.00  0.00    +0.045 C 
ENDROOT
BRANCH  10   9
ATOM      4  C   UNL     1       7.528  59.389  15.548  0.00  0.00    +0.077 A 
ATOM      5  C   UNL     1       8.435  58.442  14.965  0.00  0.00    +0.048 A 
ATOM      6  C   UNL     1       9.551  58.957  14.269  0.00  0.00    +0.116 A 
ATOM      7  N   UNL     1       9.738  60.319  14.170  0.00  0.00    -0.223 NA
ATOM      8  C   UNL     1       8.844  61.204  14.743  0.00  0.00    +0.220 A 
ATOM      9  N   UNL     1       9.016  62.578  14.662  0.00  0.00    -0.283 N 
ATOM     36  H   UNL     1       8.330  63.198  15.092  0.00  0.00    +0.155 HD
ATOM     37  N   UNL     1       7.768  60.738  15.411  0.00  0.00    -0.214 NA
BRANCH   4   3
ATOM      1  C   UNL     1       3.928  58.164  16.465  0.00  0.00    +0.020 A 
ATOM      2  C   UNL     1       5.083  58.527  15.677  0.00  0.00    +0.013 A 
ATOM      3  C   UNL     1       6.304  59.000  16.317  0.00  0.00    +0.019 A 
ATOM     38  C   UNL     1       6.324  59.094  17.769  0.00  0.00    +0.120 A 
ATOM     39  N   UNL     1       5.196  58.739  18.502  0.00  0.00    -0.263 NA
ATOM     40  C   UNL     1       4.015  58.284  17.897  0.00  0.00    +0.111 A 
ENDBRANCH   4   3
ENDBRANCH  10   9
BRANCH  12  13
ATOM     13  N   UNL     1      13.735  64.148  14.787  0.00  0.00    -0.281 N 
ATOM     14  C   UNL     1      14.424  63.286  15.625  0.00  0.00    +0.248 C 
ATOM     30  O   UNL     1      13.965  62.249  16.078  0.00  0.00    -0.270 OA
ATOM     31  H   UNL     1      14.158  65.065  14.640  0.00  0.00    +0.155 HD
BRANCH  14  15
ATOM     15  C   UNL     1      15.821  63.635  16.028  0.00  0.00    +0.037 A 
ATOM     16  C   UNL     1      16.293  63.415  17.397  0.00  0.00    +0.013 A 
ATOM     17  C   UNL     1      17.640  63.776  17.764  0.00  0.00    +0.005 A 
ATOM     18  C   UNL     1      18.524  64.360  16.759  0.00  0.00    -0.033 A 
ATOM     28  C   UNL     1      18.031  64.562  15.407  0.00  0.00    +0.005 A 
ATOM     29  C   UNL     1      16.712  64.211  15.043  0.00  0.00    +0.013 A 
BRANCH  18  19
ATOM     19  C   UNL     1      19.969  64.794  17.067  0.00  0.00    +0.119 C 
BRANCH  19  20
ATOM     20  N   UNL     1      20.680  64.074  18.165  0.00  0.00    -0.302 NA
ATOM     21  C   UNL     1      21.891  64.860  18.678  0.00  0.00    +0.066 C 
ATOM     22  C   UNL     1      22.610  64.102  19.841  0.00  0.00    -0.064 C 
ATOM     23  N   UNL     1      23.030  62.713  19.359  0.00  0.00    +0.379 N 
ATOM     24  C   UNL     1      23.757  62.020  20.432  0.00  0.00    -0.096 C 
ATOM     25  H   UNL     1      23.735  62.850  18.506  0.00  0.00    -0.082 HD
ATOM     26  C   UNL     1      21.833  61.926  18.845  0.00  0.00    -0.064 C 
ATOM     27  C   UNL     1      21.108  62.701  17.709  0.00  0.00    +0.066 C 
ENDBRANCH  19  20
ENDBRANCH  18  19
ENDBRANCH  14  15
ENDBRANCH  12  13
TORSDOF 6
ENDMDL
MODEL 5
REMARK VINA RESULT:      -8.7      6.160     13.335
REMARK  Name = C:\Users\Docking\Desktop\test protocol\1iep_ligandH.pdb
REMARK  8 active torsions:
REMARK  status: ('A' for Active; 'I' for Inactive)
REMARK    1  A    between atoms: _5  and  _11
REMARK    2  A    between atoms: _19  and  _21
REMARK    3  A    between atoms: _22  and  _66
REMARK    4  A    between atoms: _27  and  _30
REMARK    5  A    between atoms: _32  and  _33
REMARK    6  A    between atoms: _38  and  _43
REMARK    7  A    between atoms: _43  and  _46
REMARK    8  A    between atoms: _53  and  _55
REMARK                            x       y       z     vdW  Elec       q    Type
REMARK                         _______ _______ _______ _____ _____    ______ ____
ROOT
ATOM     10  C   UNL     1      13.630  64.784  15.297  0.00  0.00    +0.038 A 
ATOM     11  C   UNL     1      13.158  66.118  15.397  0.00  0.00    +0.047 A 
ATOM     12  C   UNL     1      14.045  67.249  15.170  0.00  0.00    +0.035 A 
ATOM     32  C   UNL     1      15.406  66.984  14.841  0.00  0.00    +0.024 A 
ATOM     33  C   UNL     1      15.903  65.635  14.736  0.00  0.00    +0.007 A 
ATOM     34  C   UNL     1      15.034  64.515  14.961  0.00  0.00    -0.029 A 
ATOM     35  C   UNL     1      15.622  63.090  14.841  0.00  0.00    +0.045 C 
ENDROOT
BRANCH  10   9
ATOM      4  C   UNL     1      10.242  61.718  13.828  0.00  0.00    +0.077 A 
ATOM      5  C   UNL     1      10.235  62.268  12.503  0.00  0.00    +0.048 A 
ATOM      6  C   UNL     1      11.113  63.344  12.243  0.00  0.00    +0.116 A 
ATOM      7  N   UNL     1      11.933  63.825  13.240  0.00  0.00    -0.223 NA
ATOM      8  C   UNL     1      11.914  63.273  14.508  0.00  0.00    +0.220 A 
ATOM      9  N   UNL     1      12.735  63.736  15.524  0.00  0.00    -0.283 N 
ATOM     36  H   UNL     1      12.686  63.307  16.448  0.00  0.00    +0.155 HD
ATOM     37  N   UNL     1      11.083  62.246  14.783  0.00  0.00    -0.214 NA
BRANCH   4   3
ATOM      1  C   UNL     1       8.974  58.138  14.766  0.00  0.00    +0.020 A 
ATOM      2  C   UNL     1       9.854  59.204  14.345  0.00  0.00    +0.013 A 
ATOM      3  C   UNL     1       9.373  60.577  14.258  0.00  0.00    +0.019 A 
ATOM     38  C   UNL     1       7.985  60.840  14.606  0.00  0.00    +0.120 A 
ATOM     39  N   UNL     1       7.160  59.793  15.007  0.00  0.00    -0.263 NA
ATOM     40  C   UNL     1       7.612  58.468  15.093  0.00  0.00    +0.111 A 
ENDBRANCH   4   3
ENDBRANCH  10   9
BRANCH  12  13
ATOM     13  N   UNL     1      13.625  68.625  15.266  0.00  0.00    -0.281 N 
ATOM     14  C   UNL     1      13.057  69.412  14.278  0.00  0.00    +0.248 C 
ATOM     30  O   UNL     1      13.021  69.115  13.093  0.00  0.00    -0.270 OA
ATOM     31  H   UNL     1      13.763  69.072  16.172  0.00  0.00    +0.155 HD
BRANCH  14  15
ATOM     15  C   UNL     1      12.456  70.727  14.659  0.00  0.00    +0.037 A 
ATOM     16  C   UNL     1      13.157  71.653  15.553  0.00  0.00    +0.013 A 
ATOM     17  C   UNL     1      12.547  72.906  15.918  0.00  0.00    +0.005 A 
ATOM     18  C   UNL     1      11.228  73.242  15.388  0.00  0.00    -0.033 A 
ATOM     28  C   UNL     1      10.557  72.308  14.499  0.00  0.00    +0.005 A 
ATOM     29  C   UNL     1      11.151  71.077  14.140  0.00  0.00    +0.013 A 
BRANCH  18  19
ATOM     19  C   UNL     1      10.492  74.549  15.741  0.00  0.00    +0.119 C 
BRANCH  19  20
ATOM     20  N   UNL     1       9.431  74.474  16.789  0.00  0.00    -0.302 NA
ATOM     21  C   UNL     1       9.698  73.354  17.799  0.00  0.00    +0.066 C 
ATOM     22  C   UNL     1       8.591  73.305  18.901  0.00  0.00    -0.064 C 
ATOM     23  N   UNL     1       7.224  73.122  18.238  0.00  0.00    +0.379 N 
ATOM     24  C   UNL     1       6.187  73.017  19.275  0.00  0.00    -0.096 C 
ATOM     25  H   UNL     1       7.245  72.156  17.682  0.00  0.00    -0.082 HD
ATOM     26  C   UNL     1       6.951  74.230  17.231  0.00  0.00    -0.064 C 
ATOM     27  C   UNL     1       8.073  74.289  16.157  0.00  0.00    +0.066 C 
ENDBRANCH  19  20
ENDBRANCH  18  19
ENDBRANCH  14  15
ENDBRANCH  12  13
TORSDOF 6
ENDMDL
