MODEL 1
REMARK VINA RESULT:      -8.5      0.000      0.000
REMARK  Name = C:\Users\Docking\Desktop\test protocol\1iep_ligandH.pdb
REMARK  8 active torsions:
REMARK  status: ('A' for Active; 'I' for Inactive)
REMARK    1  A    between atoms: _5  and  _11
REMARK    2  A    between atoms: _19  and  _21
REMARK    3  A    between atoms: _22  and  _66
REMARK    4  A    between atoms: _27  and  _30
REMARK    5  A    between atoms: _32  and  _33
REMARK    6  A    between atoms: _38  and  _43
REMARK    7  A    between atoms: _43  and  _46
REMARK    8  A    between atoms: _53  and  _55
REMARK                            x       y       z     vdW  Elec       q    Type
REMARK                         _______ _______ _______ _____ _____    ______ ____
ROOT
ATOM     10  C   UNL     1       6.901  14.915  -0.410  0.00  0.00    +0.038 A 
ATOM     11  C   UNL     1       8.277  14.781  -0.723  0.00  0.00    +0.047 A 
ATOM     12  C   UNL     1       9.063  13.673  -0.201  0.00  0.00    +0.035 A 
ATOM     32  C   UNL     1       8.413  12.718   0.634  0.00  0.00    +0.024 A 
ATOM     33  C   UNL     1       7.015  12.840   0.963  0.00  0.00    +0.007 A 
ATOM     34  C   UNL     1       6.235  13.932   0.454  0.00  0.00    -0.029 A 
ATOM     35  C   UNL     1       4.741  14.016   0.844  0.00  0.00    +0.045 C 
ENDROOT
BRANCH  10   9
ATOM      4  C   UNL     1       5.050  19.331  -0.074  0.00  0.00    +0.077 A 
ATOM      5  C   UNL     1       5.506  19.483   1.278  0.00  0.00    +0.048 A 
ATOM      6  C   UNL     1       6.206  18.398   1.852  0.00  0.00    +0.116 A 
ATOM      7  N   UNL     1       6.429  17.253   1.120  0.00  0.00    -0.223 NA
ATOM      8  C   UNL     1       5.975  17.138  -0.181  0.00  0.00    +0.220 A 
ATOM      9  N   UNL     1       6.194  15.998  -0.938  0.00  0.00    -0.283 N 
ATOM     36  H   UNL     1       5.836  15.950  -1.892  0.00  0.00    +0.155 HD
ATOM     37  N   UNL     1       5.302  18.159  -0.752  0.00  0.00    -0.214 NA
BRANCH   4   3
ATOM      1  C   UNL     1       2.615  22.263  -0.953  0.00  0.00    +0.020 A 
ATOM      2  C   UNL     1       3.312  21.256  -0.187  0.00  0.00    +0.013 A 
ATOM      3  C   UNL     1       4.298  20.389  -0.820  0.00  0.00    +0.019 A 
ATOM     38  C   UNL     1       4.558  20.569  -2.241  0.00  0.00    +0.120 A 
ATOM     39  N   UNL     1       3.869  21.546  -2.953  0.00  0.00    -0.263 NA
ATOM     40  C   UNL     1       2.917  22.385  -2.355  0.00  0.00    +0.111 A 
ENDBRANCH   4   3
ENDBRANCH  10   9
BRANCH  12  13
ATOM     13  N   UNL     1      10.466  13.489  -0.478  0.00  0.00    -0.281 N 
ATOM     14  C   UNL     1      11.064  12.478  -1.212  0.00  0.00    +0.248 C 
ATOM     30  O   UNL     1      10.499  11.454  -1.566  0.00  0.00    -0.270 OA
ATOM     31  H   UNL     1      11.095  14.190  -0.085  0.00  0.00    +0.155 HD
BRANCH  14  15
ATOM     15  C   UNL     1      12.501  12.618  -1.597  0.00  0.00    +0.037 A 
ATOM     16  C   UNL     1      13.420  13.450  -0.815  0.00  0.00    +0.013 A 
ATOM     17  C   UNL     1      14.798  13.581  -1.218  0.00  0.00    +0.005 A 
ATOM     18  C   UNL     1      15.265  12.878  -2.410  0.00  0.00    -0.033 A 
ATOM     28  C   UNL     1      14.334  12.056  -3.165  0.00  0.00    +0.005 A 
ATOM     29  C   UNL     1      12.983  11.925  -2.773  0.00  0.00    +0.013 A 
BRANCH  18  19
ATOM     19  C   UNL     1      16.713  12.978  -2.926  0.00  0.00    +0.119 C 
BRANCH  19  20
ATOM     20  N   UNL     1      17.306  14.344  -3.040  0.00  0.00    -0.302 NA
ATOM     21  C   UNL     1      16.770  15.104  -4.256  0.00  0.00    +0.066 C 
ATOM     22  C   UNL     1      17.383  16.539  -4.347  0.00  0.00    -0.064 C 
ATOM     23  N   UNL     1      18.908  16.436  -4.401  0.00  0.00    +0.379 N 
ATOM     24  C   UNL     1      19.486  17.780  -4.545  0.00  0.00    -0.096 C 
ATOM     25  H   UNL     1      19.175  15.854  -5.314  0.00  0.00    -0.082 HD
ATOM     26  C   UNL     1      19.450  15.680  -3.197  0.00  0.00    -0.064 C 
ATOM     27  C   UNL     1      18.812  14.266  -3.099  0.00  0.00    +0.066 C 
ENDBRANCH  19  20
ENDBRANCH  18  19
ENDBRANCH  14  15
ENDBRANCH  12  13
TORSDOF 6
ENDMDL
MODEL 2
REMARK VINA RESULT:      -8.3      9.350     12.730
REMARK  Name = C:\Users\Docking\Desktop\test protocol\1iep_ligandH.pdb
REMARK  8 active torsions:
REMARK  status: ('A' for Active; 'I' for Inactive)
REMARK    1  A    between atoms: _5  and  _11
REMARK    2  A    between atoms: _19  and  _21
REMARK    3  A    between atoms: _22  and  _66
REMARK    4  A    between atoms: _27  and  _30
REMARK    5  A    between atoms: _32  and  _33
REMARK    6  A    between atoms: _38  and  _43
REMARK    7  A    between atoms: _43  and  _46
REMARK    8  A    between atoms: _53  and  _55
REMARK                            x       y       z     vdW  Elec       q    Type
REMARK                         _______ _______ _______ _____ _____    ______ ____
ROOT
ATOM     10  C   UNL     1      17.583  13.659  -3.287  0.00  0.00    +0.038 A 
ATOM     11  C   UNL     1      18.402  12.505  -3.198  0.00  0.00    +0.047 A 
ATOM     12  C   UNL     1      18.354  11.467  -4.216  0.00  0.00    +0.035 A 
ATOM     32  C   UNL     1      17.461  11.640  -5.314  0.00  0.00    +0.024 A 
ATOM     33  C   UNL     1      16.621  12.807  -5.420  0.00  0.00    +0.007 A 
ATOM     34  C   UNL     1      16.663  13.832  -4.417  0.00  0.00    -0.029 A 
ATOM     35  C   UNL     1      15.735  15.059  -4.579  0.00  0.00    +0.045 C 
ENDROOT
BRANCH  10   9
ATOM      4  C   UNL     1      19.447  17.668  -1.417  0.00  0.00    +0.077 A 
ATOM      5  C   UNL     1      20.341  17.840  -2.525  0.00  0.00    +0.048 A 
ATOM      6  C   UNL     1      20.295  16.871  -3.553  0.00  0.00    +0.116 A 
ATOM      7  N   UNL     1      19.416  15.813  -3.467  0.00  0.00    -0.223 NA
ATOM      8  C   UNL     1      18.568  15.676  -2.384  0.00  0.00    +0.220 A 
ATOM      9  N   UNL     1      17.671  14.624  -2.281  0.00  0.00    -0.283 N 
ATOM     36  H   UNL     1      17.068  14.554  -1.462  0.00  0.00    +0.155 HD
ATOM     37  N   UNL     1      18.594  16.587  -1.389  0.00  0.00    -0.214 NA
BRANCH   4   3
ATOM      1  C   UNL     1      18.102  20.026   1.399  0.00  0.00    +0.020 A 
ATOM      2  C   UNL     1      18.116  19.119   0.274  0.00  0.00    +0.013 A 
ATOM      3  C   UNL     1      19.375  18.609  -0.255  0.00  0.00    +0.019 A 
ATOM     38  C   UNL     1      20.611  19.039   0.382  0.00  0.00    +0.120 A 
ATOM     39  N   UNL     1      20.566  19.915   1.462  0.00  0.00    -0.263 NA
ATOM     40  C   UNL     1      19.361  20.414   1.979  0.00  0.00    +0.111 A 
ENDBRANCH   4   3
ENDBRANCH  10   9
BRANCH  12  13
ATOM     13  N   UNL     1      19.155  10.269  -4.175  0.00  0.00    -0.281 N 
ATOM     14  C   UNL     1      18.751   8.985  -3.850  0.00  0.00    +0.248 C 
ATOM     30  O   UNL     1      17.678   8.708  -3.335  0.00  0.00    -0.270 OA
ATOM     31  H   UNL     1      20.140  10.382  -4.415  0.00  0.00    +0.155 HD
BRANCH  14  15
ATOM     15  C   UNL     1      19.679   7.845  -4.122  0.00  0.00    +0.037 A 
ATOM     16  C   UNL     1      19.476   6.959  -5.271  0.00  0.00    +0.013 A 
ATOM     17  C   UNL     1      20.376   5.857  -5.502  0.00  0.00    +0.005 A 
ATOM     18  C   UNL     1      21.488   5.636  -4.581  0.00  0.00    -0.033 A 
ATOM     28  C   UNL     1      21.669   6.533  -3.452  0.00  0.00    +0.005 A 
ATOM     29  C   UNL     1      20.788   7.614  -3.222  0.00  0.00    +0.013 A 
BRANCH  18  19
ATOM     19  C   UNL     1      22.485   4.472  -4.737  0.00  0.00    +0.119 C 
BRANCH  19  20
ATOM     20  N   UNL     1      23.930   4.774  -4.513  0.00  0.00    -0.302 NA
ATOM     21  C   UNL     1      24.673   5.037  -5.826  0.00  0.00    +0.066 C 
ATOM     22  C   UNL     1      26.178   5.374  -5.570  0.00  0.00    -0.064 C 
ATOM     23  N   UNL     1      26.831   4.226  -4.799  0.00  0.00    +0.379 N 
ATOM     24  C   UNL     1      28.260   4.514  -4.608  0.00  0.00    -0.096 C 
ATOM     25  H   UNL     1      26.752   3.308  -5.427  0.00  0.00    -0.082 HD
ATOM     26  C   UNL     1      26.097   3.956  -3.493  0.00  0.00    -0.064 C 
ATOM     27  C   UNL     1      24.596   3.652  -3.756  0.00  0.00    +0.066 C 
ENDBRANCH  19  20
ENDBRANCH  18  19
ENDBRANCH  14  15
ENDBRANCH  12  13
TORSDOF 6
ENDMDL
MODEL 3
REMARK VINA RESULT:      -8.3      3.540      7.151
REMARK  Name = C:\Users\Docking\Desktop\test protocol\1iep_ligandH.pdb
REMARK  8 active torsions:
REMARK  status: ('A' for Active; 'I' for Inactive)
REMARK    1  A    between atoms: _5  and  _11
REMARK    2  A    between atoms: _19  and  _21
REMARK    3  A    between atoms: _22  and  _66
REMARK    4  A    between atoms: _27  and  _30
REMARK    5  A    between atoms: _32  and  _33
REMARK    6  A    between atoms: _38  and  _43
REMARK    7  A    between atoms: _43  and  _46
REMARK    8  A    between atoms: _53  and  _55
REMARK                            x       y       z     vdW  Elec       q    Type
REMARK                         _______ _______ _______ _____ _____    ______ ____
ROOT
ATOM     10  C   UNL     1      12.905  11.976  -2.483  0.00  0.00    +0.038 A 
ATOM     11  C   UNL     1      13.957  12.903  -2.700  0.00  0.00    +0.047 A 
ATOM     12  C   UNL     1      15.319  12.453  -2.940  0.00  0.00    +0.035 A 
ATOM     32  C   UNL     1      15.574  11.050  -2.956  0.00  0.00    +0.024 A 
ATOM     33  C   UNL     1      14.518  10.094  -2.736  0.00  0.00    +0.007 A 
ATOM     34  C   UNL     1      13.173  10.532  -2.496  0.00  0.00    -0.029 A 
ATOM     35  C   UNL     1      12.081   9.463  -2.261  0.00  0.00    +0.045 C 
ENDROOT
BRANCH  10   9
ATOM      4  C   UNL     1       9.535  13.871   0.360  0.00  0.00    +0.077 A 
ATOM      5  C   UNL     1      10.408  13.865   1.498  0.00  0.00    +0.048 A 
ATOM      6  C   UNL     1      11.714  13.360   1.312  0.00  0.00    +0.116 A 
ATOM      7  N   UNL     1      12.107  12.897   0.075  0.00  0.00    -0.223 NA
ATOM      8  C   UNL     1      11.240  12.916  -1.002  0.00  0.00    +0.220 A 
ATOM      9  N   UNL     1      11.616  12.463  -2.257  0.00  0.00    -0.283 N 
ATOM     36  H   UNL     1      10.944  12.487  -3.024  0.00  0.00    +0.155 HD
ATOM     37  N   UNL     1       9.987  13.392  -0.849  0.00  0.00    -0.214 NA
BRANCH   4   3
ATOM      1  C   UNL     1       6.172  15.627  -0.595  0.00  0.00    +0.020 A 
ATOM      2  C   UNL     1       7.538  15.163  -0.680  0.00  0.00    +0.013 A 
ATOM      3  C   UNL     1       8.126  14.377   0.397  0.00  0.00    +0.019 A 
ATOM     38  C   UNL     1       7.299  14.076   1.556  0.00  0.00    +0.120 A 
ATOM     39  N   UNL     1       5.988  14.538   1.611  0.00  0.00    -0.263 NA
ATOM     40  C   UNL     1       5.411  15.296   0.581  0.00  0.00    +0.111 A 
ENDBRANCH   4   3
ENDBRANCH  10   9
BRANCH  12  13
ATOM     13  N   UNL     1      16.429  13.347  -3.159  0.00  0.00    -0.281 N 
ATOM     14  C   UNL     1      16.581  14.285  -4.167  0.00  0.00    +0.248 C 
ATOM     30  O   UNL     1      15.877  14.348  -5.164  0.00  0.00    -0.270 OA
ATOM     31  H   UNL     1      17.195  13.281  -2.488  0.00  0.00    +0.155 HD
BRANCH  14  15
ATOM     15  C   UNL     1      17.684  15.288  -4.060  0.00  0.00    +0.037 A 
ATOM     16  C   UNL     1      17.685  16.506  -4.874  0.00  0.00    +0.013 A 
ATOM     17  C   UNL     1      18.770  17.449  -4.763  0.00  0.00    +0.005 A 
ATOM     18  C   UNL     1      19.863  17.177  -3.832  0.00  0.00    -0.033 A 
ATOM     28  C   UNL     1      19.833  15.963  -3.033  0.00  0.00    +0.005 A 
ATOM     29  C   UNL     1      18.772  15.037  -3.139  0.00  0.00    +0.013 A 
BRANCH  18  19
ATOM     19  C   UNL     1      21.071  18.117  -3.664  0.00  0.00    +0.119 C 
BRANCH  19  20
ATOM     20  N   UNL     1      22.229  17.606  -2.872  0.00  0.00    -0.302 NA
ATOM     21  C   UNL     1      22.136  18.004  -1.396  0.00  0.00    +0.066 C 
ATOM     22  C   UNL     1      23.344  17.443  -0.577  0.00  0.00    -0.064 C 
ATOM     23  N   UNL     1      24.651  17.946  -1.192  0.00  0.00    +0.379 N 
ATOM     24  C   UNL     1      25.787  17.467  -0.391  0.00  0.00    -0.096 C 
ATOM     25  H   UNL     1      24.643  19.059  -1.138  0.00  0.00    -0.082 HD
ATOM     26  C   UNL     1      24.751  17.557  -2.661  0.00  0.00    -0.064 C 
ATOM     27  C   UNL     1      23.531  18.095  -3.459  0.00  0.00    +0.066 C 
ENDBRANCH  19  20
ENDBRANCH  18  19
ENDBRANCH  14  15
ENDBRANCH  12  13
TORSDOF 6
ENDMDL
MODEL 4
REMARK VINA RESULT:      -8.3      9.282     12.710
REMARK  Name = C:\Users\Docking\Desktop\test protocol\1iep_ligandH.pdb
REMARK  8 active torsions:
REMARK  status: ('A' for Active; 'I' for Inactive)
REMARK    1  A    between atoms: _5  and  _11
REMARK    2  A    between atoms: _19  and  _21
REMARK    3  A    between atoms: _22  and  _66
REMARK    4  A    between atoms: _27  and  _30
REMARK    5  A    between atoms: _32  and  _33
REMARK    6  A    between atoms: _38  and  _43
REMARK    7  A    between atoms: _43  and  _46
REMARK    8  A    between atoms: _53  and  _55
REMARK                            x       y       z     vdW  Elec       q    Type
REMARK                         _______ _______ _______ _____ _____    ______ ____
ROOT
ATOM     10  C   UNL     1      17.559  13.674  -3.328  0.00  0.00    +0.038 A 
ATOM     11  C   UNL     1      18.400  12.532  -3.306  0.00  0.00    +0.047 A 
ATOM     12  C   UNL     1      18.315  11.514  -4.342  0.00  0.00    +0.035 A 
ATOM     32  C   UNL     1      17.362  11.693  -5.388  0.00  0.00    +0.024 A 
ATOM     33  C   UNL     1      16.499  12.847  -5.425  0.00  0.00    +0.007 A 
ATOM     34  C   UNL     1      16.577  13.853  -4.405  0.00  0.00    -0.029 A 
ATOM     35  C   UNL     1      15.622  15.066  -4.492  0.00  0.00    +0.045 C 
ENDROOT
BRANCH  10   9
ATOM      4  C   UNL     1      19.425  17.696  -1.492  0.00  0.00    +0.077 A 
ATOM      5  C   UNL     1      20.241  17.918  -2.651  0.00  0.00    +0.048 A 
ATOM      6  C   UNL     1      20.156  16.969  -3.695  0.00  0.00    +0.116 A 
ATOM      7  N   UNL     1      19.314  15.884  -3.577  0.00  0.00    -0.223 NA
ATOM      8  C   UNL     1      18.543  15.700  -2.445  0.00  0.00    +0.220 A 
ATOM      9  N   UNL     1      17.684  14.620  -2.308  0.00  0.00    -0.283 N 
ATOM     36  H   UNL     1      17.137  14.515  -1.454  0.00  0.00    +0.155 HD
ATOM     37  N   UNL     1      18.607  16.591  -1.433  0.00  0.00    -0.214 NA
BRANCH   4   3
ATOM      1  C   UNL     1      18.200  20.014   1.412  0.00  0.00    +0.020 A 
ATOM      2  C   UNL     1      18.167  19.134   0.266  0.00  0.00    +0.013 A 
ATOM      3  C   UNL     1      19.401  18.612  -0.307  0.00  0.00    +0.019 A 
ATOM     38  C   UNL     1      20.661  19.002   0.307  0.00  0.00    +0.120 A 
ATOM     39  N   UNL     1      20.662  19.852   1.409  0.00  0.00    -0.263 NA
ATOM     40  C   UNL     1      19.481  20.362   1.968  0.00  0.00    +0.111 A 
ENDBRANCH   4   3
ENDBRANCH  10   9
BRANCH  12  13
ATOM     13  N   UNL     1      19.137  10.330  -4.368  0.00  0.00    -0.281 N 
ATOM     14  C   UNL     1      19.029   9.202  -3.571  0.00  0.00    +0.248 C 
ATOM     30  O   UNL     1      18.339   9.128  -2.566  0.00  0.00    -0.270 OA
ATOM     31  H   UNL     1      19.889  10.323  -5.056  0.00  0.00    +0.155 HD
BRANCH  14  15
ATOM     15  C   UNL     1      19.814   7.983  -3.936  0.00  0.00    +0.037 A 
ATOM     16  C   UNL     1      20.950   7.539  -3.125  0.00  0.00    +0.013 A 
ATOM     17  C   UNL     1      21.700   6.370  -3.509  0.00  0.00    +0.005 A 
ATOM     18  C   UNL     1      21.316   5.635  -4.712  0.00  0.00    -0.033 A 
ATOM     28  C   UNL     1      20.181   6.095  -5.496  0.00  0.00    +0.005 A 
ATOM     29  C   UNL     1      19.444   7.241  -5.123  0.00  0.00    +0.013 A 
BRANCH  18  19
ATOM     19  C   UNL     1      22.072   4.389  -5.208  0.00  0.00    +0.119 C 
BRANCH  19  20
ATOM     20  N   UNL     1      23.171   4.605  -6.196  0.00  0.00    -0.302 NA
ATOM     21  C   UNL     1      23.455   3.349  -7.024  0.00  0.00    +0.066 C 
ATOM     22  C   UNL     1      24.592   3.599  -8.067  0.00  0.00    -0.064 C 
ATOM     23  N   UNL     1      25.855   4.065  -7.340  0.00  0.00    +0.379 N 
ATOM     24  C   UNL     1      26.942   4.246  -8.312  0.00  0.00    -0.096 C 
ATOM     25  H   UNL     1      26.159   3.254  -6.638  0.00  0.00    -0.082 HD
ATOM     26  C   UNL     1      25.581   5.313  -6.512  0.00  0.00    -0.064 C 
ATOM     27  C   UNL     1      24.429   5.062  -5.499  0.00  0.00    +0.066 C 
ENDBRANCH  19  20
ENDBRANCH  18  19
ENDBRANCH  14  15
ENDBRANCH  12  13
TORSDOF 6
ENDMDL
MODEL 5
REMARK VINA RESULT:      -8.2      8.670     13.557
REMARK  Name = C:\Users\Docking\Desktop\test protocol\1iep_ligandH.pdb
REMARK  8 active torsions:
REMARK  status: ('A' for Active; 'I' for Inactive)
REMARK    1  A    between atoms: _5  and  _11
REMARK    2  A    between atoms: _19  and  _21
REMARK    3  A    between atoms: _22  and  _66
REMARK    4  A    between atoms: _27  and  _30
REMARK    5  A    between atoms: _32  and  _33
REMARK    6  A    between atoms: _38  and  _43
REMARK    7  A    between atoms: _43  and  _46
REMARK    8  A    between atoms: _53  and  _55
REMARK                            x       y       z     vdW  Elec       q    Type
REMARK                         _______ _______ _______ _____ _____    ______ ____
ROOT
ATOM     10  C   UNL     1      16.178  11.696  -4.209  0.00  0.00    +0.038 A 
ATOM     11  C   UNL     1      17.082  12.786  -4.131  0.00  0.00    +0.047 A 
ATOM     12  C   UNL     1      16.665  14.073  -3.597  0.00  0.00    +0.035 A 
ATOM     32  C   UNL     1      15.320  14.213  -3.147  0.00  0.00    +0.024 A 
ATOM     33  C   UNL     1      14.388  13.116  -3.219  0.00  0.00    +0.007 A 
ATOM     34  C   UNL     1      14.793  11.845  -3.748  0.00  0.00    -0.029 A 
ATOM     35  C   UNL     1      13.749  10.706  -3.807  0.00  0.00    +0.045 C 
ENDROOT
BRANCH  10   9
ATOM      4  C   UNL     1      19.246   8.005  -4.288  0.00  0.00    +0.077 A 
ATOM      5  C   UNL     1      20.026   8.553  -3.216  0.00  0.00    +0.048 A 
ATOM      6  C   UNL     1      19.608   9.791  -2.677  0.00  0.00    +0.116 A 
ATOM      7  N   UNL     1      18.491  10.423  -3.180  0.00  0.00    -0.223 NA
ATOM      8  C   UNL     1      17.763   9.868  -4.215  0.00  0.00    +0.220 A 
ATOM      9  N   UNL     1      16.632  10.482  -4.731  0.00  0.00    -0.283 N 
ATOM     36  H   UNL     1      16.126  10.044  -5.500  0.00  0.00    +0.155 HD
ATOM     37  N   UNL     1      18.142   8.688  -4.749  0.00  0.00    -0.214 NA
BRANCH   4   3
ATOM      1  C   UNL     1      21.112   4.804  -5.541  0.00  0.00    +0.020 A 
ATOM      2  C   UNL     1      20.863   6.060  -4.873  0.00  0.00    +0.013 A 
ATOM      3  C   UNL     1      19.558   6.704  -4.960  0.00  0.00    +0.019 A 
ATOM     38  C   UNL     1      18.519   6.044  -5.736  0.00  0.00    +0.120 A 
ATOM     39  N   UNL     1      18.789   4.835  -6.370  0.00  0.00    -0.263 NA
ATOM     40  C   UNL     1      20.041   4.207  -6.294  0.00  0.00    +0.111 A 
ENDBRANCH   4   3
ENDBRANCH  10   9
BRANCH  12  13
ATOM     13  N   UNL     1      17.536  15.218  -3.501  0.00  0.00    -0.281 N 
ATOM     14  C   UNL     1      18.120  15.751  -2.364  0.00  0.00    +0.248 C 
ATOM     30  O   UNL     1      17.808  15.450  -1.221  0.00  0.00    -0.270 OA
ATOM     31  H   UNL     1      17.748  15.693  -4.378  0.00  0.00    +0.155 HD
BRANCH  14  15
ATOM     15  C   UNL     1      19.195  16.778  -2.517  0.00  0.00    +0.037 A 
ATOM     16  C   UNL     1      19.690  17.538  -1.367  0.00  0.00    +0.013 A 
ATOM     17  C   UNL     1      20.716  18.535  -1.546  0.00  0.00    +0.005 A 
ATOM     18  C   UNL     1      21.255  18.776  -2.882  0.00  0.00    -0.033 A 
ATOM     28  C   UNL     1      20.749  18.004  -4.005  0.00  0.00    +0.005 A 
ATOM     29  C   UNL     1      19.743  17.027  -3.834  0.00  0.00    +0.013 A 
BRANCH  18  19
ATOM     19  C   UNL     1      22.336  19.835  -3.169  0.00  0.00    +0.119 C 
BRANCH  19  20
ATOM     20  N   UNL     1      23.748  19.476  -2.842  0.00  0.00    -0.302 NA
ATOM     21  C   UNL     1      24.746  20.151  -3.787  0.00  0.00    +0.066 C 
ATOM     22  C   UNL     1      26.220  19.783  -3.415  0.00  0.00    -0.064 C 
ATOM     23  N   UNL     1      26.386  18.263  -3.447  0.00  0.00    +0.379 N 
ATOM     24  C   UNL     1      27.785  17.916  -3.155  0.00  0.00    -0.096 C 
ATOM     25  H   UNL     1      26.162  17.920  -4.484  0.00  0.00    -0.082 HD
ATOM     26  C   UNL     1      25.396  17.584  -2.512  0.00  0.00    -0.064 C 
ATOM     27  C   UNL     1      23.936  17.979  -2.871  0.00  0.00    +0.066 C 
ENDBRANCH  19  20
ENDBRANCH  18  19
ENDBRANCH  14  15
ENDBRANCH  12  13
TORSDOF 6
ENDMDL
