MODEL 1
REMARK VINA RESULT:      -7.8      0.000      0.000
REMARK  Name = C:\Users\Docking\Desktop\test protocol\1iep_ligandH.pdb
REMARK  8 active torsions:
REMARK  status: ('A' for Active; 'I' for Inactive)
REMARK    1  A    between atoms: _5  and  _11
REMARK    2  A    between atoms: _19  and  _21
REMARK    3  A    between atoms: _22  and  _66
REMARK    4  A    between atoms: _27  and  _30
REMARK    5  A    between atoms: _32  and  _33
REMARK    6  A    between atoms: _38  and  _43
REMARK    7  A    between atoms: _43  and  _46
REMARK    8  A    between atoms: _53  and  _55
REMARK                            x       y       z     vdW  Elec       q    Type
REMARK                         _______ _______ _______ _____ _____    ______ ____
ROOT
ATOM     10  C   UNL     1     -22.225  39.477   4.687  0.00  0.00    +0.038 A 
ATOM     11  C   UNL     1     -21.817  40.450   5.634  0.00  0.00    +0.047 A 
ATOM     12  C   UNL     1     -21.189  40.063   6.888  0.00  0.00    +0.035 A 
ATOM     32  C   UNL     1     -20.991  38.675   7.144  0.00  0.00    +0.024 A 
ATOM     33  C   UNL     1     -21.400  37.672   6.192  0.00  0.00    +0.007 A 
ATOM     34  C   UNL     1     -22.022  38.048   4.954  0.00  0.00    -0.029 A 
ATOM     35  C   UNL     1     -22.447  36.930   3.974  0.00  0.00    +0.045 C 
ENDROOT
BRANCH  10   9
ATOM      4  C   UNL     1     -26.080  40.513   2.021  0.00  0.00    +0.077 A 
ATOM      5  C   UNL     1     -26.981  40.145   3.075  0.00  0.00    +0.048 A 
ATOM      6  C   UNL     1     -26.412  39.688   4.285  0.00  0.00    +0.116 A 
ATOM      7  N   UNL     1     -25.043  39.608   4.420  0.00  0.00    -0.223 NA
ATOM      8  C   UNL     1     -24.202  39.969   3.383  0.00  0.00    +0.220 A 
ATOM      9  N   UNL     1     -22.822  39.905   3.499  0.00  0.00    -0.283 N 
ATOM     36  H   UNL     1     -22.237  40.173   2.708  0.00  0.00    +0.155 HD
ATOM     37  N   UNL     1     -24.721  40.408   2.217  0.00  0.00    -0.214 NA
BRANCH   4   3
ATOM      1  C   UNL     1     -26.956  40.733  -1.785  0.00  0.00    +0.020 A 
ATOM      2  C   UNL     1     -26.512  40.197  -0.519  0.00  0.00    +0.013 A 
ATOM      3  C   UNL     1     -26.528  41.018   0.685  0.00  0.00    +0.019 A 
ATOM     38  C   UNL     1     -27.005  42.389   0.573  0.00  0.00    +0.120 A 
ATOM     39  N   UNL     1     -27.425  42.878  -0.659  0.00  0.00    -0.263 NA
ATOM     40  C   UNL     1     -27.412  42.098  -1.825  0.00  0.00    +0.111 A 
ENDBRANCH   4   3
ENDBRANCH  10   9
BRANCH  12  13
ATOM     13  N   UNL     1     -20.761  41.006   7.891  0.00  0.00    -0.281 N 
ATOM     14  C   UNL     1     -19.903  42.082   7.738  0.00  0.00    +0.248 C 
ATOM     30  O   UNL     1     -19.201  42.271   6.755  0.00  0.00    -0.270 OA
ATOM     31  H   UNL     1     -21.137  40.862   8.829  0.00  0.00    +0.155 HD
BRANCH  14  15
ATOM     15  C   UNL     1     -19.798  43.085   8.841  0.00  0.00    +0.037 A 
ATOM     16  C   UNL     1     -19.432  44.478   8.569  0.00  0.00    +0.013 A 
ATOM     17  C   UNL     1     -19.321  45.421   9.653  0.00  0.00    +0.005 A 
ATOM     18  C   UNL     1     -19.579  44.974  11.020  0.00  0.00    -0.033 A 
ATOM     28  C   UNL     1     -19.945  43.589  11.261  0.00  0.00    +0.005 A 
ATOM     29  C   UNL     1     -20.054  42.661  10.201  0.00  0.00    +0.013 A 
BRANCH  18  19
ATOM     19  C   UNL     1     -19.463  45.907  12.241  0.00  0.00    +0.119 C 
BRANCH  19  20
ATOM     20  N   UNL     1     -20.436  45.698  13.355  0.00  0.00    -0.302 NA
ATOM     21  C   UNL     1     -21.277  46.949  13.625  0.00  0.00    +0.066 C 
ATOM     22  C   UNL     1     -22.304  46.706  14.779  0.00  0.00    -0.064 C 
ATOM     23  N   UNL     1     -21.556  46.273  16.041  0.00  0.00    +0.379 N 
ATOM     24  C   UNL     1     -22.513  46.100  17.143  0.00  0.00    -0.096 C 
ATOM     25  H   UNL     1     -20.862  47.099  16.322  0.00  0.00    -0.082 HD
ATOM     26  C   UNL     1     -20.715  45.032  15.780  0.00  0.00    -0.064 C 
ATOM     27  C   UNL     1     -19.718  45.275  14.613  0.00  0.00    +0.066 C 
ENDBRANCH  19  20
ENDBRANCH  18  19
ENDBRANCH  14  15
ENDBRANCH  12  13
TORSDOF 6
ENDMDL
MODEL 2
REMARK VINA RESULT:      -7.7      6.216     14.321
REMARK  Name = C:\Users\Docking\Desktop\test protocol\1iep_ligandH.pdb
REMARK  8 active torsions:
REMARK  status: ('A' for Active; 'I' for Inactive)
REMARK    1  A    between atoms: _5  and  _11
REMARK    2  A    between atoms: _19  and  _21
REMARK    3  A    between atoms: _22  and  _66
REMARK    4  A    between atoms: _27  and  _30
REMARK    5  A    between atoms: _32  and  _33
REMARK    6  A    between atoms: _38  and  _43
REMARK    7  A    between atoms: _43  and  _46
REMARK    8  A    between atoms: _53  and  _55
REMARK                            x       y       z     vdW  Elec       q    Type
REMARK                         _______ _______ _______ _____ _____    ______ ____
ROOT
ATOM     10  C   UNL     1     -24.096  39.435   2.491  0.00  0.00    +0.038 A 
ATOM     11  C   UNL     1     -23.583  38.480   1.577  0.00  0.00    +0.047 A 
ATOM     12  C   UNL     1     -24.457  37.782   0.647  0.00  0.00    +0.035 A 
ATOM     32  C   UNL     1     -25.850  38.083   0.674  0.00  0.00    +0.024 A 
ATOM     33  C   UNL     1     -26.389  39.050   1.597  0.00  0.00    +0.007 A 
ATOM     34  C   UNL     1     -25.532  39.740   2.518  0.00  0.00    -0.029 A 
ATOM     35  C   UNL     1     -26.165  40.762   3.490  0.00  0.00    +0.045 C 
ENDROOT
BRANCH  10   9
ATOM      4  C   UNL     1     -21.207  39.465   6.324  0.00  0.00    +0.077 A 
ATOM      5  C   UNL     1     -21.507  38.097   6.634  0.00  0.00    +0.048 A 
ATOM      6  C   UNL     1     -22.415  37.423   5.787  0.00  0.00    +0.116 A 
ATOM      7  N   UNL     1     -22.975  38.079   4.712  0.00  0.00    -0.223 NA
ATOM      8  C   UNL     1     -22.666  39.399   4.441  0.00  0.00    +0.220 A 
ATOM      9  N   UNL     1     -23.211  40.075   3.361  0.00  0.00    -0.283 N 
ATOM     36  H   UNL     1     -22.963  41.051   3.200  0.00  0.00    +0.155 HD
ATOM     37  N   UNL     1     -21.802  40.065   5.236  0.00  0.00    -0.214 NA
BRANCH   4   3
ATOM      1  C   UNL     1     -19.588  41.530   9.225  0.00  0.00    +0.020 A 
ATOM      2  C   UNL     1     -20.533  40.714   8.497  0.00  0.00    +0.013 A 
ATOM      3  C   UNL     1     -20.264  40.310   7.123  0.00  0.00    +0.019 A 
ATOM     38  C   UNL     1     -19.021  40.752   6.509  0.00  0.00    +0.120 A 
ATOM     39  N   UNL     1     -18.131  41.538   7.234  0.00  0.00    -0.263 NA
ATOM     40  C   UNL     1     -18.379  41.935   8.557  0.00  0.00    +0.111 A 
ENDBRANCH   4   3
ENDBRANCH  10   9
BRANCH  12  13
ATOM     13  N   UNL     1     -23.994  36.796  -0.298  0.00  0.00    -0.281 N 
ATOM     14  C   UNL     1     -23.076  36.963  -1.322  0.00  0.00    +0.248 C 
ATOM     30  O   UNL     1     -22.671  38.047  -1.717  0.00  0.00    -0.270 OA
ATOM     31  H   UNL     1     -24.391  35.862  -0.200  0.00  0.00    +0.155 HD
BRANCH  14  15
ATOM     15  C   UNL     1     -22.542  35.753  -2.017  0.00  0.00    +0.037 A 
ATOM     16  C   UNL     1     -21.128  35.653  -2.389  0.00  0.00    +0.013 A 
ATOM     17  C   UNL     1     -20.642  34.481  -3.074  0.00  0.00    +0.005 A 
ATOM     18  C   UNL     1     -21.571  33.400  -3.392  0.00  0.00    -0.033 A 
ATOM     28  C   UNL     1     -22.968  33.524  -3.007  0.00  0.00    +0.005 A 
ATOM     29  C   UNL     1     -23.448  34.671  -2.336  0.00  0.00    +0.013 A 
BRANCH  18  19
ATOM     19  C   UNL     1     -21.145  32.123  -4.140  0.00  0.00    +0.119 C 
BRANCH  19  20
ATOM     20  N   UNL     1     -20.116  31.260  -3.487  0.00  0.00    -0.302 NA
ATOM     21  C   UNL     1     -20.106  29.841  -4.064  0.00  0.00    +0.066 C 
ATOM     22  C   UNL     1     -19.009  28.958  -3.385  0.00  0.00    -0.064 C 
ATOM     23  N   UNL     1     -19.245  28.927  -1.874  0.00  0.00    +0.379 N 
ATOM     24  C   UNL     1     -18.249  28.051  -1.240  0.00  0.00    -0.096 C 
ATOM     25  H   UNL     1     -20.251  28.479  -1.699  0.00  0.00    -0.082 HD
ATOM     26  C   UNL     1     -19.259  30.334  -1.293  0.00  0.00    -0.064 C 
ATOM     27  C   UNL     1     -20.333  31.211  -1.994  0.00  0.00    +0.066 C 
ENDBRANCH  19  20
ENDBRANCH  18  19
ENDBRANCH  14  15
ENDBRANCH  12  13
TORSDOF 6
ENDMDL
MODEL 3
REMARK VINA RESULT:      -7.7      1.616      2.263
REMARK  Name = C:\Users\Docking\Desktop\test protocol\1iep_ligandH.pdb
REMARK  8 active torsions:
REMARK  status: ('A' for Active; 'I' for Inactive)
REMARK    1  A    between atoms: _5  and  _11
REMARK    2  A    between atoms: _19  and  _21
REMARK    3  A    between atoms: _22  and  _66
REMARK    4  A    between atoms: _27  and  _30
REMARK    5  A    between atoms: _32  and  _33
REMARK    6  A    between atoms: _38  and  _43
REMARK    7  A    between atoms: _43  and  _46
REMARK    8  A    between atoms: _53  and  _55
REMARK                            x       y       z     vdW  Elec       q    Type
REMARK                         _______ _______ _______ _____ _____    ______ ____
ROOT
ATOM     10  C   UNL     1     -22.317  39.365   4.474  0.00  0.00    +0.038 A 
ATOM     11  C   UNL     1     -21.891  40.369   5.381  0.00  0.00    +0.047 A 
ATOM     12  C   UNL     1     -21.204  40.025   6.616  0.00  0.00    +0.035 A 
ATOM     32  C   UNL     1     -20.963  38.648   6.894  0.00  0.00    +0.024 A 
ATOM     33  C   UNL     1     -21.389  37.614   5.983  0.00  0.00    +0.007 A 
ATOM     34  C   UNL     1     -22.070  37.948   4.765  0.00  0.00    -0.029 A 
ATOM     35  C   UNL     1     -22.510  36.798   3.829  0.00  0.00    +0.045 C 
ENDROOT
BRANCH  10   9
ATOM      4  C   UNL     1     -26.286  40.477   2.016  0.00  0.00    +0.077 A 
ATOM      5  C   UNL     1     -27.128  40.240   3.153  0.00  0.00    +0.048 A 
ATOM      6  C   UNL     1     -26.501  39.827   4.350  0.00  0.00    +0.116 A 
ATOM      7  N   UNL     1     -25.133  39.666   4.394  0.00  0.00    -0.223 NA
ATOM      8  C   UNL     1     -24.350  39.900   3.279  0.00  0.00    +0.220 A 
ATOM      9  N   UNL     1     -22.972  39.752   3.303  0.00  0.00    -0.283 N 
ATOM     36  H   UNL     1     -22.431  39.928   2.457  0.00  0.00    +0.155 HD
ATOM     37  N   UNL     1     -24.926  40.295   2.124  0.00  0.00    -0.214 NA
BRANCH   4   3
ATOM      1  C   UNL     1     -26.812  40.867  -1.841  0.00  0.00    +0.020 A 
ATOM      2  C   UNL     1     -26.280  40.405  -0.579  0.00  0.00    +0.013 A 
ATOM      3  C   UNL     1     -26.800  40.921   0.681  0.00  0.00    +0.019 A 
ATOM     38  C   UNL     1     -27.866  41.910   0.630  0.00  0.00    +0.120 A 
ATOM     39  N   UNL     1     -28.357  42.337  -0.600  0.00  0.00    -0.263 NA
ATOM     40  C   UNL     1     -27.864  41.849  -1.819  0.00  0.00    +0.111 A 
ENDBRANCH   4   3
ENDBRANCH  10   9
BRANCH  12  13
ATOM     13  N   UNL     1     -20.756  41.000   7.579  0.00  0.00    -0.281 N 
ATOM     14  C   UNL     1     -19.775  41.965   7.421  0.00  0.00    +0.248 C 
ATOM     30  O   UNL     1     -18.981  41.997   6.493  0.00  0.00    -0.270 OA
ATOM     31  H   UNL     1     -21.219  40.976   8.488  0.00  0.00    +0.155 HD
BRANCH  14  15
ATOM     15  C   UNL     1     -19.649  43.042   8.450  0.00  0.00    +0.037 A 
ATOM     16  C   UNL     1     -20.088  42.828   9.831  0.00  0.00    +0.013 A 
ATOM     17  C   UNL     1     -19.971  43.890  10.800  0.00  0.00    +0.005 A 
ATOM     18  C   UNL     1     -19.409  45.175  10.390  0.00  0.00    -0.033 A 
ATOM     28  C   UNL     1     -18.976  45.357   9.014  0.00  0.00    +0.005 A 
ATOM     29  C   UNL     1     -19.091  44.320   8.062  0.00  0.00    +0.013 A 
BRANCH  18  19
ATOM     19  C   UNL     1     -19.266  46.370  11.351  0.00  0.00    +0.119 C 
BRANCH  19  20
ATOM     20  N   UNL     1     -20.362  47.384  11.348  0.00  0.00    -0.302 NA
ATOM     21  C   UNL     1     -19.900  48.728  10.778  0.00  0.00    +0.066 C 
ATOM     22  C   UNL     1     -21.065  49.770  10.762  0.00  0.00    -0.064 C 
ATOM     23  N   UNL     1     -21.610  49.943  12.181  0.00  0.00    +0.379 N 
ATOM     24  C   UNL     1     -22.667  50.965  12.179  0.00  0.00    -0.096 C 
ATOM     25  H   UNL     1     -20.777  50.318  12.820  0.00  0.00    -0.082 HD
ATOM     26  C   UNL     1     -22.069  48.611  12.757  0.00  0.00    -0.064 C 
ATOM     27  C   UNL     1     -20.912  47.573  12.740  0.00  0.00    +0.066 C 
ENDBRANCH  19  20
ENDBRANCH  18  19
ENDBRANCH  14  15
ENDBRANCH  12  13
TORSDOF 6
ENDMDL
MODEL 4
REMARK VINA RESULT:      -7.7      9.301     14.724
REMARK  Name = C:\Users\Docking\Desktop\test protocol\1iep_ligandH.pdb
REMARK  8 active torsions:
REMARK  status: ('A' for Active; 'I' for Inactive)
REMARK    1  A    between atoms: _5  and  _11
REMARK    2  A    between atoms: _19  and  _21
REMARK    3  A    between atoms: _22  and  _66
REMARK    4  A    between atoms: _27  and  _30
REMARK    5  A    between atoms: _32  and  _33
REMARK    6  A    between atoms: _38  and  _43
REMARK    7  A    between atoms: _43  and  _46
REMARK    8  A    between atoms: _53  and  _55
REMARK                            x       y       z     vdW  Elec       q    Type
REMARK                         _______ _______ _______ _____ _____    ______ ____
ROOT
ATOM     10  C   UNL     1     -21.356  30.961  -3.345  0.00  0.00    +0.038 A 
ATOM     11  C   UNL     1     -21.792  32.047  -2.544  0.00  0.00    +0.047 A 
ATOM     12  C   UNL     1     -22.228  33.298  -3.146  0.00  0.00    +0.035 A 
ATOM     32  C   UNL     1     -22.209  33.406  -4.567  0.00  0.00    +0.024 A 
ATOM     33  C   UNL     1     -21.767  32.312  -5.396  0.00  0.00    +0.007 A 
ATOM     34  C   UNL     1     -21.334  31.077  -4.808  0.00  0.00    -0.029 A 
ATOM     35  C   UNL     1     -20.864  29.940  -5.745  0.00  0.00    +0.045 C 
ENDROOT
BRANCH  10   9
ATOM      4  C   UNL     1     -17.956  27.944  -1.803  0.00  0.00    +0.077 A 
ATOM      5  C   UNL     1     -16.904  28.770  -2.321  0.00  0.00    +0.048 A 
ATOM      6  C   UNL     1     -17.281  29.959  -2.984  0.00  0.00    +0.116 A 
ATOM      7  N   UNL     1     -18.613  30.288  -3.113  0.00  0.00    -0.223 NA
ATOM      8  C   UNL     1     -19.602  29.468  -2.603  0.00  0.00    +0.220 A 
ATOM      9  N   UNL     1     -20.948  29.783  -2.714  0.00  0.00    -0.283 N 
ATOM     36  H   UNL     1     -21.648  29.148  -2.331  0.00  0.00    +0.155 HD
ATOM     37  N   UNL     1     -19.269  28.326  -1.967  0.00  0.00    -0.214 NA
BRANCH   4   3
ATOM      1  C   UNL     1     -18.244  24.984   0.739  0.00  0.00    +0.020 A 
ATOM      2  C   UNL     1     -18.515  26.237   0.072  0.00  0.00    +0.013 A 
ATOM      3  C   UNL     1     -17.718  26.657  -1.074  0.00  0.00    +0.019 A 
ATOM     38  C   UNL     1     -16.648  25.780  -1.524  0.00  0.00    +0.120 A 
ATOM     39  N   UNL     1     -16.409  24.581  -0.860  0.00  0.00    -0.263 NA
ATOM     40  C   UNL     1     -17.168  24.166   0.245  0.00  0.00    +0.111 A 
ENDBRANCH   4   3
ENDBRANCH  10   9
BRANCH  12  13
ATOM     13  N   UNL     1     -22.674  34.438  -2.384  0.00  0.00    -0.281 N 
ATOM     14  C   UNL     1     -23.967  34.916  -2.245  0.00  0.00    +0.248 C 
ATOM     30  O   UNL     1     -24.913  34.560  -2.931  0.00  0.00    -0.270 OA
ATOM     31  H   UNL     1     -21.949  34.955  -1.888  0.00  0.00    +0.155 HD
BRANCH  14  15
ATOM     15  C   UNL     1     -24.246  35.950  -1.203  0.00  0.00    +0.037 A 
ATOM     16  C   UNL     1     -25.618  36.314  -0.841  0.00  0.00    +0.013 A 
ATOM     17  C   UNL     1     -25.859  37.327   0.156  0.00  0.00    +0.005 A 
ATOM     18  C   UNL     1     -24.723  37.983   0.799  0.00  0.00    -0.033 A 
ATOM     28  C   UNL     1     -23.372  37.599   0.425  0.00  0.00    +0.005 A 
ATOM     29  C   UNL     1     -23.132  36.608  -0.552  0.00  0.00    +0.013 A 
BRANCH  18  19
ATOM     19  C   UNL     1     -24.887  39.090   1.858  0.00  0.00    +0.119 C 
BRANCH  19  20
ATOM     20  N   UNL     1     -25.796  40.226   1.525  0.00  0.00    -0.302 NA
ATOM     21  C   UNL     1     -25.285  41.041   0.334  0.00  0.00    +0.066 C 
ATOM     22  C   UNL     1     -26.260  42.212  -0.015  0.00  0.00    -0.064 C 
ATOM     23  N   UNL     1     -26.442  43.104   1.214  0.00  0.00    +0.379 N 
ATOM     24  C   UNL     1     -27.313  44.239   0.872  0.00  0.00    -0.096 C 
ATOM     25  H   UNL     1     -25.442  43.515   1.485  0.00  0.00    -0.082 HD
ATOM     26  C   UNL     1     -26.948  42.301   2.404  0.00  0.00    -0.064 C 
ATOM     27  C   UNL     1     -25.987  41.122   2.724  0.00  0.00    +0.066 C 
ENDBRANCH  19  20
ENDBRANCH  18  19
ENDBRANCH  14  15
ENDBRANCH  12  13
TORSDOF 6
ENDMDL
MODEL 5
REMARK VINA RESULT:      -7.7      9.551     14.312
REMARK  Name = C:\Users\Docking\Desktop\test protocol\1iep_ligandH.pdb
REMARK  8 active torsions:
REMARK  status: ('A' for Active; 'I' for Inactive)
REMARK    1  A    between atoms: _5  and  _11
REMARK    2  A    between atoms: _19  and  _21
REMARK    3  A    between atoms: _22  and  _66
REMARK    4  A    between atoms: _27  and  _30
REMARK    5  A    between atoms: _32  and  _33
REMARK    6  A    between atoms: _38  and  _43
REMARK    7  A    between atoms: _43  and  _46
REMARK    8  A    between atoms: _53  and  _55
REMARK                            x       y       z     vdW  Elec       q    Type
REMARK                         _______ _______ _______ _____ _____    ______ ____
ROOT
ATOM     10  C   UNL     1     -20.788  30.786  -3.493  0.00  0.00    +0.038 A 
ATOM     11  C   UNL     1     -21.072  31.932  -2.708  0.00  0.00    +0.047 A 
ATOM     12  C   UNL     1     -21.395  33.208  -3.328  0.00  0.00    +0.035 A 
ATOM     32  C   UNL     1     -21.423  33.280  -4.751  0.00  0.00    +0.024 A 
ATOM     33  C   UNL     1     -21.136  32.124  -5.565  0.00  0.00    +0.007 A 
ATOM     34  C   UNL     1     -20.814  30.864  -4.959  0.00  0.00    -0.029 A 
ATOM     35  C   UNL     1     -20.508  29.661  -5.881  0.00  0.00    +0.045 C 
ENDROOT
BRANCH  10   9
ATOM      4  C   UNL     1     -17.657  27.584  -1.767  0.00  0.00    +0.077 A 
ATOM      5  C   UNL     1     -16.532  28.352  -2.217  0.00  0.00    +0.048 A 
ATOM      6  C   UNL     1     -16.803  29.562  -2.895  0.00  0.00    +0.116 A 
ATOM      7  N   UNL     1     -18.105  29.964  -3.102  0.00  0.00    -0.223 NA
ATOM      8  C   UNL     1     -19.166  29.198  -2.656  0.00  0.00    +0.220 A 
ATOM      9  N   UNL     1     -20.483  29.586  -2.846  0.00  0.00    -0.283 N 
ATOM     36  H   UNL     1     -21.239  28.990  -2.509  0.00  0.00    +0.155 HD
ATOM     37  N   UNL     1     -18.934  28.038  -2.007  0.00  0.00    -0.214 NA
BRANCH   4   3
ATOM      1  C   UNL     1     -16.583  23.967  -0.733  0.00  0.00    +0.020 A 
ATOM      2  C   UNL     1     -16.666  25.202  -1.479  0.00  0.00    +0.013 A 
ATOM      3  C   UNL     1     -17.533  26.285  -1.033  0.00  0.00    +0.019 A 
ATOM     38  C   UNL     1     -18.309  26.086   0.182  0.00  0.00    +0.120 A 
ATOM     39  N   UNL     1     -18.210  24.885   0.879  0.00  0.00    -0.263 NA
ATOM     40  C   UNL     1     -17.380  23.835   0.458  0.00  0.00    +0.111 A 
ENDBRANCH   4   3
ENDBRANCH  10   9
BRANCH  12  13
ATOM     13  N   UNL     1     -21.684  34.407  -2.582  0.00  0.00    -0.281 N 
ATOM     14  C   UNL     1     -22.923  34.969  -2.320  0.00  0.00    +0.248 C 
ATOM     30  O   UNL     1     -23.962  34.639  -2.872  0.00  0.00    -0.270 OA
ATOM     31  H   UNL     1     -20.878  34.902  -2.201  0.00  0.00    +0.155 HD
BRANCH  14  15
ATOM     15  C   UNL     1     -23.019  36.066  -1.309  0.00  0.00    +0.037 A 
ATOM     16  C   UNL     1     -21.879  36.942  -1.028  0.00  0.00    +0.013 A 
ATOM     17  C   UNL     1     -21.993  37.982  -0.036  0.00  0.00    +0.005 A 
ATOM     18  C   UNL     1     -23.254  38.152   0.681  0.00  0.00    -0.033 A 
ATOM     28  C   UNL     1     -24.371  37.273   0.378  0.00  0.00    +0.005 A 
ATOM     29  C   UNL     1     -24.263  36.252  -0.592  0.00  0.00    +0.013 A 
BRANCH  18  19
ATOM     19  C   UNL     1     -23.459  39.221   1.771  0.00  0.00    +0.119 C 
BRANCH  19  20
ATOM     20  N   UNL     1     -22.600  39.130   2.989  0.00  0.00    -0.302 NA
ATOM     21  C   UNL     1     -22.619  37.727   3.602  0.00  0.00    +0.066 C 
ATOM     22  C   UNL     1     -21.697  37.643   4.861  0.00  0.00    -0.064 C 
ATOM     23  N   UNL     1     -22.143  38.688   5.886  0.00  0.00    +0.379 N 
ATOM     24  C   UNL     1     -21.315  38.573   7.095  0.00  0.00    -0.096 C 
ATOM     25  H   UNL     1     -23.194  38.454   6.172  0.00  0.00    -0.082 HD
ATOM     26  C   UNL     1     -22.129  40.086   5.284  0.00  0.00    -0.064 C 
ATOM     27  C   UNL     1     -23.025  40.151   4.016  0.00  0.00    +0.066 C 
ENDBRANCH  19  20
ENDBRANCH  18  19
ENDBRANCH  14  15
ENDBRANCH  12  13
TORSDOF 6
ENDMDL
