MODEL 1
REMARK VINA RESULT:      -9.5      0.000      0.000
REMARK  Name = C:\Users\Docking\Desktop\test protocol\1iep_ligandH.pdb
REMARK  8 active torsions:
REMARK  status: ('A' for Active; 'I' for Inactive)
REMARK    1  A    between atoms: _5  and  _11
REMARK    2  A    between atoms: _19  and  _21
REMARK    3  A    between atoms: _22  and  _66
REMARK    4  A    between atoms: _27  and  _30
REMARK    5  A    between atoms: _32  and  _33
REMARK    6  A    between atoms: _38  and  _43
REMARK    7  A    between atoms: _43  and  _46
REMARK    8  A    between atoms: _53  and  _55
REMARK                            x       y       z     vdW  Elec       q    Type
REMARK                         _______ _______ _______ _____ _____    ______ ____
ROOT
ATOM     10  C   UNL     1      58.691  74.214  17.210  0.00  0.00    +0.038 A 
ATOM     11  C   UNL     1      57.710  73.215  16.987  0.00  0.00    +0.047 A 
ATOM     12  C   UNL     1      56.370  73.563  16.541  0.00  0.00    +0.035 A 
ATOM     32  C   UNL     1      56.064  74.939  16.330  0.00  0.00    +0.024 A 
ATOM     33  C   UNL     1      57.049  75.968  16.553  0.00  0.00    +0.007 A 
ATOM     34  C   UNL     1      58.372  75.631  16.995  0.00  0.00    -0.029 A 
ATOM     35  C   UNL     1      59.386  76.775  17.224  0.00  0.00    +0.045 C 
ENDROOT
BRANCH  10   9
ATOM      4  C   UNL     1      61.619  71.365  19.729  0.00  0.00    +0.077 A 
ATOM      5  C   UNL     1      60.522  70.607  20.259  0.00  0.00    +0.048 A 
ATOM      6  C   UNL     1      59.220  70.987  19.864  0.00  0.00    +0.116 A 
ATOM      7  N   UNL     1      59.040  72.047  19.002  0.00  0.00    -0.223 NA
ATOM      8  C   UNL     1      60.120  72.758  18.511  0.00  0.00    +0.220 A 
ATOM      9  N   UNL     1      59.962  73.823  17.638  0.00  0.00    -0.283 N 
ATOM     36  H   UNL     1      60.783  74.327  17.304  0.00  0.00    +0.155 HD
ATOM     37  N   UNL     1      61.373  72.416  18.874  0.00  0.00    -0.214 NA
BRANCH   4   3
ATOM      1  C   UNL     1      64.866  69.833  21.283  0.00  0.00    +0.020 A 
ATOM      2  C   UNL     1      63.467  70.066  21.009  0.00  0.00    +0.013 A 
ATOM      3  C   UNL     1      63.054  71.083  20.050  0.00  0.00    +0.019 A 
ATOM     38  C   UNL     1      64.091  71.852  19.379  0.00  0.00    +0.120 A 
ATOM     39  N   UNL     1      65.431  71.607  19.663  0.00  0.00    -0.263 NA
ATOM     40  C   UNL     1      65.839  70.632  20.586  0.00  0.00    +0.111 A 
ENDBRANCH   4   3
ENDBRANCH  10   9
BRANCH  12  13
ATOM     13  N   UNL     1      55.329  72.593  16.306  0.00  0.00    -0.281 N 
ATOM     14  C   UNL     1      54.427  72.073  17.220  0.00  0.00    +0.248 C 
ATOM     30  O   UNL     1      54.517  72.205  18.431  0.00  0.00    -0.270 OA
ATOM     31  H   UNL     1      55.248  72.248  15.349  0.00  0.00    +0.155 HD
BRANCH  14  15
ATOM     15  C   UNL     1      53.266  71.279  16.716  0.00  0.00    +0.037 A 
ATOM     16  C   UNL     1      53.118  70.968  15.292  0.00  0.00    +0.013 A 
ATOM     17  C   UNL     1      51.979  70.215  14.830  0.00  0.00    +0.005 A 
ATOM     18  C   UNL     1      50.978  69.766  15.795  0.00  0.00    -0.033 A 
ATOM     28  C   UNL     1      51.152  70.084  17.203  0.00  0.00    +0.005 A 
ATOM     29  C   UNL     1      52.267  70.822  17.659  0.00  0.00    +0.013 A 
BRANCH  18  19
ATOM     19  C   UNL     1      49.720  68.975  15.389  0.00  0.00    +0.119 C 
BRANCH  19  20
ATOM     20  N   UNL     1      48.508  69.133  16.246  0.00  0.00    -0.302 NA
ATOM     21  C   UNL     1      48.204  67.866  17.050  0.00  0.00    +0.066 C 
ATOM     22  C   UNL     1      46.946  68.056  17.958  0.00  0.00    -0.064 C 
ATOM     23  N   UNL     1      45.748  68.446  17.090  0.00  0.00    +0.379 N 
ATOM     24  C   UNL     1      44.550  68.569  17.934  0.00  0.00    -0.096 C 
ATOM     25  H   UNL     1      45.570  67.616  16.368  0.00  0.00    -0.082 HD
ATOM     26  C   UNL     1      46.042  69.704  16.285  0.00  0.00    -0.064 C 
ATOM     27  C   UNL     1      47.312  69.514  15.408  0.00  0.00    +0.066 C 
ENDBRANCH  19  20
ENDBRANCH  18  19
ENDBRANCH  14  15
ENDBRANCH  12  13
TORSDOF 6
ENDMDL
MODEL 2
REMARK VINA RESULT:      -9.4     16.194     18.710
REMARK  Name = C:\Users\Docking\Desktop\test protocol\1iep_ligandH.pdb
REMARK  8 active torsions:
REMARK  status: ('A' for Active; 'I' for Inactive)
REMARK    1  A    between atoms: _5  and  _11
REMARK    2  A    between atoms: _19  and  _21
REMARK    3  A    between atoms: _22  and  _66
REMARK    4  A    between atoms: _27  and  _30
REMARK    5  A    between atoms: _32  and  _33
REMARK    6  A    between atoms: _38  and  _43
REMARK    7  A    between atoms: _43  and  _46
REMARK    8  A    between atoms: _53  and  _55
REMARK                            x       y       z     vdW  Elec       q    Type
REMARK                         _______ _______ _______ _____ _____    ______ ____
ROOT
ATOM     10  C   UNL     1      63.739  58.667  24.857  0.00  0.00    +0.038 A 
ATOM     11  C   UNL     1      62.785  57.637  24.654  0.00  0.00    +0.047 A 
ATOM     12  C   UNL     1      61.573  57.875  23.886  0.00  0.00    +0.035 A 
ATOM     32  C   UNL     1      61.367  59.173  23.335  0.00  0.00    +0.024 A 
ATOM     33  C   UNL     1      62.326  60.231  23.531  0.00  0.00    +0.007 A 
ATOM     34  C   UNL     1      63.522  60.003  24.291  0.00  0.00    -0.029 A 
ATOM     35  C   UNL     1      64.512  61.177  24.475  0.00  0.00    +0.045 C 
ENDROOT
BRANCH  10   9
ATOM      4  C   UNL     1      67.564  55.950  25.873  0.00  0.00    +0.077 A 
ATOM      5  C   UNL     1      67.236  55.002  24.848  0.00  0.00    +0.048 A 
ATOM      6  C   UNL     1      66.072  55.245  24.086  0.00  0.00    +0.116 A 
ATOM      7  N   UNL     1      65.300  56.359  24.339  0.00  0.00    -0.223 NA
ATOM      8  C   UNL     1      65.643  57.253  25.336  0.00  0.00    +0.220 A 
ATOM      9  N   UNL     1      64.885  58.383  25.603  0.00  0.00    -0.283 N 
ATOM     36  H   UNL     1      65.168  59.014  26.352  0.00  0.00    +0.155 HD
ATOM     37  N   UNL     1      66.749  57.041  26.079  0.00  0.00    -0.214 NA
BRANCH   4   3
ATOM      1  C   UNL     1      70.571  54.501  27.912  0.00  0.00    +0.020 A 
ATOM      2  C   UNL     1      69.414  54.560  27.049  0.00  0.00    +0.013 A 
ATOM      3  C   UNL     1      68.764  55.832  26.760  0.00  0.00    +0.019 A 
ATOM     38  C   UNL     1      69.316  57.036  27.363  0.00  0.00    +0.120 A 
ATOM     39  N   UNL     1      70.431  56.949  28.191  0.00  0.00    -0.263 NA
ATOM     40  C   UNL     1      71.063  55.730  28.478  0.00  0.00    +0.111 A 
ENDBRANCH   4   3
ENDBRANCH  10   9
BRANCH  12  13
ATOM     13  N   UNL     1      60.565  56.871  23.654  0.00  0.00    -0.281 N 
ATOM     14  C   UNL     1      60.738  55.588  23.160  0.00  0.00    +0.248 C 
ATOM     30  O   UNL     1      61.765  55.181  22.639  0.00  0.00    -0.270 OA
ATOM     31  H   UNL     1      59.607  57.138  23.882  0.00  0.00    +0.155 HD
BRANCH  14  15
ATOM     15  C   UNL     1      59.600  54.622  23.244  0.00  0.00    +0.037 A 
ATOM     16  C   UNL     1      59.823  53.212  23.573  0.00  0.00    +0.013 A 
ATOM     17  C   UNL     1      58.710  52.298  23.631  0.00  0.00    +0.005 A 
ATOM     18  C   UNL     1      57.362  52.793  23.361  0.00  0.00    -0.033 A 
ATOM     28  C   UNL     1      57.169  54.198  23.042  0.00  0.00    +0.005 A 
ATOM     29  C   UNL     1      58.258  55.096  22.983  0.00  0.00    +0.013 A 
BRANCH  18  19
ATOM     19  C   UNL     1      56.118  51.885  23.379  0.00  0.00    +0.119 C 
BRANCH  19  20
ATOM     20  N   UNL     1      55.634  51.362  22.067  0.00  0.00    -0.302 NA
ATOM     21  C   UNL     1      56.434  50.141  21.605  0.00  0.00    +0.066 C 
ATOM     22  C   UNL     1      55.900  49.593  20.242  0.00  0.00    -0.064 C 
ATOM     23  N   UNL     1      55.952  50.704  19.192  0.00  0.00    +0.379 N 
ATOM     24  C   UNL     1      55.505  50.176  17.895  0.00  0.00    -0.096 C 
ATOM     25  H   UNL     1      57.018  51.015  19.082  0.00  0.00    -0.082 HD
ATOM     26  C   UNL     1      55.161  51.923  19.645  0.00  0.00    -0.064 C 
ATOM     27  C   UNL     1      55.681  52.442  21.015  0.00  0.00    +0.066 C 
ENDBRANCH  19  20
ENDBRANCH  18  19
ENDBRANCH  14  15
ENDBRANCH  12  13
TORSDOF 6
ENDMDL
MODEL 3
REMARK VINA RESULT:      -9.2     18.657     23.516
REMARK  Name = C:\Users\Docking\Desktop\test protocol\1iep_ligandH.pdb
REMARK  8 active torsions:
REMARK  status: ('A' for Active; 'I' for Inactive)
REMARK    1  A    between atoms: _5  and  _11
REMARK    2  A    between atoms: _19  and  _21
REMARK    3  A    between atoms: _22  and  _66
REMARK    4  A    between atoms: _27  and  _30
REMARK    5  A    between atoms: _32  and  _33
REMARK    6  A    between atoms: _38  and  _43
REMARK    7  A    between atoms: _43  and  _46
REMARK    8  A    between atoms: _53  and  _55
REMARK                            x       y       z     vdW  Elec       q    Type
REMARK                         _______ _______ _______ _____ _____    ______ ____
ROOT
ATOM     10  C   UNL     1      72.742  55.347  26.702  0.00  0.00    +0.038 A 
ATOM     11  C   UNL     1      71.468  55.145  26.113  0.00  0.00    +0.047 A 
ATOM     12  C   UNL     1      70.576  56.264  25.847  0.00  0.00    +0.035 A 
ATOM     32  C   UNL     1      71.017  57.575  26.191  0.00  0.00    +0.024 A 
ATOM     33  C   UNL     1      72.309  57.798  26.791  0.00  0.00    +0.007 A 
ATOM     34  C   UNL     1      73.191  56.698  27.058  0.00  0.00    -0.029 A 
ATOM     35  C   UNL     1      74.562  56.995  27.709  0.00  0.00    +0.045 C 
ENDROOT
BRANCH  10   9
ATOM      4  C   UNL     1      74.046  51.523  29.293  0.00  0.00    +0.077 A 
ATOM      5  C   UNL     1      73.036  51.773  30.280  0.00  0.00    +0.048 A 
ATOM      6  C   UNL     1      72.206  52.900  30.088  0.00  0.00    +0.116 A 
ATOM      7  N   UNL     1      72.382  53.710  28.986  0.00  0.00    -0.223 NA
ATOM      8  C   UNL     1      73.367  53.441  28.054  0.00  0.00    +0.220 A 
ATOM      9  N   UNL     1      73.557  54.237  26.935  0.00  0.00    -0.283 N 
ATOM     36  H   UNL     1      74.300  54.009  26.275  0.00  0.00    +0.155 HD
ATOM     37  N   UNL     1      74.174  52.371  28.216  0.00  0.00    -0.214 NA
BRANCH   4   3
ATOM      1  C   UNL     1      76.087  48.430  30.546  0.00  0.00    +0.020 A 
ATOM      2  C   UNL     1      75.153  49.532  30.538  0.00  0.00    +0.013 A 
ATOM      3  C   UNL     1      74.999  50.370  29.355  0.00  0.00    +0.019 A 
ATOM     38  C   UNL     1      75.811  50.062  28.187  0.00  0.00    +0.120 A 
ATOM     39  N   UNL     1      76.703  48.996  28.224  0.00  0.00    -0.263 NA
ATOM     40  C   UNL     1      76.861  48.184  29.357  0.00  0.00    +0.111 A 
ENDBRANCH   4   3
ENDBRANCH  10   9
BRANCH  12  13
ATOM     13  N   UNL     1      69.268  56.120  25.259  0.00  0.00    -0.281 N 
ATOM     14  C   UNL     1      68.037  56.192  25.891  0.00  0.00    +0.248 C 
ATOM     30  O   UNL     1      67.881  56.180  27.103  0.00  0.00    -0.270 OA
ATOM     31  H   UNL     1      69.246  55.943  24.255  0.00  0.00    +0.155 HD
BRANCH  14  15
ATOM     15  C   UNL     1      66.800  56.276  25.057  0.00  0.00    +0.037 A 
ATOM     16  C   UNL     1      66.412  55.183  24.162  0.00  0.00    +0.013 A 
ATOM     17  C   UNL     1      65.223  55.297  23.355  0.00  0.00    +0.005 A 
ATOM     18  C   UNL     1      64.413  56.509  23.440  0.00  0.00    -0.033 A 
ATOM     28  C   UNL     1      64.819  57.577  24.340  0.00  0.00    +0.005 A 
ATOM     29  C   UNL     1      65.984  57.469  25.132  0.00  0.00    +0.013 A 
BRANCH  18  19
ATOM     19  C   UNL     1      63.140  56.726  22.600  0.00  0.00    +0.119 C 
BRANCH  19  20
ATOM     20  N   UNL     1      61.876  56.111  23.104  0.00  0.00    -0.302 NA
ATOM     21  C   UNL     1      61.741  54.645  22.681  0.00  0.00    +0.066 C 
ATOM     22  C   UNL     1      60.424  54.011  23.235  0.00  0.00    -0.064 C 
ATOM     23  N   UNL     1      59.225  54.828  22.749  0.00  0.00    +0.379 N 
ATOM     24  C   UNL     1      57.981  54.201  23.221  0.00  0.00    -0.096 C 
ATOM     25  H   UNL     1      59.221  54.792  21.635  0.00  0.00    -0.082 HD
ATOM     26  C   UNL     1      59.352  56.287  23.164  0.00  0.00    -0.064 C 
ATOM     27  C   UNL     1      60.678  56.899  22.633  0.00  0.00    +0.066 C 
ENDBRANCH  19  20
ENDBRANCH  18  19
ENDBRANCH  14  15
ENDBRANCH  12  13
TORSDOF 6
ENDMDL
MODEL 4
REMARK VINA RESULT:      -9.2     16.580     24.352
REMARK  Name = C:\Users\Docking\Desktop\test protocol\1iep_ligandH.pdb
REMARK  8 active torsions:
REMARK  status: ('A' for Active; 'I' for Inactive)
REMARK    1  A    between atoms: _5  and  _11
REMARK    2  A    between atoms: _19  and  _21
REMARK    3  A    between atoms: _22  and  _66
REMARK    4  A    between atoms: _27  and  _30
REMARK    5  A    between atoms: _32  and  _33
REMARK    6  A    between atoms: _38  and  _43
REMARK    7  A    between atoms: _43  and  _46
REMARK    8  A    between atoms: _53  and  _55
REMARK                            x       y       z     vdW  Elec       q    Type
REMARK                         _______ _______ _______ _____ _____    ______ ____
ROOT
ATOM     10  C   UNL     1      64.749  57.042  27.230  0.00  0.00    +0.038 A 
ATOM     11  C   UNL     1      66.124  56.706  27.147  0.00  0.00    +0.047 A 
ATOM     12  C   UNL     1      66.594  55.372  27.485  0.00  0.00    +0.035 A 
ATOM     32  C   UNL     1      65.636  54.403  27.902  0.00  0.00    +0.024 A 
ATOM     33  C   UNL     1      64.234  54.728  27.993  0.00  0.00    +0.007 A 
ATOM     34  C   UNL     1      63.764  56.043  27.663  0.00  0.00    -0.029 A 
ATOM     35  C   UNL     1      62.251  56.337  27.785  0.00  0.00    +0.045 C 
ENDROOT
BRANCH  10   9
ATOM      4  C   UNL     1      62.951  60.252  24.147  0.00  0.00    +0.077 A 
ATOM      5  C   UNL     1      62.815  59.269  23.111  0.00  0.00    +0.048 A 
ATOM      6  C   UNL     1      63.225  57.950  23.410  0.00  0.00    +0.116 A 
ATOM      7  N   UNL     1      63.733  57.649  24.655  0.00  0.00    -0.223 NA
ATOM      8  C   UNL     1      63.852  58.621  25.631  0.00  0.00    +0.220 A 
ATOM      9  N   UNL     1      64.352  58.338  26.893  0.00  0.00    -0.283 N 
ATOM     36  H   UNL     1      64.431  59.085  27.583  0.00  0.00    +0.155 HD
ATOM     37  N   UNL     1      63.468  59.888  25.370  0.00  0.00    -0.214 NA
BRANCH   4   3
ATOM      1  C   UNL     1      61.678  63.878  24.874  0.00  0.00    +0.020 A 
ATOM      2  C   UNL     1      62.042  62.496  25.083  0.00  0.00    +0.013 A 
ATOM      3  C   UNL     1      62.558  61.687  23.985  0.00  0.00    +0.019 A 
ATOM     38  C   UNL     1      62.693  62.312  22.678  0.00  0.00    +0.120 A 
ATOM     39  N   UNL     1      62.332  63.645  22.507  0.00  0.00    -0.263 NA
ATOM     40  C   UNL     1      61.834  64.433  23.555  0.00  0.00    +0.111 A 
ENDBRANCH   4   3
ENDBRANCH  10   9
BRANCH  12  13
ATOM     13  N   UNL     1      67.979  54.975  27.427  0.00  0.00    -0.281 N 
ATOM     14  C   UNL     1      68.766  54.788  26.302  0.00  0.00    +0.248 C 
ATOM     30  O   UNL     1      68.334  54.726  25.160  0.00  0.00    -0.270 OA
ATOM     31  H   UNL     1      68.436  54.812  28.325  0.00  0.00    +0.155 HD
BRANCH  14  15
ATOM     15  C   UNL     1      70.242  54.632  26.471  0.00  0.00    +0.037 A 
ATOM     16  C   UNL     1      70.825  54.264  27.764  0.00  0.00    +0.013 A 
ATOM     17  C   UNL     1      72.254  54.137  27.903  0.00  0.00    +0.005 A 
ATOM     18  C   UNL     1      73.111  54.378  26.745  0.00  0.00    -0.033 A 
ATOM     28  C   UNL     1      72.506  54.737  25.473  0.00  0.00    +0.005 A 
ATOM     29  C   UNL     1      71.106  54.863  25.333  0.00  0.00    +0.013 A 
BRANCH  18  19
ATOM     19  C   UNL     1      74.647  54.286  26.807  0.00  0.00    +0.119 C 
BRANCH  19  20
ATOM     20  N   UNL     1      75.278  53.032  26.300  0.00  0.00    -0.302 NA
ATOM     21  C   UNL     1      75.933  52.223  27.424  0.00  0.00    +0.066 C 
ATOM     22  C   UNL     1      76.568  50.902  26.880  0.00  0.00    -0.064 C 
ATOM     23  N   UNL     1      77.589  51.242  25.792  0.00  0.00    +0.379 N 
ATOM     24  C   UNL     1      78.230  50.007  25.318  0.00  0.00    -0.096 C 
ATOM     25  H   UNL     1      78.379  51.877  26.256  0.00  0.00    -0.082 HD
ATOM     26  C   UNL     1      76.947  52.048  24.672  0.00  0.00    -0.064 C 
ATOM     27  C   UNL     1      76.293  53.344  25.228  0.00  0.00    +0.066 C 
ENDBRANCH  19  20
ENDBRANCH  18  19
ENDBRANCH  14  15
ENDBRANCH  12  13
TORSDOF 6
ENDMDL
MODEL 5
REMARK VINA RESULT:      -9.1     17.349     24.332
REMARK  Name = C:\Users\Docking\Desktop\test protocol\1iep_ligandH.pdb
REMARK  8 active torsions:
REMARK  status: ('A' for Active; 'I' for Inactive)
REMARK    1  A    between atoms: _5  and  _11
REMARK    2  A    between atoms: _19  and  _21
REMARK    3  A    between atoms: _22  and  _66
REMARK    4  A    between atoms: _27  and  _30
REMARK    5  A    between atoms: _32  and  _33
REMARK    6  A    between atoms: _38  and  _43
REMARK    7  A    between atoms: _43  and  _46
REMARK    8  A    between atoms: _53  and  _55
REMARK                            x       y       z     vdW  Elec       q    Type
REMARK                         _______ _______ _______ _____ _____    ______ ____
ROOT
ATOM     10  C   UNL     1      63.548  57.996  25.296  0.00  0.00    +0.038 A 
ATOM     11  C   UNL     1      64.584  57.314  25.984  0.00  0.00    +0.047 A 
ATOM     12  C   UNL     1      65.892  57.923  26.169  0.00  0.00    +0.035 A 
ATOM     32  C   UNL     1      66.109  59.230  25.643  0.00  0.00    +0.024 A 
ATOM     33  C   UNL     1      65.068  59.937  24.940  0.00  0.00    +0.007 A 
ATOM     34  C   UNL     1      63.776  59.340  24.753  0.00  0.00    -0.029 A 
ATOM     35  C   UNL     1      62.699  60.142  23.986  0.00  0.00    +0.045 C 
ENDROOT
BRANCH  10   9
ATOM      4  C   UNL     1      60.716  54.639  23.360  0.00  0.00    +0.077 A 
ATOM      5  C   UNL     1      61.784  54.118  22.556  0.00  0.00    +0.048 A 
ATOM      6  C   UNL     1      63.045  54.746  22.666  0.00  0.00    +0.116 A 
ATOM      7  N   UNL     1      63.214  55.816  23.518  0.00  0.00    -0.223 NA
ATOM      8  C   UNL     1      62.162  56.295  24.278  0.00  0.00    +0.220 A 
ATOM      9  N   UNL     1      62.312  57.364  25.148  0.00  0.00    -0.283 N 
ATOM     36  H   UNL     1      61.510  57.693  25.685  0.00  0.00    +0.155 HD
ATOM     37  N   UNL     1      60.948  55.713  24.190  0.00  0.00    -0.214 NA
BRANCH   4   3
ATOM      1  C   UNL     1      57.670  52.209  23.691  0.00  0.00    +0.020 A 
ATOM      2  C   UNL     1      59.029  52.698  23.709  0.00  0.00    +0.013 A 
ATOM      3  C   UNL     1      59.327  54.081  23.358  0.00  0.00    +0.019 A 
ATOM     38  C   UNL     1      58.219  54.949  22.991  0.00  0.00    +0.120 A 
ATOM     39  N   UNL     1      56.920  54.450  22.982  0.00  0.00    -0.263 NA
ATOM     40  C   UNL     1      56.621  53.120  23.316  0.00  0.00    +0.111 A 
ENDBRANCH   4   3
ENDBRANCH  10   9
BRANCH  12  13
ATOM     13  N   UNL     1      66.985  57.276  26.852  0.00  0.00    -0.281 N 
ATOM     14  C   UNL     1      67.743  56.201  26.418  0.00  0.00    +0.248 C 
ATOM     30  O   UNL     1      67.456  55.493  25.464  0.00  0.00    -0.270 OA
ATOM     31  H   UNL     1      67.230  57.657  27.766  0.00  0.00    +0.155 HD
BRANCH  14  15
ATOM     15  C   UNL     1      68.994  55.853  27.158  0.00  0.00    +0.037 A 
ATOM     16  C   UNL     1      69.809  56.887  27.801  0.00  0.00    +0.013 A 
ATOM     17  C   UNL     1      71.020  56.527  28.494  0.00  0.00    +0.005 A 
ATOM     18  C   UNL     1      71.422  55.123  28.551  0.00  0.00    -0.033 A 
ATOM     28  C   UNL     1      70.592  54.117  27.909  0.00  0.00    +0.005 A 
ATOM     29  C   UNL     1      69.405  54.467  27.227  0.00  0.00    +0.013 A 
BRANCH  18  19
ATOM     19  C   UNL     1      72.710  54.650  29.251  0.00  0.00    +0.119 C 
BRANCH  19  20
ATOM     20  N   UNL     1      73.139  53.240  29.011  0.00  0.00    -0.302 NA
ATOM     21  C   UNL     1      73.395  52.486  30.319  0.00  0.00    +0.066 C 
ATOM     22  C   UNL     1      73.822  51.007  30.050  0.00  0.00    -0.064 C 
ATOM     23  N   UNL     1      75.068  50.991  29.164  0.00  0.00    +0.379 N 
ATOM     24  C   UNL     1      75.506  49.603  28.957  0.00  0.00    -0.096 C 
ATOM     25  H   UNL     1      75.880  51.524  29.713  0.00  0.00    -0.082 HD
ATOM     26  C   UNL     1      74.824  51.741  27.862  0.00  0.00    -0.064 C 
ATOM     27  C   UNL     1      74.372  53.201  28.141  0.00  0.00    +0.066 C 
ENDBRANCH  19  20
ENDBRANCH  18  19
ENDBRANCH  14  15
ENDBRANCH  12  13
TORSDOF 6
ENDMDL
