MODEL 1
REMARK VINA RESULT:     -11.6      0.000      0.000
REMARK  Name = C:\Users\Docking\Desktop\test protocol\1iep_ligandH.pdb
REMARK  8 active torsions:
REMARK  status: ('A' for Active; 'I' for Inactive)
REMARK    1  A    between atoms: _5  and  _11
REMARK    2  A    between atoms: _19  and  _21
REMARK    3  A    between atoms: _22  and  _66
REMARK    4  A    between atoms: _27  and  _30
REMARK    5  A    between atoms: _32  and  _33
REMARK    6  A    between atoms: _38  and  _43
REMARK    7  A    between atoms: _43  and  _46
REMARK    8  A    between atoms: _53  and  _55
REMARK                            x       y       z     vdW  Elec       q    Type
REMARK                         _______ _______ _______ _____ _____    ______ ____
ROOT
ATOM     10  C   UNL     1      26.912  27.595   3.598  0.00  0.00    +0.038 A 
ATOM     11  C   UNL     1      27.652  27.752   4.798  0.00  0.00    +0.047 A 
ATOM     12  C   UNL     1      26.983  27.952   6.074  0.00  0.00    +0.035 A 
ATOM     32  C   UNL     1      25.558  27.986   6.091  0.00  0.00    +0.024 A 
ATOM     33  C   UNL     1      24.790  27.831   4.881  0.00  0.00    +0.007 A 
ATOM     34  C   UNL     1      25.444  27.635   3.619  0.00  0.00    -0.029 A 
ATOM     35  C   UNL     1      24.571  27.480   2.353  0.00  0.00    +0.045 C 
ENDROOT
BRANCH  10   9
ATOM      4  C   UNL     1      29.302  29.256  -0.219  0.00  0.00    +0.077 A 
ATOM      5  C   UNL     1      29.131  30.619   0.193  0.00  0.00    +0.048 A 
ATOM      6  C   UNL     1      28.416  30.851   1.390  0.00  0.00    +0.116 A 
ATOM      7  N   UNL     1      27.914  29.790   2.112  0.00  0.00    -0.223 NA
ATOM      8  C   UNL     1      28.095  28.487   1.686  0.00  0.00    +0.220 A 
ATOM      9  N   UNL     1      27.605  27.405   2.401  0.00  0.00    -0.283 N 
ATOM     36  H   UNL     1      27.754  26.460   2.049  0.00  0.00    +0.155 HD
ATOM     37  N   UNL     1      28.773  28.240   0.546  0.00  0.00    -0.214 NA
BRANCH   4   3
ATOM      1  C   UNL     1      31.510  27.276  -2.770  0.00  0.00    +0.020 A 
ATOM      2  C   UNL     1      30.819  27.623  -1.549  0.00  0.00    +0.013 A 
ATOM      3  C   UNL     1      30.037  28.850  -1.458  0.00  0.00    +0.019 A 
ATOM     38  C   UNL     1      29.974  29.711  -2.629  0.00  0.00    +0.120 A 
ATOM     39  N   UNL     1      30.651  29.352  -3.791  0.00  0.00    -0.263 NA
ATOM     40  C   UNL     1      31.407  28.175  -3.890  0.00  0.00    +0.111 A 
ENDBRANCH   4   3
ENDBRANCH  10   9
BRANCH  12  13
ATOM     13  N   UNL     1      27.681  28.125   7.323  0.00  0.00    -0.281 N 
ATOM     14  C   UNL     1      27.627  29.207   8.187  0.00  0.00    +0.248 C 
ATOM     30  O   UNL     1      27.131  30.288   7.909  0.00  0.00    -0.270 OA
ATOM     31  H   UNL     1      28.290  27.356   7.605  0.00  0.00    +0.155 HD
BRANCH  14  15
ATOM     15  C   UNL     1      28.223  29.072   9.551  0.00  0.00    +0.037 A 
ATOM     16  C   UNL     1      29.618  29.440   9.810  0.00  0.00    +0.013 A 
ATOM     17  C   UNL     1      30.173  29.284  11.131  0.00  0.00    +0.005 A 
ATOM     18  C   UNL     1      29.332  28.759  12.204  0.00  0.00    -0.033 A 
ATOM     28  C   UNL     1      27.950  28.407  11.920  0.00  0.00    +0.005 A 
ATOM     29  C   UNL     1      27.403  28.557  10.626  0.00  0.00    +0.013 A 
BRANCH  18  19
ATOM     19  C   UNL     1      29.846  28.540  13.639  0.00  0.00    +0.119 C 
BRANCH  19  20
ATOM     20  N   UNL     1      30.459  27.214  13.951  0.00  0.00    -0.302 NA
ATOM     21  C   UNL     1      29.559  26.051  13.526  0.00  0.00    +0.066 C 
ATOM     22  C   UNL     1      30.225  24.671  13.838  0.00  0.00    -0.064 C 
ATOM     23  N   UNL     1      30.546  24.590  15.332  0.00  0.00    +0.379 N 
ATOM     24  C   UNL     1      31.120  23.272  15.639  0.00  0.00    -0.096 C 
ATOM     25  H   UNL     1      29.585  24.679  15.889  0.00  0.00    -0.082 HD
ATOM     26  C   UNL     1      31.439  25.745  15.763  0.00  0.00    -0.064 C 
ATOM     27  C   UNL     1      30.781  27.110  15.421  0.00  0.00    +0.066 C 
ENDBRANCH  19  20
ENDBRANCH  18  19
ENDBRANCH  14  15
ENDBRANCH  12  13
TORSDOF 6
ENDMDL
MODEL 2
REMARK VINA RESULT:     -11.4      2.222     13.004
REMARK  Name = C:\Users\Docking\Desktop\test protocol\1iep_ligandH.pdb
REMARK  8 active torsions:
REMARK  status: ('A' for Active; 'I' for Inactive)
REMARK    1  A    between atoms: _5  and  _11
REMARK    2  A    between atoms: _19  and  _21
REMARK    3  A    between atoms: _22  and  _66
REMARK    4  A    between atoms: _27  and  _30
REMARK    5  A    between atoms: _32  and  _33
REMARK    6  A    between atoms: _38  and  _43
REMARK    7  A    between atoms: _43  and  _46
REMARK    8  A    between atoms: _53  and  _55
REMARK                            x       y       z     vdW  Elec       q    Type
REMARK                         _______ _______ _______ _____ _____    ______ ____
ROOT
ATOM     10  C   UNL     1      26.574  27.752   8.626  0.00  0.00    +0.038 A 
ATOM     11  C   UNL     1      27.275  27.929   7.406  0.00  0.00    +0.047 A 
ATOM     12  C   UNL     1      26.651  28.584   6.267  0.00  0.00    +0.035 A 
ATOM     32  C   UNL     1      25.310  29.048   6.406  0.00  0.00    +0.024 A 
ATOM     33  C   UNL     1      24.582  28.874   7.638  0.00  0.00    +0.007 A 
ATOM     34  C   UNL     1      25.192  28.227   8.764  0.00  0.00    -0.029 A 
ATOM     35  C   UNL     1      24.361  28.063  10.058  0.00  0.00    +0.045 C 
ENDROOT
BRANCH  10   9
ATOM      4  C   UNL     1      29.321  27.826  12.561  0.00  0.00    +0.077 A 
ATOM      5  C   UNL     1      29.502  29.247  12.479  0.00  0.00    +0.048 A 
ATOM      6  C   UNL     1      28.878  29.920  11.406  0.00  0.00    +0.116 A 
ATOM      7  N   UNL     1      28.130  29.215  10.488  0.00  0.00    -0.223 NA
ATOM      8  C   UNL     1      27.976  27.845  10.595  0.00  0.00    +0.220 A 
ATOM      9  N   UNL     1      27.222  27.117   9.688  0.00  0.00    -0.283 N 
ATOM     36  H   UNL     1      27.139  26.106   9.797  0.00  0.00    +0.155 HD
ATOM     37  N   UNL     1      28.564  27.179  11.610  0.00  0.00    -0.214 NA
BRANCH   4   3
ATOM      1  C   UNL     1      31.761  26.369  15.249  0.00  0.00    +0.020 A 
ATOM      2  C   UNL     1      31.234  27.222  14.208  0.00  0.00    +0.013 A 
ATOM      3  C   UNL     1      29.915  26.975  13.640  0.00  0.00    +0.019 A 
ATOM     38  C   UNL     1      29.149  25.848  14.151  0.00  0.00    +0.120 A 
ATOM     39  N   UNL     1      29.683  25.043  15.152  0.00  0.00    -0.263 NA
ATOM     40  C   UNL     1      30.952  25.271  15.706  0.00  0.00    +0.111 A 
ENDBRANCH   4   3
ENDBRANCH  10   9
BRANCH  12  13
ATOM     13  N   UNL     1      27.311  28.785   5.001  0.00  0.00    -0.281 N 
ATOM     14  C   UNL     1      26.966  28.258   3.768  0.00  0.00    +0.248 C 
ATOM     30  O   UNL     1      26.158  27.357   3.603  0.00  0.00    -0.270 OA
ATOM     31  H   UNL     1      28.133  29.390   5.017  0.00  0.00    +0.155 HD
BRANCH  14  15
ATOM     15  C   UNL     1      27.626  28.800   2.541  0.00  0.00    +0.037 A 
ATOM     16  C   UNL     1      28.081  27.913   1.467  0.00  0.00    +0.013 A 
ATOM     17  C   UNL     1      28.729  28.461   0.302  0.00  0.00    +0.005 A 
ATOM     18  C   UNL     1      28.925  29.906   0.204  0.00  0.00    -0.033 A 
ATOM     28  C   UNL     1      28.458  30.763   1.281  0.00  0.00    +0.005 A 
ATOM     29  C   UNL     1      27.823  30.229   2.425  0.00  0.00    +0.013 A 
BRANCH  18  19
ATOM     19  C   UNL     1      29.625  30.576  -0.992  0.00  0.00    +0.119 C 
BRANCH  19  20
ATOM     20  N   UNL     1      28.798  30.844  -2.207  0.00  0.00    -0.302 NA
ATOM     21  C   UNL     1      27.315  30.548  -1.968  0.00  0.00    +0.066 C 
ATOM     22  C   UNL     1      26.461  30.855  -3.241  0.00  0.00    -0.064 C 
ATOM     23  N   UNL     1      26.994  30.037  -4.419  0.00  0.00    +0.379 N 
ATOM     24  C   UNL     1      26.157  30.279  -5.603  0.00  0.00    -0.096 C 
ATOM     25  H   UNL     1      26.898  28.959  -4.152  0.00  0.00    -0.082 HD
ATOM     26  C   UNL     1      28.469  30.323  -4.661  0.00  0.00    -0.064 C 
ATOM     27  C   UNL     1      29.304  30.042  -3.381  0.00  0.00    +0.066 C 
ENDBRANCH  19  20
ENDBRANCH  18  19
ENDBRANCH  14  15
ENDBRANCH  12  13
TORSDOF 6
ENDMDL
MODEL 3
REMARK VINA RESULT:     -11.3      1.975     12.582
REMARK  Name = C:\Users\Docking\Desktop\test protocol\1iep_ligandH.pdb
REMARK  8 active torsions:
REMARK  status: ('A' for Active; 'I' for Inactive)
REMARK    1  A    between atoms: _5  and  _11
REMARK    2  A    between atoms: _19  and  _21
REMARK    3  A    between atoms: _22  and  _66
REMARK    4  A    between atoms: _27  and  _30
REMARK    5  A    between atoms: _32  and  _33
REMARK    6  A    between atoms: _38  and  _43
REMARK    7  A    between atoms: _43  and  _46
REMARK    8  A    between atoms: _53  and  _55
REMARK                            x       y       z     vdW  Elec       q    Type
REMARK                         _______ _______ _______ _____ _____    ______ ____
ROOT
ATOM     10  C   UNL     1      26.615  27.730   8.640  0.00  0.00    +0.038 A 
ATOM     11  C   UNL     1      27.312  27.889   7.416  0.00  0.00    +0.047 A 
ATOM     12  C   UNL     1      26.681  28.519   6.266  0.00  0.00    +0.035 A 
ATOM     32  C   UNL     1      25.338  28.977   6.400  0.00  0.00    +0.024 A 
ATOM     33  C   UNL     1      24.613  28.822   7.637  0.00  0.00    +0.007 A 
ATOM     34  C   UNL     1      25.231  28.200   8.774  0.00  0.00    -0.029 A 
ATOM     35  C   UNL     1      24.404  28.055  10.073  0.00  0.00    +0.045 C 
ENDROOT
BRANCH  10   9
ATOM      4  C   UNL     1      29.368  27.895  12.568  0.00  0.00    +0.077 A 
ATOM      5  C   UNL     1      29.538  29.316  12.462  0.00  0.00    +0.048 A 
ATOM      6  C   UNL     1      28.906  29.965  11.377  0.00  0.00    +0.116 A 
ATOM      7  N   UNL     1      28.162  29.238  10.473  0.00  0.00    -0.223 NA
ATOM      8  C   UNL     1      28.020  27.869  10.605  0.00  0.00    +0.220 A 
ATOM      9  N   UNL     1      27.270  27.119   9.712  0.00  0.00    -0.283 N 
ATOM     36  H   UNL     1      27.195  26.110   9.839  0.00  0.00    +0.155 HD
ATOM     37  N   UNL     1      28.615  27.225  11.630  0.00  0.00    -0.214 NA
BRANCH   4   3
ATOM      1  C   UNL     1      31.837  26.486  15.256  0.00  0.00    +0.020 A 
ATOM      2  C   UNL     1      31.302  27.316  14.200  0.00  0.00    +0.013 A 
ATOM      3  C   UNL     1      29.971  27.067  13.661  0.00  0.00    +0.019 A 
ATOM     38  C   UNL     1      29.201  25.964  14.215  0.00  0.00    +0.120 A 
ATOM     39  N   UNL     1      29.743  25.182  15.230  0.00  0.00    -0.263 NA
ATOM     40  C   UNL     1      31.023  25.410  15.756  0.00  0.00    +0.111 A 
ENDBRANCH   4   3
ENDBRANCH  10   9
BRANCH  12  13
ATOM     13  N   UNL     1      27.336  28.700   4.995  0.00  0.00    -0.281 N 
ATOM     14  C   UNL     1      26.929  28.240   3.753  0.00  0.00    +0.248 C 
ATOM     30  O   UNL     1      26.045  27.414   3.578  0.00  0.00    -0.270 OA
ATOM     31  H   UNL     1      28.206  29.233   5.012  0.00  0.00    +0.155 HD
BRANCH  14  15
ATOM     15  C   UNL     1      27.613  28.760   2.530  0.00  0.00    +0.037 A 
ATOM     16  C   UNL     1      28.037  27.859   1.456  0.00  0.00    +0.013 A 
ATOM     17  C   UNL     1      28.710  28.385   0.294  0.00  0.00    +0.005 A 
ATOM     18  C   UNL     1      28.961  29.822   0.202  0.00  0.00    -0.033 A 
ATOM     28  C   UNL     1      28.525  30.693   1.280  0.00  0.00    +0.005 A 
ATOM     29  C   UNL     1      27.866  30.181   2.420  0.00  0.00    +0.013 A 
BRANCH  18  19
ATOM     19  C   UNL     1      29.691  30.468  -0.991  0.00  0.00    +0.119 C 
BRANCH  19  20
ATOM     20  N   UNL     1      30.762  29.665  -1.654  0.00  0.00    -0.302 NA
ATOM     21  C   UNL     1      32.047  29.623  -0.822  0.00  0.00    +0.066 C 
ATOM     22  C   UNL     1      33.149  28.761  -1.520  0.00  0.00    -0.064 C 
ATOM     23  N   UNL     1      33.425  29.322  -2.915  0.00  0.00    +0.379 N 
ATOM     24  C   UNL     1      34.501  28.549  -3.552  0.00  0.00    -0.096 C 
ATOM     25  H   UNL     1      33.787  30.369  -2.793  0.00  0.00    -0.082 HD
ATOM     26  C   UNL     1      32.151  29.369  -3.748  0.00  0.00    -0.064 C 
ATOM     27  C   UNL     1      31.053  30.204  -3.032  0.00  0.00    +0.066 C 
ENDBRANCH  19  20
ENDBRANCH  18  19
ENDBRANCH  14  15
ENDBRANCH  12  13
TORSDOF 6
ENDMDL
MODEL 4
REMARK VINA RESULT:     -11.2      2.229     12.421
REMARK  Name = C:\Users\Docking\Desktop\test protocol\1iep_ligandH.pdb
REMARK  8 active torsions:
REMARK  status: ('A' for Active; 'I' for Inactive)
REMARK    1  A    between atoms: _5  and  _11
REMARK    2  A    between atoms: _19  and  _21
REMARK    3  A    between atoms: _22  and  _66
REMARK    4  A    between atoms: _27  and  _30
REMARK    5  A    between atoms: _32  and  _33
REMARK    6  A    between atoms: _38  and  _43
REMARK    7  A    between atoms: _43  and  _46
REMARK    8  A    between atoms: _53  and  _55
REMARK                            x       y       z     vdW  Elec       q    Type
REMARK                         _______ _______ _______ _____ _____    ______ ____
ROOT
ATOM     10  C   UNL     1      26.499  27.732   8.515  0.00  0.00    +0.038 A 
ATOM     11  C   UNL     1      27.229  27.889   7.309  0.00  0.00    +0.047 A 
ATOM     12  C   UNL     1      26.664  28.606   6.177  0.00  0.00    +0.035 A 
ATOM     32  C   UNL     1      25.355  29.153   6.308  0.00  0.00    +0.024 A 
ATOM     33  C   UNL     1      24.599  29.002   7.526  0.00  0.00    +0.007 A 
ATOM     34  C   UNL     1      25.149  28.294   8.646  0.00  0.00    -0.029 A 
ATOM     35  C   UNL     1      24.291  28.157   9.925  0.00  0.00    +0.045 C 
ENDROOT
BRANCH  10   9
ATOM      4  C   UNL     1      29.143  27.554  12.518  0.00  0.00    +0.077 A 
ATOM      5  C   UNL     1      29.391  28.966  12.487  0.00  0.00    +0.048 A 
ATOM      6  C   UNL     1      28.827  29.702  11.421  0.00  0.00    +0.116 A 
ATOM      7  N   UNL     1      28.071  29.062  10.462  0.00  0.00    -0.223 NA
ATOM      8  C   UNL     1      27.853  27.697  10.520  0.00  0.00    +0.220 A 
ATOM      9  N   UNL     1      27.090  27.034   9.572  0.00  0.00    -0.283 N 
ATOM     36  H   UNL     1      26.958  26.026   9.646  0.00  0.00    +0.155 HD
ATOM     37  N   UNL     1      28.382  26.973  11.528  0.00  0.00    -0.214 NA
BRANCH   4   3
ATOM      1  C   UNL     1      30.242  24.357  14.486  0.00  0.00    +0.020 A 
ATOM      2  C   UNL     1      29.725  25.193  13.428  0.00  0.00    +0.013 A 
ATOM      3  C   UNL     1      29.669  26.642  13.582  0.00  0.00    +0.019 A 
ATOM     38  C   UNL     1      30.149  27.217  14.829  0.00  0.00    +0.120 A 
ATOM     39  N   UNL     1      30.641  26.387  15.832  0.00  0.00    -0.263 NA
ATOM     40  C   UNL     1      30.698  24.992  15.695  0.00  0.00    +0.111 A 
ENDBRANCH   4   3
ENDBRANCH  10   9
BRANCH  12  13
ATOM     13  N   UNL     1      27.354  28.790   4.924  0.00  0.00    -0.281 N 
ATOM     14  C   UNL     1      26.976  28.342   3.669  0.00  0.00    +0.248 C 
ATOM     30  O   UNL     1      26.089  27.526   3.465  0.00  0.00    -0.270 OA
ATOM     31  H   UNL     1      28.228  29.315   4.968  0.00  0.00    +0.155 HD
BRANCH  14  15
ATOM     15  C   UNL     1      27.696  28.864   2.468  0.00  0.00    +0.037 A 
ATOM     16  C   UNL     1      27.980  30.293   2.314  0.00  0.00    +0.013 A 
ATOM     17  C   UNL     1      28.661  30.773   1.138  0.00  0.00    +0.005 A 
ATOM     18  C   UNL     1      29.064  29.820   0.106  0.00  0.00    -0.033 A 
ATOM     28  C   UNL     1      28.775  28.408   0.286  0.00  0.00    +0.005 A 
ATOM     29  C   UNL     1      28.107  27.934   1.438  0.00  0.00    +0.013 A 
BRANCH  18  19
ATOM     19  C   UNL     1      29.777  30.245  -1.192  0.00  0.00    +0.119 C 
BRANCH  19  20
ATOM     20  N   UNL     1      31.171  29.752  -1.400  0.00  0.00    -0.302 NA
ATOM     21  C   UNL     1      32.089  30.113  -0.228  0.00  0.00    +0.066 C 
ATOM     22  C   UNL     1      33.537  29.570  -0.452  0.00  0.00    -0.064 C 
ATOM     23  N   UNL     1      34.091  30.127  -1.765  0.00  0.00    +0.379 N 
ATOM     24  C   UNL     1      35.474  29.665  -1.949  0.00  0.00    -0.096 C 
ATOM     25  H   UNL     1      34.114  31.238  -1.677  0.00  0.00    -0.082 HD
ATOM     26  C   UNL     1      33.183  29.775  -2.935  0.00  0.00    -0.064 C 
ATOM     27  C   UNL     1      31.739  30.293  -2.689  0.00  0.00    +0.066 C 
ENDBRANCH  19  20
ENDBRANCH  18  19
ENDBRANCH  14  15
ENDBRANCH  12  13
TORSDOF 6
ENDMDL
MODEL 5
REMARK VINA RESULT:     -10.3      3.980     12.233
REMARK  Name = C:\Users\Docking\Desktop\test protocol\1iep_ligandH.pdb
REMARK  8 active torsions:
REMARK  status: ('A' for Active; 'I' for Inactive)
REMARK    1  A    between atoms: _5  and  _11
REMARK    2  A    between atoms: _19  and  _21
REMARK    3  A    between atoms: _22  and  _66
REMARK    4  A    between atoms: _27  and  _30
REMARK    5  A    between atoms: _32  and  _33
REMARK    6  A    between atoms: _38  and  _43
REMARK    7  A    between atoms: _43  and  _46
REMARK    8  A    between atoms: _53  and  _55
REMARK                            x       y       z     vdW  Elec       q    Type
REMARK                         _______ _______ _______ _____ _____    ______ ____
ROOT
ATOM     10  C   UNL     1      26.777  27.910   4.595  0.00  0.00    +0.038 A 
ATOM     11  C   UNL     1      27.845  28.634   4.005  0.00  0.00    +0.047 A 
ATOM     12  C   UNL     1      27.707  29.240   2.690  0.00  0.00    +0.035 A 
ATOM     32  C   UNL     1      26.466  29.091   2.004  0.00  0.00    +0.024 A 
ATOM     33  C   UNL     1      25.371  28.357   2.589  0.00  0.00    +0.007 A 
ATOM     34  C   UNL     1      25.502  27.756   3.885  0.00  0.00    -0.029 A 
ATOM     35  C   UNL     1      24.297  26.975   4.460  0.00  0.00    +0.045 C 
ENDROOT
BRANCH  10   9
ATOM      4  C   UNL     1      26.571  28.111   9.387  0.00  0.00    +0.077 A 
ATOM      5  C   UNL     1      26.074  29.457   9.368  0.00  0.00    +0.048 A 
ATOM      6  C   UNL     1      25.891  30.064   8.105  0.00  0.00    +0.116 A 
ATOM      7  N   UNL     1      26.188  29.367   6.953  0.00  0.00    -0.223 NA
ATOM      8  C   UNL     1      26.667  28.072   7.007  0.00  0.00    +0.220 A 
ATOM      9  N   UNL     1      26.965  27.350   5.861  0.00  0.00    -0.283 N 
ATOM     36  H   UNL     1      27.324  26.399   5.943  0.00  0.00    +0.155 HD
ATOM     37  N   UNL     1      26.852  27.470   8.200  0.00  0.00    -0.214 NA
BRANCH   4   3
ATOM      1  C   UNL     1      28.315  26.124  12.270  0.00  0.00    +0.020 A 
ATOM      2  C   UNL     1      28.135  26.871  11.046  0.00  0.00    +0.013 A 
ATOM      3  C   UNL     1      26.813  27.334  10.643  0.00  0.00    +0.019 A 
ATOM     38  C   UNL     1      25.685  27.021  11.507  0.00  0.00    +0.120 A 
ATOM     39  N   UNL     1      25.888  26.299  12.679  0.00  0.00    -0.263 NA
ATOM     40  C   UNL     1      27.155  25.847  13.076  0.00  0.00    +0.111 A 
ENDBRANCH   4   3
ENDBRANCH  10   9
BRANCH  12  13
ATOM     13  N   UNL     1      28.758  29.980   2.037  0.00  0.00    -0.281 N 
ATOM     14  C   UNL     1      29.262  29.796   0.760  0.00  0.00    +0.248 C 
ATOM     30  O   UNL     1      29.028  28.824   0.058  0.00  0.00    -0.270 OA
ATOM     31  H   UNL     1      29.183  30.729   2.583  0.00  0.00    +0.155 HD
BRANCH  14  15
ATOM     15  C   UNL     1      30.168  30.837   0.185  0.00  0.00    +0.037 A 
ATOM     16  C   UNL     1      31.621  30.756   0.352  0.00  0.00    +0.013 A 
ATOM     17  C   UNL     1      32.470  31.783  -0.198  0.00  0.00    +0.005 A 
ATOM     18  C   UNL     1      31.868  32.898  -0.923  0.00  0.00    -0.033 A 
ATOM     28  C   UNL     1      30.424  32.951  -1.080  0.00  0.00    +0.005 A 
ATOM     29  C   UNL     1      29.588  31.947  -0.540  0.00  0.00    +0.013 A 
BRANCH  18  19
ATOM     19  C   UNL     1      32.696  34.049  -1.526  0.00  0.00    +0.119 C 
BRANCH  19  20
ATOM     20  N   UNL     1      32.721  35.340  -0.775  0.00  0.00    -0.302 NA
ATOM     21  C   UNL     1      32.521  35.133   0.729  0.00  0.00    +0.066 C 
ATOM     22  C   UNL     1      32.572  36.491   1.502  0.00  0.00    -0.064 C 
ATOM     23  N   UNL     1      31.509  37.436   0.939  0.00  0.00    +0.379 N 
ATOM     24  C   UNL     1      31.515  38.693   1.701  0.00  0.00    -0.096 C 
ATOM     25  H   UNL     1      30.515  36.954   1.089  0.00  0.00    -0.082 HD
ATOM     26  C   UNL     1      31.698  37.644  -0.557  0.00  0.00    -0.064 C 
ATOM     27  C   UNL     1      31.675  36.286  -1.312  0.00  0.00    +0.066 C 
ENDBRANCH  19  20
ENDBRANCH  18  19
ENDBRANCH  14  15
ENDBRANCH  12  13
TORSDOF 6
ENDMDL
