MODEL 1
REMARK VINA RESULT:      -8.6      0.000      0.000
REMARK  Name = C:\Users\Docking\Desktop\test protocol\1iep_ligandH.pdb
REMARK  8 active torsions:
REMARK  status: ('A' for Active; 'I' for Inactive)
REMARK    1  A    between atoms: _5  and  _11
REMARK    2  A    between atoms: _19  and  _21
REMARK    3  A    between atoms: _22  and  _66
REMARK    4  A    between atoms: _27  and  _30
REMARK    5  A    between atoms: _32  and  _33
REMARK    6  A    between atoms: _38  and  _43
REMARK    7  A    between atoms: _43  and  _46
REMARK    8  A    between atoms: _53  and  _55
REMARK                            x       y       z     vdW  Elec       q    Type
REMARK                         _______ _______ _______ _____ _____    ______ ____
ROOT
ATOM     10  C   UNL     1      20.018   5.707  13.073  0.00  0.00    +0.038 A 
ATOM     11  C   UNL     1      19.614   4.403  13.456  0.00  0.00    +0.047 A 
ATOM     12  C   UNL     1      20.078   3.806  14.699  0.00  0.00    +0.035 A 
ATOM     32  C   UNL     1      20.952   4.567  15.528  0.00  0.00    +0.024 A 
ATOM     33  C   UNL     1      21.374   5.894  15.154  0.00  0.00    +0.007 A 
ATOM     34  C   UNL     1      20.921   6.487  13.928  0.00  0.00    -0.029 A 
ATOM     35  C   UNL     1      21.410   7.910  13.573  0.00  0.00    +0.045 C 
ENDROOT
BRANCH  10   9
ATOM      4  C   UNL     1      20.508   6.710   8.404  0.00  0.00    +0.077 A 
ATOM      5  C   UNL     1      21.836   6.169   8.367  0.00  0.00    +0.048 A 
ATOM      6  C   UNL     1      22.358   5.648   9.572  0.00  0.00    +0.116 A 
ATOM      7  N   UNL     1      21.601   5.673  10.723  0.00  0.00    -0.223 NA
ATOM      8  C   UNL     1      20.324   6.204  10.725  0.00  0.00    +0.220 A 
ATOM      9  N   UNL     1      19.541   6.231  11.869  0.00  0.00    -0.283 N 
ATOM     36  H   UNL     1      18.607   6.638  11.831  0.00  0.00    +0.155 HD
ATOM     37  N   UNL     1      19.803   6.708   9.587  0.00  0.00    -0.214 NA
BRANCH   4   3
ATOM      1  C   UNL     1      19.768   8.713   5.127  0.00  0.00    +0.020 A 
ATOM      2  C   UNL     1      20.482   8.176   6.262  0.00  0.00    +0.013 A 
ATOM      3  C   UNL     1      19.815   7.294   7.212  0.00  0.00    +0.019 A 
ATOM     38  C   UNL     1      18.415   6.972   6.982  0.00  0.00    +0.120 A 
ATOM     39  N   UNL     1      17.753   7.504   5.880  0.00  0.00    -0.263 NA
ATOM     40  C   UNL     1      18.384   8.356   4.960  0.00  0.00    +0.111 A 
ENDBRANCH   4   3
ENDBRANCH  10   9
BRANCH  12  13
ATOM     13  N   UNL     1      19.708   2.483  15.136  0.00  0.00    -0.281 N 
ATOM     14  C   UNL     1      19.021   2.127  16.285  0.00  0.00    +0.248 C 
ATOM     30  O   UNL     1      18.805   2.880  17.223  0.00  0.00    -0.270 OA
ATOM     31  H   UNL     1      19.987   1.715  14.525  0.00  0.00    +0.155 HD
BRANCH  14  15
ATOM     15  C   UNL     1      18.512   0.728  16.418  0.00  0.00    +0.037 A 
ATOM     16  C   UNL     1      19.200  -0.395  15.776  0.00  0.00    +0.013 A 
ATOM     17  C   UNL     1      18.678  -1.733  15.906  0.00  0.00    +0.005 A 
ATOM     18  C   UNL     1      17.461  -1.954  16.683  0.00  0.00    -0.033 A 
ATOM     28  C   UNL     1      16.802  -0.823  17.314  0.00  0.00    +0.005 A 
ATOM     29  C   UNL     1      17.310   0.490  17.188  0.00  0.00    +0.013 A 
BRANCH  18  19
ATOM     19  C   UNL     1      16.822  -3.345  16.858  0.00  0.00    +0.119 C 
BRANCH  19  20
ATOM     20  N   UNL     1      16.680  -3.862  18.251  0.00  0.00    -0.302 NA
ATOM     21  C   UNL     1      17.966  -3.685  19.063  0.00  0.00    +0.066 C 
ATOM     22  C   UNL     1      17.793  -4.211  20.525  0.00  0.00    -0.064 C 
ATOM     23  N   UNL     1      17.374  -5.682  20.489  0.00  0.00    +0.379 N 
ATOM     24  C   UNL     1      17.267  -6.196  21.862  0.00  0.00    -0.096 C 
ATOM     25  H   UNL     1      18.184  -6.252  19.976  0.00  0.00    -0.082 HD
ATOM     26  C   UNL     1      16.098  -5.868  19.681  0.00  0.00    -0.064 C 
ATOM     27  C   UNL     1      16.271  -5.315  18.239  0.00  0.00    +0.066 C 
ENDBRANCH  19  20
ENDBRANCH  18  19
ENDBRANCH  14  15
ENDBRANCH  12  13
TORSDOF 6
ENDMDL
MODEL 2
REMARK VINA RESULT:      -8.3      5.231     12.650
REMARK  Name = C:\Users\Docking\Desktop\test protocol\1iep_ligandH.pdb
REMARK  8 active torsions:
REMARK  status: ('A' for Active; 'I' for Inactive)
REMARK    1  A    between atoms: _5  and  _11
REMARK    2  A    between atoms: _19  and  _21
REMARK    3  A    between atoms: _22  and  _66
REMARK    4  A    between atoms: _27  and  _30
REMARK    5  A    between atoms: _32  and  _33
REMARK    6  A    between atoms: _38  and  _43
REMARK    7  A    between atoms: _43  and  _46
REMARK    8  A    between atoms: _53  and  _55
REMARK                            x       y       z     vdW  Elec       q    Type
REMARK                         _______ _______ _______ _____ _____    ______ ____
ROOT
ATOM     10  C   UNL     1      16.798   1.355  18.489  0.00  0.00    +0.038 A 
ATOM     11  C   UNL     1      17.451   2.460  17.886  0.00  0.00    +0.047 A 
ATOM     12  C   UNL     1      17.805   3.639  18.661  0.00  0.00    +0.035 A 
ATOM     32  C   UNL     1      17.483   3.657  20.050  0.00  0.00    +0.024 A 
ATOM     33  C   UNL     1      16.818   2.543  20.678  0.00  0.00    +0.007 A 
ATOM     34  C   UNL     1      16.464   1.378  19.918  0.00  0.00    -0.029 A 
ATOM     35  C   UNL     1      15.747   0.216  20.643  0.00  0.00    +0.045 C 
ENDROOT
BRANCH  10   9
ATOM      4  C   UNL     1      17.903  -2.847  16.449  0.00  0.00    +0.077 A 
ATOM      5  C   UNL     1      19.234  -2.823  16.983  0.00  0.00    +0.048 A 
ATOM      6  C   UNL     1      19.597  -1.709  17.771  0.00  0.00    +0.116 A 
ATOM      7  N   UNL     1      18.688  -0.699  18.003  0.00  0.00    -0.223 NA
ATOM      8  C   UNL     1      17.413  -0.752  17.471  0.00  0.00    +0.220 A 
ATOM      9  N   UNL     1      16.480   0.249  17.698  0.00  0.00    -0.283 N 
ATOM     36  H   UNL     1      15.552   0.176  17.282  0.00  0.00    +0.155 HD
ATOM     37  N   UNL     1      17.042  -1.805  16.714  0.00  0.00    -0.214 NA
BRANCH   4   3
ATOM      1  C   UNL     1      15.710  -5.791  15.099  0.00  0.00    +0.020 A 
ATOM      2  C   UNL     1      16.184  -4.728  15.955  0.00  0.00    +0.013 A 
ATOM      3  C   UNL     1      17.369  -3.958  15.599  0.00  0.00    +0.019 A 
ATOM     38  C   UNL     1      18.057  -4.291  14.361  0.00  0.00    +0.120 A 
ATOM     39  N   UNL     1      17.578  -5.321  13.557  0.00  0.00    -0.263 NA
ATOM     40  C   UNL     1      16.439  -6.070  13.890  0.00  0.00    +0.111 A 
ENDBRANCH   4   3
ENDBRANCH  10   9
BRANCH  12  13
ATOM     13  N   UNL     1      18.462   4.795  18.102  0.00  0.00    -0.281 N 
ATOM     14  C   UNL     1      19.820   5.000  17.924  0.00  0.00    +0.248 C 
ATOM     30  O   UNL     1      20.695   4.304  18.419  0.00  0.00    -0.270 OA
ATOM     31  H   UNL     1      17.850   5.553  17.800  0.00  0.00    +0.155 HD
BRANCH  14  15
ATOM     15  C   UNL     1      20.273   6.153  17.088  0.00  0.00    +0.037 A 
ATOM     16  C   UNL     1      19.695   6.406  15.766  0.00  0.00    +0.013 A 
ATOM     17  C   UNL     1      20.162   7.515  14.973  0.00  0.00    +0.005 A 
ATOM     18  C   UNL     1      21.213   8.382  15.502  0.00  0.00    -0.033 A 
ATOM     28  C   UNL     1      21.765   8.111  16.819  0.00  0.00    +0.005 A 
ATOM     29  C   UNL     1      21.310   7.024  17.599  0.00  0.00    +0.013 A 
BRANCH  18  19
ATOM     19  C   UNL     1      21.787   9.576  14.716  0.00  0.00    +0.119 C 
BRANCH  19  20
ATOM     20  N   UNL     1      23.086  10.142  15.186  0.00  0.00    -0.302 NA
ATOM     21  C   UNL     1      22.948  11.598  15.640  0.00  0.00    +0.066 C 
ATOM     22  C   UNL     1      24.312  12.168  16.149  0.00  0.00    -0.064 C 
ATOM     23  N   UNL     1      25.359  12.043  15.041  0.00  0.00    +0.379 N 
ATOM     24  C   UNL     1      26.627  12.631  15.496  0.00  0.00    -0.096 C 
ATOM     25  H   UNL     1      25.002  12.641  14.170  0.00  0.00    -0.082 HD
ATOM     26  C   UNL     1      25.501  10.599  14.582  0.00  0.00    -0.064 C 
ATOM     27  C   UNL     1      24.134  10.033  14.105  0.00  0.00    +0.066 C 
ENDBRANCH  19  20
ENDBRANCH  18  19
ENDBRANCH  14  15
ENDBRANCH  12  13
TORSDOF 6
ENDMDL
MODEL 3
REMARK VINA RESULT:      -8.3      6.270     14.216
REMARK  Name = C:\Users\Docking\Desktop\test protocol\1iep_ligandH.pdb
REMARK  8 active torsions:
REMARK  status: ('A' for Active; 'I' for Inactive)
REMARK    1  A    between atoms: _5  and  _11
REMARK    2  A    between atoms: _19  and  _21
REMARK    3  A    between atoms: _22  and  _66
REMARK    4  A    between atoms: _27  and  _30
REMARK    5  A    between atoms: _32  and  _33
REMARK    6  A    between atoms: _38  and  _43
REMARK    7  A    between atoms: _43  and  _46
REMARK    8  A    between atoms: _53  and  _55
REMARK                            x       y       z     vdW  Elec       q    Type
REMARK                         _______ _______ _______ _____ _____    ______ ____
ROOT
ATOM     10  C   UNL     1      22.456   5.455  11.257  0.00  0.00    +0.038 A 
ATOM     11  C   UNL     1      21.623   6.031  10.264  0.00  0.00    +0.047 A 
ATOM     12  C   UNL     1      22.118   6.281   8.919  0.00  0.00    +0.035 A 
ATOM     32  C   UNL     1      23.466   5.928   8.619  0.00  0.00    +0.024 A 
ATOM     33  C   UNL     1      24.327   5.343   9.617  0.00  0.00    +0.007 A 
ATOM     34  C   UNL     1      23.845   5.097  10.946  0.00  0.00    -0.029 A 
ATOM     35  C   UNL     1      24.814   4.473  11.977  0.00  0.00    +0.045 C 
ENDROOT
BRANCH  10   9
ATOM      4  C   UNL     1      21.185   6.978  15.628  0.00  0.00    +0.077 A 
ATOM      5  C   UNL     1      21.633   8.313  15.357  0.00  0.00    +0.048 A 
ATOM      6  C   UNL     1      22.191   8.565  14.084  0.00  0.00    +0.116 A 
ATOM      7  N   UNL     1      22.289   7.550  13.158  0.00  0.00    -0.223 NA
ATOM      8  C   UNL     1      21.848   6.272  13.451  0.00  0.00    +0.220 A 
ATOM      9  N   UNL     1      21.929   5.238  12.532  0.00  0.00    -0.283 N 
ATOM     36  H   UNL     1      21.600   4.307  12.790  0.00  0.00    +0.155 HD
ATOM     37  N   UNL     1      21.313   6.006  14.661  0.00  0.00    -0.214 NA
BRANCH   4   3
ATOM      1  C   UNL     1      18.625   5.771  18.328  0.00  0.00    +0.020 A 
ATOM      2  C   UNL     1      19.169   6.171  17.051  0.00  0.00    +0.013 A 
ATOM      3  C   UNL     1      20.570   6.556  16.926  0.00  0.00    +0.019 A 
ATOM     38  C   UNL     1      21.398   6.524  18.121  0.00  0.00    +0.120 A 
ATOM     39  N   UNL     1      20.846   6.136  19.338  0.00  0.00    -0.263 NA
ATOM     40  C   UNL     1      19.500   5.765  19.471  0.00  0.00    +0.111 A 
ENDBRANCH   4   3
ENDBRANCH  10   9
BRANCH  12  13
ATOM     13  N   UNL     1      21.322   6.870   7.872  0.00  0.00    -0.281 N 
ATOM     14  C   UNL     1      19.957   6.747   7.667  0.00  0.00    +0.248 C 
ATOM     30  O   UNL     1      19.244   5.932   8.235  0.00  0.00    -0.270 OA
ATOM     31  H   UNL     1      21.825   7.449   7.199  0.00  0.00    +0.155 HD
BRANCH  14  15
ATOM     15  C   UNL     1      19.290   7.649   6.680  0.00  0.00    +0.037 A 
ATOM     16  C   UNL     1      20.068   8.564   5.840  0.00  0.00    +0.013 A 
ATOM     17  C   UNL     1      19.399   9.435   4.908  0.00  0.00    +0.005 A 
ATOM     18  C   UNL     1      17.941   9.395   4.809  0.00  0.00    -0.033 A 
ATOM     28  C   UNL     1      17.195   8.474   5.650  0.00  0.00    +0.005 A 
ATOM     29  C   UNL     1      17.848   7.619   6.566  0.00  0.00    +0.013 A 
BRANCH  18  19
ATOM     19  C   UNL     1      17.142  10.304   3.857  0.00  0.00    +0.119 C 
BRANCH  19  20
ATOM     20  N   UNL     1      17.302  10.068   2.391  0.00  0.00    -0.302 NA
ATOM     21  C   UNL     1      18.050  11.214   1.703  0.00  0.00    +0.066 C 
ATOM     22  C   UNL     1      18.228  10.940   0.174  0.00  0.00    -0.064 C 
ATOM     23  N   UNL     1      16.855  10.727  -0.467  0.00  0.00    +0.379 N 
ATOM     24  C   UNL     1      17.016  10.526  -1.914  0.00  0.00    -0.096 C 
ATOM     25  H   UNL     1      16.264  11.660  -0.317  0.00  0.00    -0.082 HD
ATOM     26  C   UNL     1      16.104   9.591   0.213  0.00  0.00    -0.064 C 
ATOM     27  C   UNL     1      15.958   9.859   1.737  0.00  0.00    +0.066 C 
ENDBRANCH  19  20
ENDBRANCH  18  19
ENDBRANCH  14  15
ENDBRANCH  12  13
TORSDOF 6
ENDMDL
MODEL 4
REMARK VINA RESULT:      -8.1      3.555     12.723
REMARK  Name = C:\Users\Docking\Desktop\test protocol\1iep_ligandH.pdb
REMARK  8 active torsions:
REMARK  status: ('A' for Active; 'I' for Inactive)
REMARK    1  A    between atoms: _5  and  _11
REMARK    2  A    between atoms: _19  and  _21
REMARK    3  A    between atoms: _22  and  _66
REMARK    4  A    between atoms: _27  and  _30
REMARK    5  A    between atoms: _32  and  _33
REMARK    6  A    between atoms: _38  and  _43
REMARK    7  A    between atoms: _43  and  _46
REMARK    8  A    between atoms: _53  and  _55
REMARK                            x       y       z     vdW  Elec       q    Type
REMARK                         _______ _______ _______ _____ _____    ______ ____
ROOT
ATOM     10  C   UNL     1      18.043   2.277  20.718  0.00  0.00    +0.038 A 
ATOM     11  C   UNL     1      18.454   3.131  19.663  0.00  0.00    +0.047 A 
ATOM     12  C   UNL     1      18.570   4.567  19.859  0.00  0.00    +0.035 A 
ATOM     32  C   UNL     1      18.262   5.101  21.145  0.00  0.00    +0.024 A 
ATOM     33  C   UNL     1      17.842   4.248  22.228  0.00  0.00    +0.007 A 
ATOM     34  C   UNL     1      17.723   2.830  22.040  0.00  0.00    -0.029 A 
ATOM     35  C   UNL     1      17.261   1.964  23.235  0.00  0.00    +0.045 C 
ENDROOT
BRANCH  10   9
ATOM      4  C   UNL     1      15.667  -1.591  19.158  0.00  0.00    +0.077 A 
ATOM      5  C   UNL     1      14.506  -0.817  18.826  0.00  0.00    +0.048 A 
ATOM      6  C   UNL     1      14.558   0.572  19.078  0.00  0.00    +0.116 A 
ATOM      7  N   UNL     1      15.692   1.135  19.623  0.00  0.00    -0.223 NA
ATOM      8  C   UNL     1      16.794   0.359  19.933  0.00  0.00    +0.220 A 
ATOM      9  N   UNL     1      17.948   0.905  20.474  0.00  0.00    -0.283 N 
ATOM     36  H   UNL     1      18.737   0.298  20.696  0.00  0.00    +0.155 HD
ATOM     37  N   UNL     1      16.769  -0.970  19.703  0.00  0.00    -0.214 NA
BRANCH   4   3
ATOM      1  C   UNL     1      16.029  -5.435  19.783  0.00  0.00    +0.020 A 
ATOM      2  C   UNL     1      15.939  -4.016  20.041  0.00  0.00    +0.013 A 
ATOM      3  C   UNL     1      15.767  -3.070  18.947  0.00  0.00    +0.019 A 
ATOM     38  C   UNL     1      15.689  -3.595  17.592  0.00  0.00    +0.120 A 
ATOM     39  N   UNL     1      15.780  -4.966  17.374  0.00  0.00    -0.263 NA
ATOM     40  C   UNL     1      15.947  -5.887  18.419  0.00  0.00    +0.111 A 
ENDBRANCH   4   3
ENDBRANCH  10   9
BRANCH  12  13
ATOM     13  N   UNL     1      18.975   5.485  18.823  0.00  0.00    -0.281 N 
ATOM     14  C   UNL     1      20.185   6.148  18.698  0.00  0.00    +0.248 C 
ATOM     30  O   UNL     1      21.030   6.217  19.579  0.00  0.00    -0.270 OA
ATOM     31  H   UNL     1      18.287   5.667  18.093  0.00  0.00    +0.155 HD
BRANCH  14  15
ATOM     15  C   UNL     1      20.496   6.847  17.414  0.00  0.00    +0.037 A 
ATOM     16  C   UNL     1      19.710   6.597  16.203  0.00  0.00    +0.013 A 
ATOM     17  C   UNL     1      20.041   7.272  14.973  0.00  0.00    +0.005 A 
ATOM     18  C   UNL     1      21.165   8.205  14.949  0.00  0.00    -0.033 A 
ATOM     28  C   UNL     1      21.925   8.438  16.166  0.00  0.00    +0.005 A 
ATOM     29  C   UNL     1      21.604   7.778  17.373  0.00  0.00    +0.013 A 
BRANCH  18  19
ATOM     19  C   UNL     1      21.604   8.954  13.676  0.00  0.00    +0.119 C 
BRANCH  19  20
ATOM     20  N   UNL     1      22.293   8.157  12.618  0.00  0.00    -0.302 NA
ATOM     21  C   UNL     1      21.300   7.402  11.730  0.00  0.00    +0.066 C 
ATOM     22  C   UNL     1      22.037   6.591  10.614  0.00  0.00    -0.064 C 
ATOM     23  N   UNL     1      23.030   5.624  11.261  0.00  0.00    +0.379 N 
ATOM     24  C   UNL     1      23.682   4.820  10.218  0.00  0.00    -0.096 C 
ATOM     25  H   UNL     1      22.449   4.929  11.911  0.00  0.00    -0.082 HD
ATOM     26  C   UNL     1      24.019   6.366  12.148  0.00  0.00    -0.064 C 
ATOM     27  C   UNL     1      23.275   7.192  13.235  0.00  0.00    +0.066 C 
ENDBRANCH  19  20
ENDBRANCH  18  19
ENDBRANCH  14  15
ENDBRANCH  12  13
TORSDOF 6
ENDMDL
MODEL 5
REMARK VINA RESULT:      -8.1      4.384     12.602
REMARK  Name = C:\Users\Docking\Desktop\test protocol\1iep_ligandH.pdb
REMARK  8 active torsions:
REMARK  status: ('A' for Active; 'I' for Inactive)
REMARK    1  A    between atoms: _5  and  _11
REMARK    2  A    between atoms: _19  and  _21
REMARK    3  A    between atoms: _22  and  _66
REMARK    4  A    between atoms: _27  and  _30
REMARK    5  A    between atoms: _32  and  _33
REMARK    6  A    between atoms: _38  and  _43
REMARK    7  A    between atoms: _43  and  _46
REMARK    8  A    between atoms: _53  and  _55
REMARK                            x       y       z     vdW  Elec       q    Type
REMARK                         _______ _______ _______ _____ _____    ______ ____
ROOT
ATOM     10  C   UNL     1      17.193  -2.582  16.827  0.00  0.00    +0.038 A 
ATOM     11  C   UNL     1      17.743  -1.347  16.398  0.00  0.00    +0.047 A 
ATOM     12  C   UNL     1      17.289  -0.084  16.959  0.00  0.00    +0.035 A 
ATOM     32  C   UNL     1      16.273  -0.116  17.958  0.00  0.00    +0.024 A 
ATOM     33  C   UNL     1      15.702  -1.362  18.406  0.00  0.00    +0.007 A 
ATOM     34  C   UNL     1      16.144  -2.610  17.854  0.00  0.00    -0.029 A 
ATOM     35  C   UNL     1      15.491  -3.915  18.367  0.00  0.00    +0.045 C 
ENDROOT
BRANCH  10   9
ATOM      4  C   UNL     1      16.917  -6.133  13.610  0.00  0.00    +0.077 A 
ATOM      5  C   UNL     1      15.712  -5.603  13.040  0.00  0.00    +0.048 A 
ATOM      6  C   UNL     1      15.192  -4.418  13.608  0.00  0.00    +0.116 A 
ATOM      7  N   UNL     1      15.837  -3.817  14.667  0.00  0.00    -0.223 NA
ATOM      8  C   UNL     1      16.997  -4.356  15.194  0.00  0.00    +0.220 A 
ATOM      9  N   UNL     1      17.666  -3.764  16.254  0.00  0.00    -0.283 N 
ATOM     36  H   UNL     1      18.515  -4.197  16.619  0.00  0.00    +0.155 HD
ATOM     37  N   UNL     1      17.512  -5.487  14.671  0.00  0.00    -0.214 NA
BRANCH   4   3
ATOM      1  C   UNL     1      17.587  -9.814  12.467  0.00  0.00    +0.020 A 
ATOM      2  C   UNL     1      16.890  -8.643  12.947  0.00  0.00    +0.013 A 
ATOM      3  C   UNL     1      17.591  -7.376  13.118  0.00  0.00    +0.019 A 
ATOM     38  C   UNL     1      19.008  -7.328  12.791  0.00  0.00    +0.120 A 
ATOM     39  N   UNL     1      19.653  -8.472  12.333  0.00  0.00    -0.263 NA
ATOM     40  C   UNL     1      18.990  -9.696  12.166  0.00  0.00    +0.111 A 
ENDBRANCH   4   3
ENDBRANCH  10   9
BRANCH  12  13
ATOM     13  N   UNL     1      17.805   1.200  16.556  0.00  0.00    -0.281 N 
ATOM     14  C   UNL     1      18.838   1.922  17.133  0.00  0.00    +0.248 C 
ATOM     30  O   UNL     1      19.336   1.668  18.220  0.00  0.00    -0.270 OA
ATOM     31  H   UNL     1      17.355   1.630  15.748  0.00  0.00    +0.155 HD
BRANCH  14  15
ATOM     15  C   UNL     1      19.387   3.105  16.404  0.00  0.00    +0.037 A 
ATOM     16  C   UNL     1      19.607   4.383  17.086  0.00  0.00    +0.013 A 
ATOM     17  C   UNL     1      20.122   5.514  16.356  0.00  0.00    +0.005 A 
ATOM     18  C   UNL     1      20.421   5.371  14.933  0.00  0.00    -0.033 A 
ATOM     28  C   UNL     1      20.197   4.091  14.282  0.00  0.00    +0.005 A 
ATOM     29  C   UNL     1      19.692   2.981  14.995  0.00  0.00    +0.013 A 
BRANCH  18  19
ATOM     19  C   UNL     1      20.953   6.531  14.070  0.00  0.00    +0.119 C 
BRANCH  19  20
ATOM     20  N   UNL     1      21.868   7.509  14.728  0.00  0.00    -0.302 NA
ATOM     21  C   UNL     1      21.273   8.920  14.763  0.00  0.00    +0.066 C 
ATOM     22  C   UNL     1      22.234   9.926  15.475  0.00  0.00    -0.064 C 
ATOM     23  N   UNL     1      23.587   9.927  14.762  0.00  0.00    +0.379 N 
ATOM     24  C   UNL     1      24.474  10.915  15.394  0.00  0.00    -0.096 C 
ATOM     25  H   UNL     1      23.414  10.252  13.710  0.00  0.00    -0.082 HD
ATOM     26  C   UNL     1      24.185   8.528  14.721  0.00  0.00    -0.064 C 
ATOM     27  C   UNL     1      23.209   7.530  14.037  0.00  0.00    +0.066 C 
ENDBRANCH  19  20
ENDBRANCH  18  19
ENDBRANCH  14  15
ENDBRANCH  12  13
TORSDOF 6
ENDMDL
