MODEL 1
REMARK VINA RESULT:     -10.3      0.000      0.000
REMARK  Name = C:\Users\Docking\Desktop\test protocol\1iep_ligandH.pdb
REMARK  8 active torsions:
REMARK  status: ('A' for Active; 'I' for Inactive)
REMARK    1  A    between atoms: _5  and  _11
REMARK    2  A    between atoms: _19  and  _21
REMARK    3  A    between atoms: _22  and  _66
REMARK    4  A    between atoms: _27  and  _30
REMARK    5  A    between atoms: _32  and  _33
REMARK    6  A    between atoms: _38  and  _43
REMARK    7  A    between atoms: _43  and  _46
REMARK    8  A    between atoms: _53  and  _55
REMARK                            x       y       z     vdW  Elec       q    Type
REMARK                         _______ _______ _______ _____ _____    ______ ____
ROOT
ATOM     10  C   UNL     1       4.047  78.067  20.877  0.00  0.00    +0.038 A 
ATOM     11  C   UNL     1       4.351  77.478  19.624  0.00  0.00    +0.047 A 
ATOM     12  C   UNL     1       5.399  78.020  18.772  0.00  0.00    +0.035 A 
ATOM     32  C   UNL     1       6.119  79.161  19.231  0.00  0.00    +0.024 A 
ATOM     33  C   UNL     1       5.822  79.773  20.502  0.00  0.00    +0.007 A 
ATOM     34  C   UNL     1       4.788  79.245  21.345  0.00  0.00    -0.029 A 
ATOM     35  C   UNL     1       4.509  79.946  22.695  0.00  0.00    +0.045 C 
ENDROOT
BRANCH  10   9
ATOM      4  C   UNL     1      -0.487  77.909  22.443  0.00  0.00    +0.077 A 
ATOM      5  C   UNL     1      -0.857  79.059  21.669  0.00  0.00    +0.048 A 
ATOM      6  C   UNL     1       0.151  79.666  20.886  0.00  0.00    +0.116 A 
ATOM      7  N   UNL     1       1.430  79.153  20.886  0.00  0.00    -0.223 NA
ATOM      8  C   UNL     1       1.753  78.044  21.646  0.00  0.00    +0.220 A 
ATOM      9  N   UNL     1       3.031  77.506  21.654  0.00  0.00    -0.283 N 
ATOM     36  H   UNL     1       3.232  76.691  22.234  0.00  0.00    +0.155 HD
ATOM     37  N   UNL     1       0.809  77.447  22.402  0.00  0.00    -0.214 NA
BRANCH   4   3
ATOM      1  C   UNL     1      -3.316  75.508  23.682  0.00  0.00    +0.020 A 
ATOM      2  C   UNL     1      -2.418  76.210  22.794  0.00  0.00    +0.013 A 
ATOM      3  C   UNL     1      -1.441  77.156  23.318  0.00  0.00    +0.019 A 
ATOM     38  C   UNL     1      -1.398  77.371  24.756  0.00  0.00    +0.120 A 
ATOM     39  N   UNL     1      -2.276  76.682  25.587  0.00  0.00    -0.263 NA
ATOM     40  C   UNL     1      -3.222  75.770  25.094  0.00  0.00    +0.111 A 
ENDBRANCH   4   3
ENDBRANCH  10   9
BRANCH  12  13
ATOM     13  N   UNL     1       5.747  77.469  17.486  0.00  0.00    -0.281 N 
ATOM     14  C   UNL     1       5.578  78.047  16.238  0.00  0.00    +0.248 C 
ATOM     30  O   UNL     1       4.901  79.042  16.023  0.00  0.00    -0.270 OA
ATOM     31  H   UNL     1       6.170  76.541  17.496  0.00  0.00    +0.155 HD
BRANCH  14  15
ATOM     15  C   UNL     1       6.244  77.420  15.056  0.00  0.00    +0.037 A 
ATOM     16  C   UNL     1       6.445  75.971  14.976  0.00  0.00    +0.013 A 
ATOM     17  C   UNL     1       7.106  75.395  13.832  0.00  0.00    +0.005 A 
ATOM     18  C   UNL     1       7.570  76.269  12.757  0.00  0.00    -0.033 A 
ATOM     28  C   UNL     1       7.353  77.702  12.860  0.00  0.00    +0.005 A 
ATOM     29  C   UNL     1       6.706  78.271  13.980  0.00  0.00    +0.013 A 
BRANCH  18  19
ATOM     19  C   UNL     1       8.303  75.742  11.510  0.00  0.00    +0.119 C 
BRANCH  19  20
ATOM     20  N   UNL     1       9.454  74.817  11.732  0.00  0.00    -0.302 NA
ATOM     21  C   UNL     1      10.548  75.457  12.593  0.00  0.00    +0.066 C 
ATOM     22  C   UNL     1      11.734  74.467  12.835  0.00  0.00    -0.064 C 
ATOM     23  N   UNL     1      12.300  74.015  11.487  0.00  0.00    +0.379 N 
ATOM     24  C   UNL     1      13.452  73.130  11.712  0.00  0.00    -0.096 C 
ATOM     25  H   UNL     1      12.668  74.922  10.954  0.00  0.00    -0.082 HD
ATOM     26  C   UNL     1      11.218  73.380  10.625  0.00  0.00    -0.064 C 
ATOM     27  C   UNL     1      10.031  74.361  10.415  0.00  0.00    +0.066 C 
ENDBRANCH  19  20
ENDBRANCH  18  19
ENDBRANCH  14  15
ENDBRANCH  12  13
TORSDOF 6
ENDMDL
MODEL 2
REMARK VINA RESULT:      -9.8      2.160      2.850
REMARK  Name = C:\Users\Docking\Desktop\test protocol\1iep_ligandH.pdb
REMARK  8 active torsions:
REMARK  status: ('A' for Active; 'I' for Inactive)
REMARK    1  A    between atoms: _5  and  _11
REMARK    2  A    between atoms: _19  and  _21
REMARK    3  A    between atoms: _22  and  _66
REMARK    4  A    between atoms: _27  and  _30
REMARK    5  A    between atoms: _32  and  _33
REMARK    6  A    between atoms: _38  and  _43
REMARK    7  A    between atoms: _43  and  _46
REMARK    8  A    between atoms: _53  and  _55
REMARK                            x       y       z     vdW  Elec       q    Type
REMARK                         _______ _______ _______ _____ _____    ______ ____
ROOT
ATOM     10  C   UNL     1       2.425  80.255  18.532  0.00  0.00    +0.038 A 
ATOM     11  C   UNL     1       3.158  79.222  17.895  0.00  0.00    +0.047 A 
ATOM     12  C   UNL     1       4.180  79.525  16.905  0.00  0.00    +0.035 A 
ATOM     32  C   UNL     1       4.431  80.892  16.590  0.00  0.00    +0.024 A 
ATOM     33  C   UNL     1       3.694  81.955  17.227  0.00  0.00    +0.007 A 
ATOM     34  C   UNL     1       2.683  81.662  18.203  0.00  0.00    -0.029 A 
ATOM     35  C   UNL     1       1.920  82.841  18.849  0.00  0.00    +0.045 C 
ENDROOT
BRANCH  10   9
ATOM      4  C   UNL     1       1.001  77.916  22.474  0.00  0.00    +0.077 A 
ATOM      5  C   UNL     1       2.292  77.315  22.655  0.00  0.00    +0.048 A 
ATOM      6  C   UNL     1       3.292  77.628  21.707  0.00  0.00    +0.116 A 
ATOM      7  N   UNL     1       3.012  78.480  20.661  0.00  0.00    -0.223 NA
ATOM      8  C   UNL     1       1.757  79.041  20.515  0.00  0.00    +0.220 A 
ATOM      9  N   UNL     1       1.455  79.907  19.475  0.00  0.00    -0.283 N 
ATOM     36  H   UNL     1       0.515  80.295  19.398  0.00  0.00    +0.155 HD
ATOM     37  N   UNL     1       0.784  78.757  21.406  0.00  0.00    -0.214 NA
BRANCH   4   3
ATOM      1  C   UNL     1      -2.539  76.997  23.859  0.00  0.00    +0.020 A 
ATOM      2  C   UNL     1      -1.453  77.204  22.930  0.00  0.00    +0.013 A 
ATOM      3  C   UNL     1      -0.158  77.685  23.393  0.00  0.00    +0.019 A 
ATOM     38  C   UNL     1       0.007  77.949  24.815  0.00  0.00    +0.120 A 
ATOM     39  N   UNL     1      -1.058  77.742  25.686  0.00  0.00    -0.263 NA
ATOM     40  C   UNL     1      -2.310  77.281  25.251  0.00  0.00    +0.111 A 
ENDBRANCH   4   3
ENDBRANCH  10   9
BRANCH  12  13
ATOM     13  N   UNL     1       4.951  78.518  16.219  0.00  0.00    -0.281 N 
ATOM     14  C   UNL     1       4.897  78.170  14.880  0.00  0.00    +0.248 C 
ATOM     30  O   UNL     1       4.021  78.527  14.107  0.00  0.00    -0.270 OA
ATOM     31  H   UNL     1       5.618  77.999  16.791  0.00  0.00    +0.155 HD
BRANCH  14  15
ATOM     15  C   UNL     1       5.964  77.284  14.320  0.00  0.00    +0.037 A 
ATOM     16  C   UNL     1       6.858  77.750  13.258  0.00  0.00    +0.013 A 
ATOM     17  C   UNL     1       7.868  76.869  12.724  0.00  0.00    +0.005 A 
ATOM     18  C   UNL     1       7.988  75.513  13.255  0.00  0.00    -0.033 A 
ATOM     28  C   UNL     1       7.090  75.079  14.312  0.00  0.00    +0.005 A 
ATOM     29  C   UNL     1       6.100  75.939  14.837  0.00  0.00    +0.013 A 
BRANCH  18  19
ATOM     19  C   UNL     1       9.022  74.499  12.731  0.00  0.00    +0.119 C 
BRANCH  19  20
ATOM     20  N   UNL     1      10.298  74.368  13.494  0.00  0.00    -0.302 NA
ATOM     21  C   UNL     1      11.387  73.668  12.676  0.00  0.00    +0.066 C 
ATOM     22  C   UNL     1      12.723  73.559  13.481  0.00  0.00    -0.064 C 
ATOM     23  N   UNL     1      12.466  72.812  14.791  0.00  0.00    +0.379 N 
ATOM     24  C   UNL     1      13.731  72.657  15.524  0.00  0.00    -0.096 C 
ATOM     25  H   UNL     1      12.097  71.792  14.533  0.00  0.00    -0.082 HD
ATOM     26  C   UNL     1      11.382  73.500  15.610  0.00  0.00    -0.064 C 
ATOM     27  C   UNL     1      10.068  73.630  14.790  0.00  0.00    +0.066 C 
ENDBRANCH  19  20
ENDBRANCH  18  19
ENDBRANCH  14  15
ENDBRANCH  12  13
TORSDOF 6
ENDMDL
MODEL 3
REMARK VINA RESULT:      -9.8      2.254     13.170
REMARK  Name = C:\Users\Docking\Desktop\test protocol\1iep_ligandH.pdb
REMARK  8 active torsions:
REMARK  status: ('A' for Active; 'I' for Inactive)
REMARK    1  A    between atoms: _5  and  _11
REMARK    2  A    between atoms: _19  and  _21
REMARK    3  A    between atoms: _22  and  _66
REMARK    4  A    between atoms: _27  and  _30
REMARK    5  A    between atoms: _32  and  _33
REMARK    6  A    between atoms: _38  and  _43
REMARK    7  A    between atoms: _43  and  _46
REMARK    8  A    between atoms: _53  and  _55
REMARK                            x       y       z     vdW  Elec       q    Type
REMARK                         _______ _______ _______ _____ _____    ______ ____
ROOT
ATOM     10  C   UNL     1       5.220  78.873  19.110  0.00  0.00    +0.038 A 
ATOM     11  C   UNL     1       4.033  78.355  19.688  0.00  0.00    +0.047 A 
ATOM     12  C   UNL     1       3.200  79.172  20.556  0.00  0.00    +0.035 A 
ATOM     32  C   UNL     1       3.605  80.515  20.813  0.00  0.00    +0.024 A 
ATOM     33  C   UNL     1       4.809  81.057  20.235  0.00  0.00    +0.007 A 
ATOM     34  C   UNL     1       5.636  80.254  19.379  0.00  0.00    -0.029 A 
ATOM     35  C   UNL     1       6.920  80.886  18.792  0.00  0.00    +0.045 C 
ENDROOT
BRANCH  10   9
ATOM      4  C   UNL     1       6.420  77.145  14.796  0.00  0.00    +0.077 A 
ATOM      5  C   UNL     1       5.426  77.941  14.135  0.00  0.00    +0.048 A 
ATOM      6  C   UNL     1       4.622  78.777  14.942  0.00  0.00    +0.116 A 
ATOM      7  N   UNL     1       4.807  78.806  16.308  0.00  0.00    -0.223 NA
ATOM      8  C   UNL     1       5.773  78.024  16.913  0.00  0.00    +0.220 A 
ATOM      9  N   UNL     1       5.982  78.044  18.284  0.00  0.00    -0.283 N 
ATOM     36  H   UNL     1       6.700  77.446  18.693  0.00  0.00    +0.155 HD
ATOM     37  N   UNL     1       6.553  77.216  16.165  0.00  0.00    -0.214 NA
BRANCH   4   3
ATOM      1  C   UNL     1       8.525  75.386  12.007  0.00  0.00    +0.020 A 
ATOM      2  C   UNL     1       7.619  76.310  12.650  0.00  0.00    +0.013 A 
ATOM      3  C   UNL     1       7.348  76.214  14.079  0.00  0.00    +0.019 A 
ATOM     38  C   UNL     1       8.017  75.165  14.835  0.00  0.00    +0.120 A 
ATOM     39  N   UNL     1       8.883  74.290  14.188  0.00  0.00    -0.263 NA
ATOM     40  C   UNL     1       9.150  74.371  12.813  0.00  0.00    +0.111 A 
ENDBRANCH   4   3
ENDBRANCH  10   9
BRANCH  12  13
ATOM     13  N   UNL     1       1.988  78.698  21.178  0.00  0.00    -0.281 N 
ATOM     14  C   UNL     1       1.864  77.831  22.251  0.00  0.00    +0.248 C 
ATOM     30  O   UNL     1       2.779  77.160  22.706  0.00  0.00    -0.270 OA
ATOM     31  H   UNL     1       1.116  79.044  20.778  0.00  0.00    +0.155 HD
BRANCH  14  15
ATOM     15  C   UNL     1       0.529  77.676  22.903  0.00  0.00    +0.037 A 
ATOM     16  C   UNL     1       0.366  77.841  24.350  0.00  0.00    +0.013 A 
ATOM     17  C   UNL     1      -0.930  77.669  24.956  0.00  0.00    +0.005 A 
ATOM     18  C   UNL     1      -2.076  77.331  24.115  0.00  0.00    -0.033 A 
ATOM     28  C   UNL     1      -1.887  77.178  22.681  0.00  0.00    +0.005 A 
ATOM     29  C   UNL     1      -0.618  77.345  22.084  0.00  0.00    +0.013 A 
BRANCH  18  19
ATOM     19  C   UNL     1      -3.491  77.108  24.679  0.00  0.00    +0.119 C 
BRANCH  19  20
ATOM     20  N   UNL     1      -4.256  75.934  24.162  0.00  0.00    -0.302 NA
ATOM     21  C   UNL     1      -5.501  76.360  23.378  0.00  0.00    +0.066 C 
ATOM     22  C   UNL     1      -6.277  75.120  22.825  0.00  0.00    -0.064 C 
ATOM     23  N   UNL     1      -6.657  74.200  23.987  0.00  0.00    +0.379 N 
ATOM     24  C   UNL     1      -7.437  73.063  23.478  0.00  0.00    -0.096 C 
ATOM     25  H   UNL     1      -7.314  74.780  24.676  0.00  0.00    -0.082 HD
ATOM     26  C   UNL     1      -5.425  73.775  24.774  0.00  0.00    -0.064 C 
ATOM     27  C   UNL     1      -4.645  75.015  25.293  0.00  0.00    +0.066 C 
ENDBRANCH  19  20
ENDBRANCH  18  19
ENDBRANCH  14  15
ENDBRANCH  12  13
TORSDOF 6
ENDMDL
MODEL 4
REMARK VINA RESULT:      -9.6      2.967      4.511
REMARK  Name = C:\Users\Docking\Desktop\test protocol\1iep_ligandH.pdb
REMARK  8 active torsions:
REMARK  status: ('A' for Active; 'I' for Inactive)
REMARK    1  A    between atoms: _5  and  _11
REMARK    2  A    between atoms: _19  and  _21
REMARK    3  A    between atoms: _22  and  _66
REMARK    4  A    between atoms: _27  and  _30
REMARK    5  A    between atoms: _32  and  _33
REMARK    6  A    between atoms: _38  and  _43
REMARK    7  A    between atoms: _43  and  _46
REMARK    8  A    between atoms: _53  and  _55
REMARK                            x       y       z     vdW  Elec       q    Type
REMARK                         _______ _______ _______ _____ _____    ______ ____
ROOT
ATOM     10  C   UNL     1       2.045  80.381  18.277  0.00  0.00    +0.038 A 
ATOM     11  C   UNL     1       3.011  79.627  17.563  0.00  0.00    +0.047 A 
ATOM     12  C   UNL     1       2.707  79.057  16.260  0.00  0.00    +0.035 A 
ATOM     32  C   UNL     1       1.410  79.279  15.711  0.00  0.00    +0.024 A 
ATOM     33  C   UNL     1       0.416  80.042  16.424  0.00  0.00    +0.007 A 
ATOM     34  C   UNL     1       0.709  80.604  17.712  0.00  0.00    -0.029 A 
ATOM     35  C   UNL     1      -0.397  81.408  18.433  0.00  0.00    +0.045 C 
ENDROOT
BRANCH  10   9
ATOM      4  C   UNL     1       2.700  79.952  23.013  0.00  0.00    +0.077 A 
ATOM      5  C   UNL     1       2.294  78.576  23.004  0.00  0.00    +0.048 A 
ATOM      6  C   UNL     1       1.918  78.019  21.762  0.00  0.00    +0.116 A 
ATOM      7  N   UNL     1       1.949  78.789  20.620  0.00  0.00    -0.223 NA
ATOM      8  C   UNL     1       2.344  80.113  20.663  0.00  0.00    +0.220 A 
ATOM      9  N   UNL     1       2.391  80.904  19.525  0.00  0.00    -0.283 N 
ATOM     36  H   UNL     1       2.680  81.879  19.601  0.00  0.00    +0.155 HD
ATOM     37  N   UNL     1       2.707  80.670  21.838  0.00  0.00    -0.214 NA
BRANCH   4   3
ATOM      1  C   UNL     1       3.790  80.766  26.680  0.00  0.00    +0.020 A 
ATOM      2  C   UNL     1       3.376  80.014  25.518  0.00  0.00    +0.013 A 
ATOM      3  C   UNL     1       3.130  80.683  24.247  0.00  0.00    +0.019 A 
ATOM     38  C   UNL     1       3.313  82.125  24.185  0.00  0.00    +0.120 A 
ATOM     39  N   UNL     1       3.711  82.823  25.321  0.00  0.00    -0.263 NA
ATOM     40  C   UNL     1       3.949  82.190  26.550  0.00  0.00    +0.111 A 
ENDBRANCH   4   3
ENDBRANCH  10   9
BRANCH  12  13
ATOM     13  N   UNL     1       3.645  78.276  15.491  0.00  0.00    -0.281 N 
ATOM     14  C   UNL     1       4.822  78.701  14.897  0.00  0.00    +0.248 C 
ATOM     30  O   UNL     1       5.141  79.872  14.755  0.00  0.00    -0.270 OA
ATOM     31  H   UNL     1       3.412  77.290  15.371  0.00  0.00    +0.155 HD
BRANCH  14  15
ATOM     15  C   UNL     1       5.775  77.677  14.372  0.00  0.00    +0.037 A 
ATOM     16  C   UNL     1       5.885  76.353  14.990  0.00  0.00    +0.013 A 
ATOM     17  C   UNL     1       6.826  75.390  14.474  0.00  0.00    +0.005 A 
ATOM     18  C   UNL     1       7.663  75.748  13.331  0.00  0.00    -0.033 A 
ATOM     28  C   UNL     1       7.530  77.066  12.734  0.00  0.00    +0.005 A 
ATOM     29  C   UNL     1       6.610  78.013  13.238  0.00  0.00    +0.013 A 
BRANCH  18  19
ATOM     19  C   UNL     1       8.709  74.791  12.728  0.00  0.00    +0.119 C 
BRANCH  19  20
ATOM     20  N   UNL     1       9.991  74.620  13.475  0.00  0.00    -0.302 NA
ATOM     21  C   UNL     1      11.084  73.997  12.603  0.00  0.00    +0.066 C 
ATOM     22  C   UNL     1      12.425  73.846  13.394  0.00  0.00    -0.064 C 
ATOM     23  N   UNL     1      12.184  73.002  14.646  0.00  0.00    +0.379 N 
ATOM     24  C   UNL     1      13.454  72.811  15.361  0.00  0.00    -0.096 C 
ATOM     25  H   UNL     1      11.827  72.000  14.315  0.00  0.00    -0.082 HD
ATOM     26  C   UNL     1      11.096  73.614  15.517  0.00  0.00    -0.064 C 
ATOM     27  C   UNL     1       9.776  73.786  14.714  0.00  0.00    +0.066 C 
ENDBRANCH  19  20
ENDBRANCH  18  19
ENDBRANCH  14  15
ENDBRANCH  12  13
TORSDOF 6
ENDMDL
MODEL 5
REMARK VINA RESULT:      -9.5      2.563     13.210
REMARK  Name = C:\Users\Docking\Desktop\test protocol\1iep_ligandH.pdb
REMARK  8 active torsions:
REMARK  status: ('A' for Active; 'I' for Inactive)
REMARK    1  A    between atoms: _5  and  _11
REMARK    2  A    between atoms: _19  and  _21
REMARK    3  A    between atoms: _22  and  _66
REMARK    4  A    between atoms: _27  and  _30
REMARK    5  A    between atoms: _32  and  _33
REMARK    6  A    between atoms: _38  and  _43
REMARK    7  A    between atoms: _43  and  _46
REMARK    8  A    between atoms: _53  and  _55
REMARK                            x       y       z     vdW  Elec       q    Type
REMARK                         _______ _______ _______ _____ _____    ______ ____
ROOT
ATOM     10  C   UNL     1       4.933  78.314  20.221  0.00  0.00    +0.038 A 
ATOM     11  C   UNL     1       3.592  77.942  20.491  0.00  0.00    +0.047 A 
ATOM     12  C   UNL     1       2.884  78.467  21.649  0.00  0.00    +0.035 A 
ATOM     32  C   UNL     1       3.573  79.371  22.509  0.00  0.00    +0.024 A 
ATOM     33  C   UNL     1       4.937  79.760  22.249  0.00  0.00    +0.007 A 
ATOM     34  C   UNL     1       5.641  79.243  21.110  0.00  0.00    -0.029 A 
ATOM     35  C   UNL     1       7.104  79.689  20.884  0.00  0.00    +0.045 C 
ENDROOT
BRANCH  10   9
ATOM      4  C   UNL     1       5.644  78.077  15.480  0.00  0.00    +0.077 A 
ATOM      5  C   UNL     1       4.655  79.084  15.221  0.00  0.00    +0.048 A 
ATOM      6  C   UNL     1       3.981  79.632  16.336  0.00  0.00    +0.116 A 
ATOM      7  N   UNL     1       4.282  79.199  17.609  0.00  0.00    -0.223 NA
ATOM      8  C   UNL     1       5.240  78.225  17.823  0.00  0.00    +0.220 A 
ATOM      9  N   UNL     1       5.565  77.780  19.095  0.00  0.00    -0.283 N 
ATOM     36  H   UNL     1       6.272  77.055  19.210  0.00  0.00    +0.155 HD
ATOM     37  N   UNL     1       5.897  77.685  16.775  0.00  0.00    -0.214 NA
BRANCH   4   3
ATOM      1  C   UNL     1       7.510  75.377  13.352  0.00  0.00    +0.020 A 
ATOM      2  C   UNL     1       6.733  75.977  14.412  0.00  0.00    +0.013 A 
ATOM      3  C   UNL     1       6.444  77.405  14.407  0.00  0.00    +0.019 A 
ATOM     38  C   UNL     1       6.958  78.205  13.305  0.00  0.00    +0.120 A 
ATOM     39  N   UNL     1       7.704  77.600  12.299  0.00  0.00    -0.263 NA
ATOM     40  C   UNL     1       7.990  76.227  12.294  0.00  0.00    +0.111 A 
ENDBRANCH   4   3
ENDBRANCH  10   9
BRANCH  12  13
ATOM     13  N   UNL     1       1.525  78.118  21.979  0.00  0.00    -0.281 N 
ATOM     14  C   UNL     1       0.383  78.885  21.808  0.00  0.00    +0.248 C 
ATOM     30  O   UNL     1       0.386  80.077  21.541  0.00  0.00    -0.270 OA
ATOM     31  H   UNL     1       1.387  77.194  22.388  0.00  0.00    +0.155 HD
BRANCH  14  15
ATOM     15  C   UNL     1      -0.953  78.237  21.973  0.00  0.00    +0.037 A 
ATOM     16  C   UNL     1      -2.191  78.959  21.668  0.00  0.00    +0.013 A 
ATOM     17  C   UNL     1      -3.468  78.316  21.852  0.00  0.00    +0.005 A 
ATOM     18  C   UNL     1      -3.513  76.941  22.341  0.00  0.00    -0.033 A 
ATOM     28  C   UNL     1      -2.270  76.245  22.630  0.00  0.00    +0.005 A 
ATOM     29  C   UNL     1      -1.016  76.873  22.453  0.00  0.00    +0.013 A 
BRANCH  18  19
ATOM     19  C   UNL     1      -4.831  76.183  22.586  0.00  0.00    +0.119 C 
BRANCH  19  20
ATOM     20  N   UNL     1      -4.939  75.389  23.847  0.00  0.00    -0.302 NA
ATOM     21  C   UNL     1      -6.050  74.337  23.770  0.00  0.00    +0.066 C 
ATOM     22  C   UNL     1      -6.134  73.501  25.088  0.00  0.00    -0.064 C 
ATOM     23  N   UNL     1      -6.361  74.442  26.272  0.00  0.00    +0.379 N 
ATOM     24  C   UNL     1      -6.499  73.655  27.506  0.00  0.00    -0.096 C 
ATOM     25  H   UNL     1      -7.325  74.974  26.101  0.00  0.00    -0.082 HD
ATOM     26  C   UNL     1      -5.263  75.493  26.355  0.00  0.00    -0.064 C 
ATOM     27  C   UNL     1      -5.168  76.299  25.029  0.00  0.00    +0.066 C 
ENDBRANCH  19  20
ENDBRANCH  18  19
ENDBRANCH  14  15
ENDBRANCH  12  13
TORSDOF 6
ENDMDL
