MODEL 1
REMARK VINA RESULT:     -11.3      0.000      0.000
REMARK  Name = C:\Users\Docking\Desktop\test protocol\1iep_ligandH.pdb
REMARK  8 active torsions:
REMARK  status: ('A' for Active; 'I' for Inactive)
REMARK    1  A    between atoms: _5  and  _11
REMARK    2  A    between atoms: _19  and  _21
REMARK    3  A    between atoms: _22  and  _66
REMARK    4  A    between atoms: _27  and  _30
REMARK    5  A    between atoms: _32  and  _33
REMARK    6  A    between atoms: _38  and  _43
REMARK    7  A    between atoms: _43  and  _46
REMARK    8  A    between atoms: _53  and  _55
REMARK                            x       y       z     vdW  Elec       q    Type
REMARK                         _______ _______ _______ _____ _____    ______ ____
ROOT
ATOM     10  C   UNL     1      11.028  73.864  11.976  0.00  0.00    +0.038 A 
ATOM     11  C   UNL     1      10.999  73.034  10.826  0.00  0.00    +0.047 A 
ATOM     12  C   UNL     1      11.950  71.945  10.659  0.00  0.00    +0.035 A 
ATOM     32  C   UNL     1      12.916  71.729  11.685  0.00  0.00    +0.024 A 
ATOM     33  C   UNL     1      12.960  72.563  12.860  0.00  0.00    +0.007 A 
ATOM     34  C   UNL     1      12.026  73.640  13.029  0.00  0.00    -0.029 A 
ATOM     35  C   UNL     1      12.125  74.507  14.305  0.00  0.00    +0.045 C 
ENDROOT
BRANCH  10   9
ATOM      4  C   UNL     1       7.036  75.777  13.830  0.00  0.00    +0.077 A 
ATOM      5  C   UNL     1       6.780  74.614  14.630  0.00  0.00    +0.048 A 
ATOM      6  C   UNL     1       7.696  73.543  14.530  0.00  0.00    +0.116 A 
ATOM      7  N   UNL     1       8.783  73.638  13.690  0.00  0.00    -0.223 NA
ATOM      8  C   UNL     1       9.000  74.773  12.930  0.00  0.00    +0.220 A 
ATOM      9  N   UNL     1      10.092  74.894  12.084  0.00  0.00    -0.283 N 
ATOM     36  H   UNL     1      10.212  75.745  11.535  0.00  0.00    +0.155 HD
ATOM     37  N   UNL     1       8.139  75.809  13.007  0.00  0.00    -0.214 NA
BRANCH   4   3
ATOM      1  C   UNL     1       4.105  78.268  14.541  0.00  0.00    +0.020 A 
ATOM      2  C   UNL     1       4.913  77.070  14.576  0.00  0.00    +0.013 A 
ATOM      3  C   UNL     1       6.161  76.992  13.828  0.00  0.00    +0.019 A 
ATOM     38  C   UNL     1       6.568  78.152  13.049  0.00  0.00    +0.120 A 
ATOM     39  N   UNL     1       5.769  79.291  13.033  0.00  0.00    -0.263 NA
ATOM     40  C   UNL     1       4.565  79.377  13.747  0.00  0.00    +0.111 A 
ENDBRANCH   4   3
ENDBRANCH  10   9
BRANCH  12  13
ATOM     13  N   UNL     1      11.974  71.075   9.510  0.00  0.00    -0.281 N 
ATOM     14  C   UNL     1      12.948  70.986   8.529  0.00  0.00    +0.248 C 
ATOM     30  O   UNL     1      13.850  71.797   8.375  0.00  0.00    -0.270 OA
ATOM     31  H   UNL     1      11.176  70.448   9.407  0.00  0.00    +0.155 HD
BRANCH  14  15
ATOM     15  C   UNL     1      12.907  69.839   7.572  0.00  0.00    +0.037 A 
ATOM     16  C   UNL     1      12.545  68.491   8.017  0.00  0.00    +0.013 A 
ATOM     17  C   UNL     1      12.530  67.398   7.077  0.00  0.00    +0.005 A 
ATOM     18  C   UNL     1      12.876  67.651   5.680  0.00  0.00    -0.033 A 
ATOM     28  C   UNL     1      13.225  68.999   5.264  0.00  0.00    +0.005 A 
ATOM     29  C   UNL     1      13.243  70.072   6.184  0.00  0.00    +0.013 A 
BRANCH  18  19
ATOM     19  C   UNL     1      12.906  66.542   4.612  0.00  0.00    +0.119 C 
BRANCH  19  20
ATOM     20  N   UNL     1      12.893  66.969   3.181  0.00  0.00    -0.302 NA
ATOM     21  C   UNL     1      11.469  67.122   2.639  0.00  0.00    +0.066 C 
ATOM     22  C   UNL     1      11.475  67.592   1.148  0.00  0.00    -0.064 C 
ATOM     23  N   UNL     1      12.271  66.594   0.305  0.00  0.00    +0.379 N 
ATOM     24  C   UNL     1      12.230  67.002  -1.107  0.00  0.00    -0.096 C 
ATOM     25  H   UNL     1      11.766  65.604   0.386  0.00  0.00    -0.082 HD
ATOM     26  C   UNL     1      13.688  66.435   0.839  0.00  0.00    -0.064 C 
ATOM     27  C   UNL     1      13.671  65.996   2.330  0.00  0.00    +0.066 C 
ENDBRANCH  19  20
ENDBRANCH  18  19
ENDBRANCH  14  15
ENDBRANCH  12  13
TORSDOF 6
ENDMDL
MODEL 2
REMARK VINA RESULT:     -11.3      1.129      1.591
REMARK  Name = C:\Users\Docking\Desktop\test protocol\1iep_ligandH.pdb
REMARK  8 active torsions:
REMARK  status: ('A' for Active; 'I' for Inactive)
REMARK    1  A    between atoms: _5  and  _11
REMARK    2  A    between atoms: _19  and  _21
REMARK    3  A    between atoms: _22  and  _66
REMARK    4  A    between atoms: _27  and  _30
REMARK    5  A    between atoms: _32  and  _33
REMARK    6  A    between atoms: _38  and  _43
REMARK    7  A    between atoms: _43  and  _46
REMARK    8  A    between atoms: _53  and  _55
REMARK                            x       y       z     vdW  Elec       q    Type
REMARK                         _______ _______ _______ _____ _____    ______ ____
ROOT
ATOM     10  C   UNL     1      11.229  73.871  11.955  0.00  0.00    +0.038 A 
ATOM     11  C   UNL     1      11.173  73.092  10.770  0.00  0.00    +0.047 A 
ATOM     12  C   UNL     1      12.101  71.995  10.546  0.00  0.00    +0.035 A 
ATOM     32  C   UNL     1      13.073  71.717  11.551  0.00  0.00    +0.024 A 
ATOM     33  C   UNL     1      13.146  72.499  12.760  0.00  0.00    +0.007 A 
ATOM     34  C   UNL     1      12.234  73.584  12.986  0.00  0.00    -0.029 A 
ATOM     35  C   UNL     1      12.361  74.392  14.298  0.00  0.00    +0.045 C 
ENDROOT
BRANCH  10   9
ATOM      4  C   UNL     1       7.228  75.731  13.845  0.00  0.00    +0.077 A 
ATOM      5  C   UNL     1       6.923  74.516  14.544  0.00  0.00    +0.048 A 
ATOM      6  C   UNL     1       7.818  73.434  14.386  0.00  0.00    +0.116 A 
ATOM      7  N   UNL     1       8.931  73.568  13.585  0.00  0.00    -0.223 NA
ATOM      8  C   UNL     1       9.195  74.753  12.922  0.00  0.00    +0.220 A 
ATOM      9  N   UNL     1      10.313  74.912  12.118  0.00  0.00    -0.283 N 
ATOM     36  H   UNL     1      10.468  75.800  11.641  0.00  0.00    +0.155 HD
ATOM     37  N   UNL     1       8.355  75.801  13.056  0.00  0.00    -0.214 NA
BRANCH   4   3
ATOM      1  C   UNL     1       4.249  78.182  14.491  0.00  0.00    +0.020 A 
ATOM      2  C   UNL     1       5.024  76.963  14.446  0.00  0.00    +0.013 A 
ATOM      3  C   UNL     1       6.381  76.964  13.914  0.00  0.00    +0.019 A 
ATOM     38  C   UNL     1       6.929  78.223  13.434  0.00  0.00    +0.120 A 
ATOM     39  N   UNL     1       6.158  79.380  13.489  0.00  0.00    -0.263 NA
ATOM     40  C   UNL     1       4.850  79.392  13.996  0.00  0.00    +0.111 A 
ENDBRANCH   4   3
ENDBRANCH  10   9
BRANCH  12  13
ATOM     13  N   UNL     1      12.097  71.176   9.360  0.00  0.00    -0.281 N 
ATOM     14  C   UNL     1      13.070  71.096   8.376  0.00  0.00    +0.248 C 
ATOM     30  O   UNL     1      13.999  71.881   8.258  0.00  0.00    -0.270 OA
ATOM     31  H   UNL     1      11.278  70.582   9.229  0.00  0.00    +0.155 HD
BRANCH  14  15
ATOM     15  C   UNL     1      12.990  69.994   7.370  0.00  0.00    +0.037 A 
ATOM     16  C   UNL     1      12.606  68.635   7.760  0.00  0.00    +0.013 A 
ATOM     17  C   UNL     1      12.554  67.586   6.773  0.00  0.00    +0.005 A 
ATOM     18  C   UNL     1      12.886  67.894   5.384  0.00  0.00    -0.033 A 
ATOM     28  C   UNL     1      13.259  69.251   5.023  0.00  0.00    +0.005 A 
ATOM     29  C   UNL     1      13.312  70.282   5.989  0.00  0.00    +0.013 A 
BRANCH  18  19
ATOM     19  C   UNL     1      12.877  66.833   4.267  0.00  0.00    +0.119 C 
BRANCH  19  20
ATOM     20  N   UNL     1      11.634  66.710   3.450  0.00  0.00    -0.302 NA
ATOM     21  C   UNL     1      11.535  67.806   2.385  0.00  0.00    +0.066 C 
ATOM     22  C   UNL     1      10.239  67.649   1.525  0.00  0.00    -0.064 C 
ATOM     23  N   UNL     1       9.015  67.673   2.442  0.00  0.00    +0.379 N 
ATOM     24  C   UNL     1       7.792  67.584   1.631  0.00  0.00    -0.096 C 
ATOM     25  H   UNL     1       9.004  68.658   2.965  0.00  0.00    -0.082 HD
ATOM     26  C   UNL     1       9.106  66.588   3.506  0.00  0.00    -0.064 C 
ATOM     27  C   UNL     1      10.412  66.736   4.336  0.00  0.00    +0.066 C 
ENDBRANCH  19  20
ENDBRANCH  18  19
ENDBRANCH  14  15
ENDBRANCH  12  13
TORSDOF 6
ENDMDL
MODEL 3
REMARK VINA RESULT:     -11.2      2.175     13.127
REMARK  Name = C:\Users\Docking\Desktop\test protocol\1iep_ligandH.pdb
REMARK  8 active torsions:
REMARK  status: ('A' for Active; 'I' for Inactive)
REMARK    1  A    between atoms: _5  and  _11
REMARK    2  A    between atoms: _19  and  _21
REMARK    3  A    between atoms: _22  and  _66
REMARK    4  A    between atoms: _27  and  _30
REMARK    5  A    between atoms: _32  and  _33
REMARK    6  A    between atoms: _38  and  _43
REMARK    7  A    between atoms: _43  and  _46
REMARK    8  A    between atoms: _53  and  _55
REMARK                            x       y       z     vdW  Elec       q    Type
REMARK                         _______ _______ _______ _____ _____    ______ ____
ROOT
ATOM     10  C   UNL     1      12.118  71.832  10.323  0.00  0.00    +0.038 A 
ATOM     11  C   UNL     1      10.891  72.442  10.688  0.00  0.00    +0.047 A 
ATOM     12  C   UNL     1      10.859  73.603  11.564  0.00  0.00    +0.035 A 
ATOM     32  C   UNL     1      12.096  74.118  12.049  0.00  0.00    +0.024 A 
ATOM     33  C   UNL     1      13.353  73.509  11.689  0.00  0.00    +0.007 A 
ATOM     34  C   UNL     1      13.390  72.362  10.827  0.00  0.00    -0.029 A 
ATOM     35  C   UNL     1      14.766  71.746  10.480  0.00  0.00    +0.045 C 
ENDROOT
BRANCH  10   9
ATOM      4  C   UNL     1      13.036  69.672   6.136  0.00  0.00    +0.077 A 
ATOM      5  C   UNL     1      13.594  70.868   5.574  0.00  0.00    +0.048 A 
ATOM      6  C   UNL     1      13.619  72.019   6.393  0.00  0.00    +0.116 A 
ATOM      7  N   UNL     1      13.122  71.966   7.677  0.00  0.00    -0.223 NA
ATOM      8  C   UNL     1      12.589  70.797   8.188  0.00  0.00    +0.220 A 
ATOM      9  N   UNL     1      12.090  70.719   9.479  0.00  0.00    -0.283 N 
ATOM     36  H   UNL     1      11.698  69.840   9.816  0.00  0.00    +0.155 HD
ATOM     37  N   UNL     1      12.552  69.684   7.425  0.00  0.00    -0.214 NA
BRANCH   4   3
ATOM      1  C   UNL     1      12.758  65.859   5.309  0.00  0.00    +0.020 A 
ATOM      2  C   UNL     1      12.848  67.084   6.070  0.00  0.00    +0.013 A 
ATOM      3  C   UNL     1      12.941  68.373   5.397  0.00  0.00    +0.019 A 
ATOM     38  C   UNL     1      12.941  68.389   3.942  0.00  0.00    +0.120 A 
ATOM     39  N   UNL     1      12.855  67.193   3.236  0.00  0.00    -0.263 NA
ATOM     40  C   UNL     1      12.766  65.946   3.872  0.00  0.00    +0.111 A 
ENDBRANCH   4   3
ENDBRANCH  10   9
BRANCH  12  13
ATOM     13  N   UNL     1       9.643  74.260  11.975  0.00  0.00    -0.281 N 
ATOM     14  C   UNL     1       8.901  74.037  13.124  0.00  0.00    +0.248 C 
ATOM     30  O   UNL     1       9.056  73.084  13.873  0.00  0.00    -0.270 OA
ATOM     31  H   UNL     1       9.285  74.976  11.342  0.00  0.00    +0.155 HD
BRANCH  14  15
ATOM     15  C   UNL     1       7.821  75.005  13.484  0.00  0.00    +0.037 A 
ATOM     16  C   UNL     1       7.736  76.322  12.847  0.00  0.00    +0.013 A 
ATOM     17  C   UNL     1       6.695  77.243  13.226  0.00  0.00    +0.005 A 
ATOM     18  C   UNL     1       5.728  76.850  14.248  0.00  0.00    -0.033 A 
ATOM     28  C   UNL     1       5.832  75.536  14.860  0.00  0.00    +0.005 A 
ATOM     29  C   UNL     1       6.852  74.631  14.492  0.00  0.00    +0.013 A 
BRANCH  18  19
ATOM     19  C   UNL     1       4.596  77.778  14.729  0.00  0.00    +0.119 C 
BRANCH  19  20
ATOM     20  N   UNL     1       3.441  77.983  13.805  0.00  0.00    -0.302 NA
ATOM     21  C   UNL     1       3.592  79.260  12.973  0.00  0.00    +0.066 C 
ATOM     22  C   UNL     1       2.386  79.448  11.995  0.00  0.00    -0.064 C 
ATOM     23  N   UNL     1       1.083  79.474  12.797  0.00  0.00    +0.379 N 
ATOM     24  C   UNL     1      -0.048  79.709  11.887  0.00  0.00    -0.096 C 
ATOM     25  H   UNL     1       1.137  80.338  13.500  0.00  0.00    -0.082 HD
ATOM     26  C   UNL     1       0.927  78.210  13.630  0.00  0.00    -0.064 C 
ATOM     27  C   UNL     1       2.144  78.017  14.576  0.00  0.00    +0.066 C 
ENDBRANCH  19  20
ENDBRANCH  18  19
ENDBRANCH  14  15
ENDBRANCH  12  13
TORSDOF 6
ENDMDL
MODEL 4
REMARK VINA RESULT:     -11.1      1.942      2.567
REMARK  Name = C:\Users\Docking\Desktop\test protocol\1iep_ligandH.pdb
REMARK  8 active torsions:
REMARK  status: ('A' for Active; 'I' for Inactive)
REMARK    1  A    between atoms: _5  and  _11
REMARK    2  A    between atoms: _19  and  _21
REMARK    3  A    between atoms: _22  and  _66
REMARK    4  A    between atoms: _27  and  _30
REMARK    5  A    between atoms: _32  and  _33
REMARK    6  A    between atoms: _38  and  _43
REMARK    7  A    between atoms: _43  and  _46
REMARK    8  A    between atoms: _53  and  _55
REMARK                            x       y       z     vdW  Elec       q    Type
REMARK                         _______ _______ _______ _____ _____    ______ ____
ROOT
ATOM     10  C   UNL     1      12.745  74.633  10.721  0.00  0.00    +0.038 A 
ATOM     11  C   UNL     1      12.665  73.523   9.842  0.00  0.00    +0.047 A 
ATOM     12  C   UNL     1      13.853  72.772   9.468  0.00  0.00    +0.035 A 
ATOM     32  C   UNL     1      15.107  73.177  10.011  0.00  0.00    +0.024 A 
ATOM     33  C   UNL     1      15.207  74.304  10.905  0.00  0.00    +0.007 A 
ATOM     34  C   UNL     1      14.039  75.051  11.275  0.00  0.00    -0.029 A 
ATOM     35  C   UNL     1      14.207  76.253  12.232  0.00  0.00    +0.045 C 
ENDROOT
BRANCH  10   9
ATOM      4  C   UNL     1       8.700  75.134  13.256  0.00  0.00    +0.077 A 
ATOM      5  C   UNL     1       8.929  73.913  13.973  0.00  0.00    +0.048 A 
ATOM      6  C   UNL     1      10.095  73.182  13.655  0.00  0.00    +0.116 A 
ATOM      7  N   UNL     1      10.962  73.647  12.690  0.00  0.00    -0.223 NA
ATOM      8  C   UNL     1      10.711  74.828  12.015  0.00  0.00    +0.220 A 
ATOM      9  N   UNL     1      11.573  75.319  11.047  0.00  0.00    -0.283 N 
ATOM     36  H   UNL     1      11.348  76.190  10.567  0.00  0.00    +0.155 HD
ATOM     37  N   UNL     1       9.603  75.544  12.300  0.00  0.00    -0.214 NA
BRANCH   4   3
ATOM      1  C   UNL     1       5.340  76.597  14.623  0.00  0.00    +0.020 A 
ATOM      2  C   UNL     1       6.464  75.708  14.443  0.00  0.00    +0.013 A 
ATOM      3  C   UNL     1       7.514  76.019  13.481  0.00  0.00    +0.019 A 
ATOM     38  C   UNL     1       7.395  77.248  12.711  0.00  0.00    +0.120 A 
ATOM     39  N   UNL     1       6.300  78.085  12.905  0.00  0.00    -0.263 NA
ATOM     40  C   UNL     1       5.283  77.794  13.826  0.00  0.00    +0.111 A 
ENDBRANCH   4   3
ENDBRANCH  10   9
BRANCH  12  13
ATOM     13  N   UNL     1      13.834  71.641   8.574  0.00  0.00    -0.281 N 
ATOM     14  C   UNL     1      12.987  70.545   8.604  0.00  0.00    +0.248 C 
ATOM     30  O   UNL     1      12.252  70.266   9.539  0.00  0.00    -0.270 OA
ATOM     31  H   UNL     1      14.529  71.650   7.827  0.00  0.00    +0.155 HD
BRANCH  14  15
ATOM     15  C   UNL     1      12.965  69.618   7.433  0.00  0.00    +0.037 A 
ATOM     16  C   UNL     1      13.282  70.090   6.083  0.00  0.00    +0.013 A 
ATOM     17  C   UNL     1      13.236  69.178   4.967  0.00  0.00    +0.005 A 
ATOM     18  C   UNL     1      12.872  67.782   5.198  0.00  0.00    -0.033 A 
ATOM     28  C   UNL     1      12.567  67.339   6.549  0.00  0.00    +0.005 A 
ATOM     29  C   UNL     1      12.610  68.230   7.644  0.00  0.00    +0.013 A 
BRANCH  18  19
ATOM     19  C   UNL     1      12.777  66.744   4.065  0.00  0.00    +0.119 C 
BRANCH  19  20
ATOM     20  N   UNL     1      11.481  66.654   3.327  0.00  0.00    -0.302 NA
ATOM     21  C   UNL     1      11.301  67.809   2.339  0.00  0.00    +0.066 C 
ATOM     22  C   UNL     1       9.951  67.686   1.560  0.00  0.00    -0.064 C 
ATOM     23  N   UNL     1       8.792  67.641   2.557  0.00  0.00    +0.379 N 
ATOM     24  C   UNL     1       7.518  67.585   1.826  0.00  0.00    -0.096 C 
ATOM     25  H   UNL     1       8.808  68.594   3.137  0.00  0.00    -0.082 HD
ATOM     26  C   UNL     1       8.965  66.497   3.546  0.00  0.00    -0.064 C 
ATOM     27  C   UNL     1      10.323  66.612   4.293  0.00  0.00    +0.066 C 
ENDBRANCH  19  20
ENDBRANCH  18  19
ENDBRANCH  14  15
ENDBRANCH  12  13
TORSDOF 6
ENDMDL
MODEL 5
REMARK VINA RESULT:     -10.9      2.343     13.740
REMARK  Name = C:\Users\Docking\Desktop\test protocol\1iep_ligandH.pdb
REMARK  8 active torsions:
REMARK  status: ('A' for Active; 'I' for Inactive)
REMARK    1  A    between atoms: _5  and  _11
REMARK    2  A    between atoms: _19  and  _21
REMARK    3  A    between atoms: _22  and  _66
REMARK    4  A    between atoms: _27  and  _30
REMARK    5  A    between atoms: _32  and  _33
REMARK    6  A    between atoms: _38  and  _43
REMARK    7  A    between atoms: _43  and  _46
REMARK    8  A    between atoms: _53  and  _55
REMARK                            x       y       z     vdW  Elec       q    Type
REMARK                         _______ _______ _______ _____ _____    ______ ____
ROOT
ATOM     10  C   UNL     1      12.222  71.875  10.381  0.00  0.00    +0.038 A 
ATOM     11  C   UNL     1      10.981  72.457  10.748  0.00  0.00    +0.047 A 
ATOM     12  C   UNL     1      10.924  73.635  11.598  0.00  0.00    +0.035 A 
ATOM     32  C   UNL     1      12.151  74.198  12.057  0.00  0.00    +0.024 A 
ATOM     33  C   UNL     1      13.421  73.619  11.695  0.00  0.00    +0.007 A 
ATOM     34  C   UNL     1      13.484  72.455  10.858  0.00  0.00    -0.029 A 
ATOM     35  C   UNL     1      14.873  71.874  10.507  0.00  0.00    +0.045 C 
ENDROOT
BRANCH  10   9
ATOM      4  C   UNL     1      13.094  69.668   6.209  0.00  0.00    +0.077 A 
ATOM      5  C   UNL     1      13.572  70.877   5.602  0.00  0.00    +0.048 A 
ATOM      6  C   UNL     1      13.571  72.046   6.395  0.00  0.00    +0.116 A 
ATOM      7  N   UNL     1      13.123  71.999   7.698  0.00  0.00    -0.223 NA
ATOM      8  C   UNL     1      12.666  70.817   8.252  0.00  0.00    +0.220 A 
ATOM      9  N   UNL     1      12.218  70.744   9.562  0.00  0.00    -0.283 N 
ATOM     36  H   UNL     1      11.882  69.855   9.932  0.00  0.00    +0.155 HD
ATOM     37  N   UNL     1      12.656  69.687   7.515  0.00  0.00    -0.214 NA
BRANCH   4   3
ATOM      1  C   UNL     1      12.737  65.846   5.459  0.00  0.00    +0.020 A 
ATOM      2  C   UNL     1      12.782  67.091   6.190  0.00  0.00    +0.013 A 
ATOM      3  C   UNL     1      13.036  68.350   5.501  0.00  0.00    +0.019 A 
ATOM     38  C   UNL     1      13.240  68.314   4.061  0.00  0.00    +0.120 A 
ATOM     39  N   UNL     1      13.192  67.100   3.384  0.00  0.00    -0.263 NA
ATOM     40  C   UNL     1      12.950  65.882   4.036  0.00  0.00    +0.111 A 
ENDBRANCH   4   3
ENDBRANCH  10   9
BRANCH  12  13
ATOM     13  N   UNL     1       9.694  74.264  12.010  0.00  0.00    -0.281 N 
ATOM     14  C   UNL     1       8.940  74.002  13.143  0.00  0.00    +0.248 C 
ATOM     30  O   UNL     1       9.100  73.032  13.869  0.00  0.00    -0.270 OA
ATOM     31  H   UNL     1       9.334  74.991  11.391  0.00  0.00    +0.155 HD
BRANCH  14  15
ATOM     15  C   UNL     1       7.842  74.945  13.514  0.00  0.00    +0.037 A 
ATOM     16  C   UNL     1       6.822  74.575  14.498  0.00  0.00    +0.013 A 
ATOM     17  C   UNL     1       5.764  75.497  14.825  0.00  0.00    +0.005 A 
ATOM     18  C   UNL     1       5.721  76.801  14.167  0.00  0.00    -0.033 A 
ATOM     28  C   UNL     1       6.748  77.144  13.198  0.00  0.00    +0.005 A 
ATOM     29  C   UNL     1       7.787  76.242  12.874  0.00  0.00    +0.013 A 
BRANCH  18  19
ATOM     19  C   UNL     1       4.617  77.839  14.439  0.00  0.00    +0.119 C 
BRANCH  19  20
ATOM     20  N   UNL     1       4.300  78.142  15.867  0.00  0.00    -0.302 NA
ATOM     21  C   UNL     1       2.950  78.850  16.018  0.00  0.00    +0.066 C 
ATOM     22  C   UNL     1       2.625  79.139  17.519  0.00  0.00    -0.064 C 
ATOM     23  N   UNL     1       3.748  79.980  18.129  0.00  0.00    +0.379 N 
ATOM     24  C   UNL     1       3.417  80.303  19.525  0.00  0.00    -0.096 C 
ATOM     25  H   UNL     1       3.798  80.938  17.563  0.00  0.00    -0.082 HD
ATOM     26  C   UNL     1       5.094  79.285  17.981  0.00  0.00    -0.064 C 
ATOM     27  C   UNL     1       5.394  78.975  16.488  0.00  0.00    +0.066 C 
ENDBRANCH  19  20
ENDBRANCH  18  19
ENDBRANCH  14  15
ENDBRANCH  12  13
TORSDOF 6
ENDMDL
