MODEL 1
REMARK VINA RESULT:      -6.9      0.000      0.000
REMARK  Name = C:\Users\Docking\Desktop\test protocol\1iep_ligandH.pdb
REMARK  8 active torsions:
REMARK  status: ('A' for Active; 'I' for Inactive)
REMARK    1  A    between atoms: _5  and  _11
REMARK    2  A    between atoms: _19  and  _21
REMARK    3  A    between atoms: _22  and  _66
REMARK    4  A    between atoms: _27  and  _30
REMARK    5  A    between atoms: _32  and  _33
REMARK    6  A    between atoms: _38  and  _43
REMARK    7  A    between atoms: _43  and  _46
REMARK    8  A    between atoms: _53  and  _55
REMARK                            x       y       z     vdW  Elec       q    Type
REMARK                         _______ _______ _______ _____ _____    ______ ____
ROOT
ATOM     10  C   UNL     1     -69.524 125.871  35.353  0.00  0.00    +0.038 A 
ATOM     11  C   UNL     1     -68.678 124.740  35.228  0.00  0.00    +0.047 A 
ATOM     12  C   UNL     1     -69.076 123.585  34.439  0.00  0.00    +0.035 A 
ATOM     32  C   UNL     1     -70.343 123.617  33.787  0.00  0.00    +0.024 A 
ATOM     33  C   UNL     1     -71.217 124.758  33.904  0.00  0.00    +0.007 A 
ATOM     34  C   UNL     1     -70.830 125.899  34.683  0.00  0.00    -0.029 A 
ATOM     35  C   UNL     1     -71.809 127.092  34.778  0.00  0.00    +0.045 C 
ENDROOT
BRANCH  10   9
ATOM      4  C   UNL     1     -69.169 128.227  39.519  0.00  0.00    +0.077 A 
ATOM      5  C   UNL     1     -69.934 127.232  40.215  0.00  0.00    +0.048 A 
ATOM      6  C   UNL     1     -70.406 126.133  39.462  0.00  0.00    +0.116 A 
ATOM      7  N   UNL     1     -70.128 126.046  38.115  0.00  0.00    -0.223 NA
ATOM      8  C   UNL     1     -69.389 127.024  37.475  0.00  0.00    +0.220 A 
ATOM      9  N   UNL     1     -69.091 126.952  36.123  0.00  0.00    -0.283 N 
ATOM     36  H   UNL     1     -68.549 127.698  35.686  0.00  0.00    +0.155 HD
ATOM     37  N   UNL     1     -68.928 128.084  38.171  0.00  0.00    -0.214 NA
BRANCH   4   3
ATOM      1  C   UNL     1     -67.503 130.634  42.114  0.00  0.00    +0.020 A 
ATOM      2  C   UNL     1     -68.043 129.430  41.525  0.00  0.00    +0.013 A 
ATOM      3  C   UNL     1     -68.598 129.444  40.177  0.00  0.00    +0.019 A 
ATOM     38  C   UNL     1     -68.591 130.703  39.447  0.00  0.00    +0.120 A 
ATOM     39  N   UNL     1     -68.067 131.846  40.040  0.00  0.00    -0.263 NA
ATOM     40  C   UNL     1     -67.531 131.845  41.337  0.00  0.00    +0.111 A 
ENDBRANCH   4   3
ENDBRANCH  10   9
BRANCH  12  13
ATOM     13  N   UNL     1     -68.262 122.405  34.283  0.00  0.00    -0.281 N 
ATOM     14  C   UNL     1     -67.014 122.303  33.692  0.00  0.00    +0.248 C 
ATOM     30  O   UNL     1     -66.497 123.179  33.013  0.00  0.00    -0.270 OA
ATOM     31  H   UNL     1     -68.654 121.539  34.654  0.00  0.00    +0.155 HD
BRANCH  14  15
ATOM     15  C   UNL     1     -66.232 121.042  33.868  0.00  0.00    +0.037 A 
ATOM     16  C   UNL     1     -66.461 120.159  35.015  0.00  0.00    +0.013 A 
ATOM     17  C   UNL     1     -65.681 118.957  35.170  0.00  0.00    +0.005 A 
ATOM     18  C   UNL     1     -64.664 118.630  34.173  0.00  0.00    -0.033 A 
ATOM     28  C   UNL     1     -64.460 119.521  33.043  0.00  0.00    +0.005 A 
ATOM     29  C   UNL     1     -65.222 120.700  32.888  0.00  0.00    +0.013 A 
BRANCH  18  19
ATOM     19  C   UNL     1     -63.770 117.379  34.270  0.00  0.00    +0.119 C 
BRANCH  19  20
ATOM     20  N   UNL     1     -63.529 116.815  35.631  0.00  0.00    -0.302 NA
ATOM     21  C   UNL     1     -62.452 117.592  36.393  0.00  0.00    +0.066 C 
ATOM     22  C   UNL     1     -62.228 117.002  37.823  0.00  0.00    -0.064 C 
ATOM     23  N   UNL     1     -61.850 115.524  37.709  0.00  0.00    +0.379 N 
ATOM     24  C   UNL     1     -61.583 114.981  39.048  0.00  0.00    -0.096 C 
ATOM     25  H   UNL     1     -60.904 115.461  37.123  0.00  0.00    -0.082 HD
ATOM     26  C   UNL     1     -62.915 114.744  36.951  0.00  0.00    -0.064 C 
ATOM     27  C   UNL     1     -63.151 115.357  35.542  0.00  0.00    +0.066 C 
ENDBRANCH  19  20
ENDBRANCH  18  19
ENDBRANCH  14  15
ENDBRANCH  12  13
TORSDOF 6
ENDMDL
MODEL 2
REMARK VINA RESULT:      -6.6      3.120      4.144
REMARK  Name = C:\Users\Docking\Desktop\test protocol\1iep_ligandH.pdb
REMARK  8 active torsions:
REMARK  status: ('A' for Active; 'I' for Inactive)
REMARK    1  A    between atoms: _5  and  _11
REMARK    2  A    between atoms: _19  and  _21
REMARK    3  A    between atoms: _22  and  _66
REMARK    4  A    between atoms: _27  and  _30
REMARK    5  A    between atoms: _32  and  _33
REMARK    6  A    between atoms: _38  and  _43
REMARK    7  A    between atoms: _43  and  _46
REMARK    8  A    between atoms: _53  and  _55
REMARK                            x       y       z     vdW  Elec       q    Type
REMARK                         _______ _______ _______ _____ _____    ______ ____
ROOT
ATOM     10  C   UNL     1     -69.540 127.785  36.572  0.00  0.00    +0.038 A 
ATOM     11  C   UNL     1     -68.592 126.845  36.093  0.00  0.00    +0.047 A 
ATOM     12  C   UNL     1     -69.007 125.681  35.325  0.00  0.00    +0.035 A 
ATOM     32  C   UNL     1     -70.397 125.507  35.062  0.00  0.00    +0.024 A 
ATOM     33  C   UNL     1     -71.375 126.451  35.542  0.00  0.00    +0.007 A 
ATOM     34  C   UNL     1     -70.971 127.600  36.302  0.00  0.00    -0.029 A 
ATOM     35  C   UNL     1     -72.064 128.576  36.797  0.00  0.00    +0.045 C 
ENDROOT
BRANCH  10   9
ATOM      4  C   UNL     1     -68.469 129.963  40.712  0.00  0.00    +0.077 A 
ATOM      5  C   UNL     1     -68.874 128.824  41.485  0.00  0.00    +0.048 A 
ATOM      6  C   UNL     1     -69.359 127.700  40.778  0.00  0.00    +0.116 A 
ATOM      7  N   UNL     1     -69.429 127.725  39.402  0.00  0.00    -0.223 NA
ATOM      8  C   UNL     1     -69.032 128.840  38.688  0.00  0.00    +0.220 A 
ATOM      9  N   UNL     1     -69.086 128.884  37.304  0.00  0.00    -0.283 N 
ATOM     36  H   UNL     1     -68.791 129.728  36.814  0.00  0.00    +0.155 HD
ATOM     37  N   UNL     1     -68.567 129.927  39.339  0.00  0.00    -0.214 NA
BRANCH   4   3
ATOM      1  C   UNL     1     -67.635 133.729  41.359  0.00  0.00    +0.020 A 
ATOM      2  C   UNL     1     -68.176 132.542  40.739  0.00  0.00    +0.013 A 
ATOM      3  C   UNL     1     -67.933 131.225  41.314  0.00  0.00    +0.019 A 
ATOM     38  C   UNL     1     -67.133 131.143  42.526  0.00  0.00    +0.120 A 
ATOM     39  N   UNL     1     -66.623 132.304  43.101  0.00  0.00    -0.263 NA
ATOM     40  C   UNL     1     -66.849 133.576  42.556  0.00  0.00    +0.111 A 
ENDBRANCH   4   3
ENDBRANCH  10   9
BRANCH  12  13
ATOM     13  N   UNL     1     -68.090 124.690  34.820  0.00  0.00    -0.281 N 
ATOM     14  C   UNL     1     -67.881 123.404  35.292  0.00  0.00    +0.248 C 
ATOM     30  O   UNL     1     -68.300 122.984  36.360  0.00  0.00    -0.270 OA
ATOM     31  H   UNL     1     -67.528 124.969  34.016  0.00  0.00    +0.155 HD
BRANCH  14  15
ATOM     15  C   UNL     1     -67.078 122.453  34.465  0.00  0.00    +0.037 A 
ATOM     16  C   UNL     1     -66.808 121.088  34.924  0.00  0.00    +0.013 A 
ATOM     17  C   UNL     1     -66.016 120.197  34.114  0.00  0.00    +0.005 A 
ATOM     18  C   UNL     1     -65.489 120.668  32.835  0.00  0.00    -0.033 A 
ATOM     28  C   UNL     1     -65.776 122.025  32.402  0.00  0.00    +0.005 A 
ATOM     29  C   UNL     1     -66.551 122.902  33.193  0.00  0.00    +0.013 A 
BRANCH  18  19
ATOM     19  C   UNL     1     -64.617 119.792  31.916  0.00  0.00    +0.119 C 
BRANCH  19  20
ATOM     20  N   UNL     1     -65.282 118.642  31.235  0.00  0.00    -0.302 NA
ATOM     21  C   UNL     1     -64.734 117.295  31.714  0.00  0.00    +0.066 C 
ATOM     22  C   UNL     1     -65.457 116.102  31.008  0.00  0.00    -0.064 C 
ATOM     23  N   UNL     1     -65.303 116.241  29.492  0.00  0.00    +0.379 N 
ATOM     24  C   UNL     1     -65.931 115.091  28.827  0.00  0.00    -0.096 C 
ATOM     25  H   UNL     1     -64.213 116.212  29.260  0.00  0.00    -0.082 HD
ATOM     26  C   UNL     1     -65.842 117.579  29.007  0.00  0.00    -0.064 C 
ATOM     27  C   UNL     1     -65.138 118.757  29.737  0.00  0.00    +0.066 C 
ENDBRANCH  19  20
ENDBRANCH  18  19
ENDBRANCH  14  15
ENDBRANCH  12  13
TORSDOF 6
ENDMDL
MODEL 3
REMARK VINA RESULT:      -6.6     29.405     38.515
REMARK  Name = C:\Users\Docking\Desktop\test protocol\1iep_ligandH.pdb
REMARK  8 active torsions:
REMARK  status: ('A' for Active; 'I' for Inactive)
REMARK    1  A    between atoms: _5  and  _11
REMARK    2  A    between atoms: _19  and  _21
REMARK    3  A    between atoms: _22  and  _66
REMARK    4  A    between atoms: _27  and  _30
REMARK    5  A    between atoms: _32  and  _33
REMARK    6  A    between atoms: _38  and  _43
REMARK    7  A    between atoms: _43  and  _46
REMARK    8  A    between atoms: _53  and  _55
REMARK                            x       y       z     vdW  Elec       q    Type
REMARK                         _______ _______ _______ _____ _____    ______ ____
ROOT
ATOM     10  C   UNL     1     -47.362  91.401  23.251  0.00  0.00    +0.038 A 
ATOM     11  C   UNL     1     -47.780  92.352  24.217  0.00  0.00    +0.047 A 
ATOM     12  C   UNL     1     -47.136  92.434  25.519  0.00  0.00    +0.035 A 
ATOM     32  C   UNL     1     -46.068  91.534  25.804  0.00  0.00    +0.024 A 
ATOM     33  C   UNL     1     -45.631  90.561  24.834  0.00  0.00    +0.007 A 
ATOM     34  C   UNL     1     -46.264  90.473  23.549  0.00  0.00    -0.029 A 
ATOM     35  C   UNL     1     -45.758  89.406  22.550  0.00  0.00    +0.045 C 
ENDROOT
BRANCH  10   9
ATOM      4  C   UNL     1     -47.860  92.796  18.686  0.00  0.00    +0.077 A 
ATOM      5  C   UNL     1     -46.742  93.690  18.775  0.00  0.00    +0.048 A 
ATOM      6  C   UNL     1     -46.070  93.767  20.015  0.00  0.00    +0.116 A 
ATOM      7  N   UNL     1     -46.493  93.002  21.081  0.00  0.00    -0.223 NA
ATOM      8  C   UNL     1     -47.576  92.151  20.961  0.00  0.00    +0.220 A 
ATOM      9  N   UNL     1     -48.014  91.366  22.017  0.00  0.00    -0.283 N 
ATOM     36  H   UNL     1     -48.822  90.756  21.891  0.00  0.00    +0.155 HD
ATOM     37  N   UNL     1     -48.236  92.060  19.788  0.00  0.00    -0.214 NA
BRANCH   4   3
ATOM      1  C   UNL     1     -50.772  92.881  16.076  0.00  0.00    +0.020 A 
ATOM      2  C   UNL     1     -50.034  93.095  17.299  0.00  0.00    +0.013 A 
ATOM      3  C   UNL     1     -48.670  92.601  17.442  0.00  0.00    +0.019 A 
ATOM     38  C   UNL     1     -48.077  91.890  16.319  0.00  0.00    +0.120 A 
ATOM     39  N   UNL     1     -48.813  91.697  15.154  0.00  0.00    -0.263 NA
ATOM     40  C   UNL     1     -50.127  92.166  15.005  0.00  0.00    +0.111 A 
ENDBRANCH   4   3
ENDBRANCH  10   9
BRANCH  12  13
ATOM     13  N   UNL     1     -47.523  93.374  26.543  0.00  0.00    -0.281 N 
ATOM     14  C   UNL     1     -48.165  93.110  27.742  0.00  0.00    +0.248 C 
ATOM     30  O   UNL     1     -48.697  92.047  28.022  0.00  0.00    -0.270 OA
ATOM     31  H   UNL     1     -47.296  94.352  26.361  0.00  0.00    +0.155 HD
BRANCH  14  15
ATOM     15  C   UNL     1     -48.237  94.189  28.774  0.00  0.00    +0.037 A 
ATOM     16  C   UNL     1     -48.848  95.487  28.475  0.00  0.00    +0.013 A 
ATOM     17  C   UNL     1     -48.890  96.516  29.483  0.00  0.00    +0.005 A 
ATOM     18  C   UNL     1     -48.320  96.250  30.802  0.00  0.00    -0.033 A 
ATOM     28  C   UNL     1     -47.725  94.952  31.074  0.00  0.00    +0.005 A 
ATOM     29  C   UNL     1     -47.682  93.941  30.087  0.00  0.00    +0.013 A 
BRANCH  18  19
ATOM     19  C   UNL     1     -48.302  97.297  31.932  0.00  0.00    +0.119 C 
BRANCH  19  20
ATOM     20  N   UNL     1     -48.346  98.735  31.532  0.00  0.00    -0.302 NA
ATOM     21  C   UNL     1     -46.987  99.420  31.699  0.00  0.00    +0.066 C 
ATOM     22  C   UNL     1     -47.046 100.918  31.255  0.00  0.00    -0.064 C 
ATOM     23  N   UNL     1     -48.121 101.645  32.065  0.00  0.00    +0.379 N 
ATOM     24  C   UNL     1     -48.139 103.066  31.691  0.00  0.00    -0.096 C 
ATOM     25  H   UNL     1     -47.835 101.581  33.140  0.00  0.00    -0.082 HD
ATOM     26  C   UNL     1     -49.476 100.969  31.906  0.00  0.00    -0.064 C 
ATOM     27  C   UNL     1     -49.399  99.473  32.322  0.00  0.00    +0.066 C 
ENDBRANCH  19  20
ENDBRANCH  18  19
ENDBRANCH  14  15
ENDBRANCH  12  13
TORSDOF 6
ENDMDL
MODEL 4
REMARK VINA RESULT:      -6.3     24.831     34.633
REMARK  Name = C:\Users\Docking\Desktop\test protocol\1iep_ligandH.pdb
REMARK  8 active torsions:
REMARK  status: ('A' for Active; 'I' for Inactive)
REMARK    1  A    between atoms: _5  and  _11
REMARK    2  A    between atoms: _19  and  _21
REMARK    3  A    between atoms: _22  and  _66
REMARK    4  A    between atoms: _27  and  _30
REMARK    5  A    between atoms: _32  and  _33
REMARK    6  A    between atoms: _38  and  _43
REMARK    7  A    between atoms: _43  and  _46
REMARK    8  A    between atoms: _53  and  _55
REMARK                            x       y       z     vdW  Elec       q    Type
REMARK                         _______ _______ _______ _____ _____    ______ ____
ROOT
ATOM     10  C   UNL     1     -48.426  94.217  28.294  0.00  0.00    +0.038 A 
ATOM     11  C   UNL     1     -48.301  95.468  28.951  0.00  0.00    +0.047 A 
ATOM     12  C   UNL     1     -48.735  95.642  30.328  0.00  0.00    +0.035 A 
ATOM     32  C   UNL     1     -49.290  94.519  31.008  0.00  0.00    +0.024 A 
ATOM     33  C   UNL     1     -49.426  93.240  30.356  0.00  0.00    +0.007 A 
ATOM     34  C   UNL     1     -49.002  93.064  28.996  0.00  0.00    -0.029 A 
ATOM     35  C   UNL     1     -49.177  91.672  28.345  0.00  0.00    +0.045 C 
ENDROOT
BRANCH  10   9
ATOM      4  C   UNL     1     -49.091  94.717  23.567  0.00  0.00    +0.077 A 
ATOM      5  C   UNL     1     -50.424  95.216  23.748  0.00  0.00    +0.048 A 
ATOM      6  C   UNL     1     -50.904  95.321  25.072  0.00  0.00    +0.116 A 
ATOM      7  N   UNL     1     -50.101  94.953  26.130  0.00  0.00    -0.223 NA
ATOM      8  C   UNL     1     -48.821  94.475  25.921  0.00  0.00    +0.220 A 
ATOM      9  N   UNL     1     -47.993  94.107  26.971  0.00  0.00    -0.283 N 
ATOM     36  H   UNL     1     -47.058  93.751  26.775  0.00  0.00    +0.155 HD
ATOM     37  N   UNL     1     -48.340  94.363  24.666  0.00  0.00    -0.214 NA
BRANCH   4   3
ATOM      1  C   UNL     1     -46.533  94.883  20.613  0.00  0.00    +0.020 A 
ATOM      2  C   UNL     1     -47.115  95.071  21.922  0.00  0.00    +0.013 A 
ATOM      3  C   UNL     1     -48.442  94.551  22.228  0.00  0.00    +0.019 A 
ATOM     38  C   UNL     1     -49.158  93.840  21.181  0.00  0.00    +0.120 A 
ATOM     39  N   UNL     1     -48.573  93.675  19.929  0.00  0.00    -0.263 NA
ATOM     40  C   UNL     1     -47.297  94.172  19.622  0.00  0.00    +0.111 A 
ENDBRANCH   4   3
ENDBRANCH  10   9
BRANCH  12  13
ATOM     13  N   UNL     1     -48.640  96.890  31.044  0.00  0.00    -0.281 N 
ATOM     14  C   UNL     1     -47.494  97.570  31.421  0.00  0.00    +0.248 C 
ATOM     30  O   UNL     1     -46.367  97.098  31.387  0.00  0.00    -0.270 OA
ATOM     31  H   UNL     1     -49.525  97.324  31.304  0.00  0.00    +0.155 HD
BRANCH  14  15
ATOM     15  C   UNL     1     -47.618  98.972  31.923  0.00  0.00    +0.037 A 
ATOM     16  C   UNL     1     -47.142 100.108  31.130  0.00  0.00    +0.013 A 
ATOM     17  C   UNL     1     -47.259 101.450  31.645  0.00  0.00    +0.005 A 
ATOM     18  C   UNL     1     -47.857 101.662  32.961  0.00  0.00    -0.033 A 
ATOM     28  C   UNL     1     -48.326 100.517  33.724  0.00  0.00    +0.005 A 
ATOM     29  C   UNL     1     -48.212  99.201  33.223  0.00  0.00    +0.013 A 
BRANCH  18  19
ATOM     19  C   UNL     1     -48.003 103.056  33.598  0.00  0.00    +0.119 C 
BRANCH  19  20
ATOM     20  N   UNL     1     -48.445 104.172  32.709  0.00  0.00    -0.302 NA
ATOM     21  C   UNL     1     -48.219 105.543  33.352  0.00  0.00    +0.066 C 
ATOM     22  C   UNL     1     -48.665 106.699  32.399  0.00  0.00    -0.064 C 
ATOM     23  N   UNL     1     -50.137 106.511  32.028  0.00  0.00    +0.379 N 
ATOM     24  C   UNL     1     -50.576 107.628  31.178  0.00  0.00    -0.096 C 
ATOM     25  H   UNL     1     -50.731 106.549  32.971  0.00  0.00    -0.082 HD
ATOM     26  C   UNL     1     -50.371 105.148  31.390  0.00  0.00    -0.064 C 
ATOM     27  C   UNL     1     -49.897 104.008  32.333  0.00  0.00    +0.066 C 
ENDBRANCH  19  20
ENDBRANCH  18  19
ENDBRANCH  14  15
ENDBRANCH  12  13
TORSDOF 6
ENDMDL
MODEL 5
REMARK VINA RESULT:      -6.2     32.693     38.780
REMARK  Name = C:\Users\Docking\Desktop\test protocol\1iep_ligandH.pdb
REMARK  8 active torsions:
REMARK  status: ('A' for Active; 'I' for Inactive)
REMARK    1  A    between atoms: _5  and  _11
REMARK    2  A    between atoms: _19  and  _21
REMARK    3  A    between atoms: _22  and  _66
REMARK    4  A    between atoms: _27  and  _30
REMARK    5  A    between atoms: _32  and  _33
REMARK    6  A    between atoms: _38  and  _43
REMARK    7  A    between atoms: _43  and  _46
REMARK    8  A    between atoms: _53  and  _55
REMARK                            x       y       z     vdW  Elec       q    Type
REMARK                         _______ _______ _______ _____ _____    ______ ____
ROOT
ATOM     10  C   UNL     1     -37.553 100.827  22.589  0.00  0.00    +0.038 A 
ATOM     11  C   UNL     1     -38.001 101.857  21.724  0.00  0.00    +0.047 A 
ATOM     12  C   UNL     1     -39.049 101.615  20.744  0.00  0.00    +0.035 A 
ATOM     32  C   UNL     1     -39.620 100.311  20.675  0.00  0.00    +0.024 A 
ATOM     33  C   UNL     1     -39.176  99.251  21.545  0.00  0.00    +0.007 A 
ATOM     34  C   UNL     1     -38.141  99.484  22.512  0.00  0.00    -0.029 A 
ATOM     35  C   UNL     1     -37.700  98.309  23.416  0.00  0.00    +0.045 C 
ENDROOT
BRANCH  10   9
ATOM      4  C   UNL     1     -35.566 103.610  25.957  0.00  0.00    +0.077 A 
ATOM      5  C   UNL     1     -36.612 104.586  25.851  0.00  0.00    +0.048 A 
ATOM      6  C   UNL     1     -37.639 104.338  24.913  0.00  0.00    +0.116 A 
ATOM      7  N   UNL     1     -37.612 103.195  24.144  0.00  0.00    -0.223 NA
ATOM      8  C   UNL     1     -36.588 102.275  24.269  0.00  0.00    +0.220 A 
ATOM      9  N   UNL     1     -36.544 101.115  23.511  0.00  0.00    -0.283 N 
ATOM     36  H   UNL     1     -35.768 100.464  23.628  0.00  0.00    +0.155 HD
ATOM     37  N   UNL     1     -35.594 102.489  25.157  0.00  0.00    -0.214 NA
BRANCH   4   3
ATOM      1  C   UNL     1     -33.116 103.019  28.949  0.00  0.00    +0.020 A 
ATOM      2  C   UNL     1     -34.249 102.863  28.065  0.00  0.00    +0.013 A 
ATOM      3  C   UNL     1     -34.413 103.729  26.904  0.00  0.00    +0.019 A 
ATOM     38  C   UNL     1     -33.405 104.750  26.664  0.00  0.00    +0.120 A 
ATOM     39  N   UNL     1     -32.326 104.878  27.532  0.00  0.00    -0.263 NA
ATOM     40  C   UNL     1     -32.158 104.052  28.654  0.00  0.00    +0.111 A 
ENDBRANCH   4   3
ENDBRANCH  10   9
BRANCH  12  13
ATOM     13  N   UNL     1     -39.539 102.620  19.834  0.00  0.00    -0.281 N 
ATOM     14  C   UNL     1     -39.267 102.750  18.482  0.00  0.00    +0.248 C 
ATOM     30  O   UNL     1     -38.386 102.141  17.892  0.00  0.00    -0.270 OA
ATOM     31  H   UNL     1     -40.161 103.322  20.235  0.00  0.00    +0.155 HD
BRANCH  14  15
ATOM     15  C   UNL     1     -40.082 103.704  17.670  0.00  0.00    +0.037 A 
ATOM     16  C   UNL     1     -40.329 105.074  18.128  0.00  0.00    +0.013 A 
ATOM     17  C   UNL     1     -41.133 105.968  17.334  0.00  0.00    +0.005 A 
ATOM     18  C   UNL     1     -41.695 105.496  16.071  0.00  0.00    -0.033 A 
ATOM     28  C   UNL     1     -41.430 104.134  15.638  0.00  0.00    +0.005 A 
ATOM     29  C   UNL     1     -40.643 103.254  16.414  0.00  0.00    +0.013 A 
BRANCH  18  19
ATOM     19  C   UNL     1     -42.581 106.375  15.169  0.00  0.00    +0.119 C 
BRANCH  19  20
ATOM     20  N   UNL     1     -43.998 106.581  15.595  0.00  0.00    -0.302 NA
ATOM     21  C   UNL     1     -44.153 107.810  16.496  0.00  0.00    +0.066 C 
ATOM     22  C   UNL     1     -45.644 108.024  16.914  0.00  0.00    -0.064 C 
ATOM     23  N   UNL     1     -46.159 106.768  17.619  0.00  0.00    +0.379 N 
ATOM     24  C   UNL     1     -47.543 106.987  18.064  0.00  0.00    -0.096 C 
ATOM     25  H   UNL     1     -45.532 106.609  18.527  0.00  0.00    -0.082 HD
ATOM     26  C   UNL     1     -46.006 105.541  16.731  0.00  0.00    -0.064 C 
ATOM     27  C   UNL     1     -44.525 105.354  16.297  0.00  0.00    +0.066 C 
ENDBRANCH  19  20
ENDBRANCH  18  19
ENDBRANCH  14  15
ENDBRANCH  12  13
TORSDOF 6
ENDMDL
