MODEL 1
REMARK VINA RESULT:      -6.8      0.000      0.000
REMARK  Name = C:\Users\Docking\Desktop\test protocol\1iep_ligandH.pdb
REMARK  8 active torsions:
REMARK  status: ('A' for Active; 'I' for Inactive)
REMARK    1  A    between atoms: _5  and  _11
REMARK    2  A    between atoms: _19  and  _21
REMARK    3  A    between atoms: _22  and  _66
REMARK    4  A    between atoms: _27  and  _30
REMARK    5  A    between atoms: _32  and  _33
REMARK    6  A    between atoms: _38  and  _43
REMARK    7  A    between atoms: _43  and  _46
REMARK    8  A    between atoms: _53  and  _55
REMARK                            x       y       z     vdW  Elec       q    Type
REMARK                         _______ _______ _______ _____ _____    ______ ____
ROOT
ATOM     10  C   UNL     1      -3.259  69.023  15.941  0.00  0.00    +0.038 A 
ATOM     11  C   UNL     1      -4.500  68.872  16.610  0.00  0.00    +0.047 A 
ATOM     12  C   UNL     1      -5.757  69.168  15.941  0.00  0.00    +0.035 A 
ATOM     32  C   UNL     1      -5.713  69.614  14.587  0.00  0.00    +0.024 A 
ATOM     33  C   UNL     1      -4.460  69.774  13.892  0.00  0.00    +0.007 A 
ATOM     34  C   UNL     1      -3.217  69.486  14.549  0.00  0.00    -0.029 A 
ATOM     35  C   UNL     1      -1.903  69.682  13.757  0.00  0.00    +0.045 C 
ENDROOT
BRANCH  10   9
ATOM      4  C   UNL     1       0.322  70.204  18.911  0.00  0.00    +0.077 A 
ATOM      5  C   UNL     1      -0.179  71.537  19.080  0.00  0.00    +0.048 A 
ATOM      6  C   UNL     1      -1.356  71.882  18.379  0.00  0.00    +0.116 A 
ATOM      7  N   UNL     1      -1.979  70.953  17.573  0.00  0.00    -0.223 NA
ATOM      8  C   UNL     1      -1.468  69.676  17.431  0.00  0.00    +0.220 A 
ATOM      9  N   UNL     1      -2.082  68.724  16.632  0.00  0.00    -0.283 N 
ATOM     36  H   UNL     1      -1.670  67.795  16.548  0.00  0.00    +0.155 HD
ATOM     37  N   UNL     1      -0.344  69.323  18.089  0.00  0.00    -0.214 NA
BRANCH   4   3
ATOM      1  C   UNL     1       3.183  69.614  21.513  0.00  0.00    +0.020 A 
ATOM      2  C   UNL     1       1.985  70.144  20.904  0.00  0.00    +0.013 A 
ATOM      3  C   UNL     1       1.554  69.688  19.588  0.00  0.00    +0.019 A 
ATOM     38  C   UNL     1       2.364  68.687  18.911  0.00  0.00    +0.120 A 
ATOM     39  N   UNL     1       3.513  68.195  19.522  0.00  0.00    -0.263 NA
ATOM     40  C   UNL     1       3.938  68.628  20.787  0.00  0.00    +0.111 A 
ENDBRANCH   4   3
ENDBRANCH  10   9
BRANCH  12  13
ATOM     13  N   UNL     1      -7.047  69.041  16.572  0.00  0.00    -0.281 N 
ATOM     14  C   UNL     1      -7.599  67.916  17.162  0.00  0.00    +0.248 C 
ATOM     30  O   UNL     1      -7.151  66.785  17.048  0.00  0.00    -0.270 OA
ATOM     31  H   UNL     1      -7.623  69.883  16.585  0.00  0.00    +0.155 HD
BRANCH  14  15
ATOM     15  C   UNL     1      -8.836  68.067  17.987  0.00  0.00    +0.037 A 
ATOM     16  C   UNL     1      -9.084  69.281  18.770  0.00  0.00    +0.013 A 
ATOM     17  C   UNL     1     -10.277  69.394  19.571  0.00  0.00    +0.005 A 
ATOM     18  C   UNL     1     -11.233  68.289  19.592  0.00  0.00    -0.033 A 
ATOM     28  C   UNL     1     -10.964  67.099  18.802  0.00  0.00    +0.005 A 
ATOM     29  C   UNL     1      -9.796  66.984  18.017  0.00  0.00    +0.013 A 
BRANCH  18  19
ATOM     19  C   UNL     1     -12.522  68.314  20.434  0.00  0.00    +0.119 C 
BRANCH  19  20
ATOM     20  N   UNL     1     -12.567  67.437  21.642  0.00  0.00    -0.302 NA
ATOM     21  C   UNL     1     -13.597  66.313  21.497  0.00  0.00    +0.066 C 
ATOM     22  C   UNL     1     -13.615  65.391  22.760  0.00  0.00    -0.064 C 
ATOM     23  N   UNL     1     -13.906  66.236  24.001  0.00  0.00    +0.379 N 
ATOM     24  C   UNL     1     -13.981  65.364  25.182  0.00  0.00    -0.096 C 
ATOM     25  H   UNL     1     -14.908  66.706  23.862  0.00  0.00    -0.082 HD
ATOM     26  C   UNL     1     -12.888  67.358  24.151  0.00  0.00    -0.064 C 
ATOM     27  C   UNL     1     -12.858  68.251  22.879  0.00  0.00    +0.066 C 
ENDBRANCH  19  20
ENDBRANCH  18  19
ENDBRANCH  14  15
ENDBRANCH  12  13
TORSDOF 6
ENDMDL
MODEL 2
REMARK VINA RESULT:      -6.3      8.551     12.073
REMARK  Name = C:\Users\Docking\Desktop\test protocol\1iep_ligandH.pdb
REMARK  8 active torsions:
REMARK  status: ('A' for Active; 'I' for Inactive)
REMARK    1  A    between atoms: _5  and  _11
REMARK    2  A    between atoms: _19  and  _21
REMARK    3  A    between atoms: _22  and  _66
REMARK    4  A    between atoms: _27  and  _30
REMARK    5  A    between atoms: _32  and  _33
REMARK    6  A    between atoms: _38  and  _43
REMARK    7  A    between atoms: _43  and  _46
REMARK    8  A    between atoms: _53  and  _55
REMARK                            x       y       z     vdW  Elec       q    Type
REMARK                         _______ _______ _______ _____ _____    ______ ____
ROOT
ATOM     10  C   UNL     1       3.619  67.377   8.353  0.00  0.00    +0.038 A 
ATOM     11  C   UNL     1       3.041  67.480   9.645  0.00  0.00    +0.047 A 
ATOM     12  C   UNL     1       1.784  68.180   9.854  0.00  0.00    +0.035 A 
ATOM     32  C   UNL     1       1.139  68.763   8.724  0.00  0.00    +0.024 A 
ATOM     33  C   UNL     1       1.712  68.669   7.404  0.00  0.00    +0.007 A 
ATOM     34  C   UNL     1       2.954  67.981   7.192  0.00  0.00    -0.029 A 
ATOM     35  C   UNL     1       3.525  67.918   5.756  0.00  0.00    +0.045 C 
ENDROOT
BRANCH  10   9
ATOM      4  C   UNL     1       8.415  67.213   8.362  0.00  0.00    +0.077 A 
ATOM      5  C   UNL     1       8.522  68.615   8.649  0.00  0.00    +0.048 A 
ATOM      6  C   UNL     1       7.318  69.343   8.780  0.00  0.00    +0.116 A 
ATOM      7  N   UNL     1       6.105  68.707   8.633  0.00  0.00    -0.223 NA
ATOM      8  C   UNL     1       6.037  67.355   8.354  0.00  0.00    +0.220 A 
ATOM      9  N   UNL     1       4.828  66.693   8.210  0.00  0.00    -0.283 N 
ATOM     36  H   UNL     1       4.821  65.696   7.997  0.00  0.00    +0.155 HD
ATOM     37  N   UNL     1       7.172  66.637   8.223  0.00  0.00    -0.214 NA
BRANCH   4   3
ATOM      1  C   UNL     1      11.011  64.332   8.877  0.00  0.00    +0.020 A 
ATOM      2  C   UNL     1       9.856  65.176   9.079  0.00  0.00    +0.013 A 
ATOM      3  C   UNL     1       9.597  66.308   8.198  0.00  0.00    +0.019 A 
ATOM     38  C   UNL     1      10.533  66.560   7.113  0.00  0.00    +0.120 A 
ATOM     39  N   UNL     1      11.637  65.731   6.943  0.00  0.00    -0.263 NA
ATOM     40  C   UNL     1      11.898  64.640   7.786  0.00  0.00    +0.111 A 
ENDBRANCH   4   3
ENDBRANCH  10   9
BRANCH  12  13
ATOM     13  N   UNL     1       1.154  68.323  11.143  0.00  0.00    -0.281 N 
ATOM     14  C   UNL     1       1.062  69.464  11.924  0.00  0.00    +0.248 C 
ATOM     30  O   UNL     1       1.697  70.489  11.727  0.00  0.00    -0.270 OA
ATOM     31  H   UNL     1       0.724  67.482  11.526  0.00  0.00    +0.155 HD
BRANCH  14  15
ATOM     15  C   UNL     1       0.143  69.460  13.102  0.00  0.00    +0.037 A 
ATOM     16  C   UNL     1       0.550  68.875  14.382  0.00  0.00    +0.013 A 
ATOM     17  C   UNL     1      -0.362  68.869  15.498  0.00  0.00    +0.005 A 
ATOM     18  C   UNL     1      -1.692  69.452  15.338  0.00  0.00    -0.033 A 
ATOM     28  C   UNL     1      -2.069  70.031  14.059  0.00  0.00    +0.005 A 
ATOM     29  C   UNL     1      -1.177  70.037  12.963  0.00  0.00    +0.013 A 
BRANCH  18  19
ATOM     19  C   UNL     1      -2.738  69.471  16.468  0.00  0.00    +0.119 C 
BRANCH  19  20
ATOM     20  N   UNL     1      -2.293  69.969  17.804  0.00  0.00    -0.302 NA
ATOM     21  C   UNL     1      -3.430  69.959  18.829  0.00  0.00    +0.066 C 
ATOM     22  C   UNL     1      -2.942  70.461  20.227  0.00  0.00    -0.064 C 
ATOM     23  N   UNL     1      -2.354  71.866  20.084  0.00  0.00    +0.379 N 
ATOM     24  C   UNL     1      -1.946  72.365  21.405  0.00  0.00    -0.096 C 
ATOM     25  H   UNL     1      -3.163  72.534  19.705  0.00  0.00    -0.082 HD
ATOM     26  C   UNL     1      -1.224  71.886  19.064  0.00  0.00    -0.064 C 
ATOM     27  C   UNL     1      -1.713  71.357  17.687  0.00  0.00    +0.066 C 
ENDBRANCH  19  20
ENDBRANCH  18  19
ENDBRANCH  14  15
ENDBRANCH  12  13
TORSDOF 6
ENDMDL
MODEL 3
REMARK VINA RESULT:      -6.2      9.711     12.501
REMARK  Name = C:\Users\Docking\Desktop\test protocol\1iep_ligandH.pdb
REMARK  8 active torsions:
REMARK  status: ('A' for Active; 'I' for Inactive)
REMARK    1  A    between atoms: _5  and  _11
REMARK    2  A    between atoms: _19  and  _21
REMARK    3  A    between atoms: _22  and  _66
REMARK    4  A    between atoms: _27  and  _30
REMARK    5  A    between atoms: _32  and  _33
REMARK    6  A    between atoms: _38  and  _43
REMARK    7  A    between atoms: _43  and  _46
REMARK    8  A    between atoms: _53  and  _55
REMARK                            x       y       z     vdW  Elec       q    Type
REMARK                         _______ _______ _______ _____ _____    ______ ____
ROOT
ATOM     10  C   UNL     1       3.867  66.169  11.997  0.00  0.00    +0.038 A 
ATOM     11  C   UNL     1       3.872  66.496  13.377  0.00  0.00    +0.047 A 
ATOM     12  C   UNL     1       2.898  65.918  14.290  0.00  0.00    +0.035 A 
ATOM     32  C   UNL     1       1.934  65.009  13.763  0.00  0.00    +0.024 A 
ATOM     33  C   UNL     1       1.915  64.667  12.363  0.00  0.00    +0.007 A 
ATOM     34  C   UNL     1       2.871  65.236  11.457  0.00  0.00    -0.029 A 
ATOM     35  C   UNL     1       2.799  64.838   9.964  0.00  0.00    +0.045 C 
ENDROOT
BRANCH  10   9
ATOM      4  C   UNL     1       5.438  69.748   9.210  0.00  0.00    +0.077 A 
ATOM      5  C   UNL     1       4.236  70.507   9.406  0.00  0.00    +0.048 A 
ATOM      6  C   UNL     1       3.235  69.937  10.225  0.00  0.00    +0.116 A 
ATOM      7  N   UNL     1       3.432  68.701  10.800  0.00  0.00    -0.223 NA
ATOM      8  C   UNL     1       4.603  67.995  10.590  0.00  0.00    +0.220 A 
ATOM      9  N   UNL     1       4.826  66.753  11.165  0.00  0.00    -0.283 N 
ATOM     36  H   UNL     1       5.699  66.261  10.980  0.00  0.00    +0.155 HD
ATOM     37  N   UNL     1       5.573  68.516   9.811  0.00  0.00    -0.214 NA
BRANCH   4   3
ATOM      1  C   UNL     1       7.783  71.953   6.988  0.00  0.00    +0.020 A 
ATOM      2  C   UNL     1       6.649  71.549   7.787  0.00  0.00    +0.013 A 
ATOM      3  C   UNL     1       6.588  70.217   8.375  0.00  0.00    +0.019 A 
ATOM     38  C   UNL     1       7.700  69.310   8.134  0.00  0.00    +0.120 A 
ATOM     39  N   UNL     1       8.779  69.726   7.359  0.00  0.00    -0.263 NA
ATOM     40  C   UNL     1       8.848  71.005   6.787  0.00  0.00    +0.111 A 
ENDBRANCH   4   3
ENDBRANCH  10   9
BRANCH  12  13
ATOM     13  N   UNL     1       2.848  66.218  15.699  0.00  0.00    -0.281 N 
ATOM     14  C   UNL     1       2.213  67.279  16.322  0.00  0.00    +0.248 C 
ATOM     30  O   UNL     1       1.766  68.256  15.739  0.00  0.00    -0.270 OA
ATOM     31  H   UNL     1       3.342  65.569  16.312  0.00  0.00    +0.155 HD
BRANCH  14  15
ATOM     15  C   UNL     1       2.064  67.260  17.810  0.00  0.00    +0.037 A 
ATOM     16  C   UNL     1       1.504  66.096  18.502  0.00  0.00    +0.013 A 
ATOM     17  C   UNL     1       1.356  66.110  19.936  0.00  0.00    +0.005 A 
ATOM     18  C   UNL     1       1.771  67.292  20.687  0.00  0.00    -0.033 A 
ATOM     28  C   UNL     1       2.328  68.431  19.975  0.00  0.00    +0.005 A 
ATOM     29  C   UNL     1       2.474  68.421  18.570  0.00  0.00    +0.013 A 
BRANCH  18  19
ATOM     19  C   UNL     1       1.630  67.403  22.217  0.00  0.00    +0.119 C 
BRANCH  19  20
ATOM     20  N   UNL     1       2.489  68.407  22.912  0.00  0.00    -0.302 NA
ATOM     21  C   UNL     1       3.823  67.806  23.366  0.00  0.00    +0.066 C 
ATOM     22  C   UNL     1       4.719  68.876  24.071  0.00  0.00    -0.064 C 
ATOM     23  N   UNL     1       3.960  69.470  25.259  0.00  0.00    +0.379 N 
ATOM     24  C   UNL     1       4.821  70.435  25.958  0.00  0.00    -0.096 C 
ATOM     25  H   UNL     1       3.737  68.639  25.967  0.00  0.00    -0.082 HD
ATOM     26  C   UNL     1       2.631  70.068  24.816  0.00  0.00    -0.064 C 
ATOM     27  C   UNL     1       1.761  69.004  24.091  0.00  0.00    +0.066 C 
ENDBRANCH  19  20
ENDBRANCH  18  19
ENDBRANCH  14  15
ENDBRANCH  12  13
TORSDOF 6
ENDMDL
MODEL 4
REMARK VINA RESULT:      -6.0      7.990     11.277
REMARK  Name = C:\Users\Docking\Desktop\test protocol\1iep_ligandH.pdb
REMARK  8 active torsions:
REMARK  status: ('A' for Active; 'I' for Inactive)
REMARK    1  A    between atoms: _5  and  _11
REMARK    2  A    between atoms: _19  and  _21
REMARK    3  A    between atoms: _22  and  _66
REMARK    4  A    between atoms: _27  and  _30
REMARK    5  A    between atoms: _32  and  _33
REMARK    6  A    between atoms: _38  and  _43
REMARK    7  A    between atoms: _43  and  _46
REMARK    8  A    between atoms: _53  and  _55
REMARK                            x       y       z     vdW  Elec       q    Type
REMARK                         _______ _______ _______ _____ _____    ______ ____
ROOT
ATOM     10  C   UNL     1       3.743  66.117  12.443  0.00  0.00    +0.038 A 
ATOM     11  C   UNL     1       3.602  66.687  13.734  0.00  0.00    +0.047 A 
ATOM     12  C   UNL     1       2.603  66.193  14.669  0.00  0.00    +0.035 A 
ATOM     32  C   UNL     1       1.766  65.115  14.257  0.00  0.00    +0.024 A 
ATOM     33  C   UNL     1       1.896  64.525  12.948  0.00  0.00    +0.007 A 
ATOM     34  C   UNL     1       2.877  65.009  12.021  0.00  0.00    -0.029 A 
ATOM     35  C   UNL     1       2.967  64.342  10.628  0.00  0.00    +0.045 C 
ENDROOT
BRANCH  10   9
ATOM      4  C   UNL     1       5.346  69.415   9.346  0.00  0.00    +0.077 A 
ATOM      5  C   UNL     1       4.126  70.165   9.423  0.00  0.00    +0.048 A 
ATOM      6  C   UNL     1       3.108  69.665  10.265  0.00  0.00    +0.116 A 
ATOM      7  N   UNL     1       3.307  68.500  10.973  0.00  0.00    -0.223 NA
ATOM      8  C   UNL     1       4.495  67.799  10.876  0.00  0.00    +0.220 A 
ATOM      9  N   UNL     1       4.719  66.629  11.585  0.00  0.00    -0.283 N 
ATOM     36  H   UNL     1       5.606  66.138  11.480  0.00  0.00    +0.155 HD
ATOM     37  N   UNL     1       5.482  68.256  10.077  0.00  0.00    -0.214 NA
BRANCH   4   3
ATOM      1  C   UNL     1       7.759  71.450   7.035  0.00  0.00    +0.020 A 
ATOM      2  C   UNL     1       6.607  71.111   7.839  0.00  0.00    +0.013 A 
ATOM      3  C   UNL     1       6.516  69.816   8.502  0.00  0.00    +0.019 A 
ATOM     38  C   UNL     1       7.617  68.880   8.332  0.00  0.00    +0.120 A 
ATOM     39  N   UNL     1       8.713  69.234   7.551  0.00  0.00    -0.263 NA
ATOM     40  C   UNL     1       8.811  70.476   6.906  0.00  0.00    +0.111 A 
ENDBRANCH   4   3
ENDBRANCH  10   9
BRANCH  12  13
ATOM     13  N   UNL     1       2.408  66.738  15.990  0.00  0.00    -0.281 N 
ATOM     14  C   UNL     1       1.758  67.910  16.340  0.00  0.00    +0.248 C 
ATOM     30  O   UNL     1       1.429  68.781  15.548  0.00  0.00    -0.270 OA
ATOM     31  H   UNL     1       2.796  66.193  16.760  0.00  0.00    +0.155 HD
BRANCH  14  15
ATOM     15  C   UNL     1       1.439  68.157  17.779  0.00  0.00    +0.037 A 
ATOM     16  C   UNL     1       0.440  67.351  18.486  0.00  0.00    +0.013 A 
ATOM     17  C   UNL     1       0.140  67.621  19.869  0.00  0.00    +0.005 A 
ATOM     18  C   UNL     1       0.842  68.702  20.557  0.00  0.00    -0.033 A 
ATOM     28  C   UNL     1       1.833  69.483  19.833  0.00  0.00    +0.005 A 
ATOM     29  C   UNL     1       2.129  69.222  18.477  0.00  0.00    +0.013 A 
BRANCH  18  19
ATOM     19  C   UNL     1       0.571  69.075  22.026  0.00  0.00    +0.119 C 
BRANCH  19  20
ATOM     20  N   UNL     1      -0.532  70.046  22.293  0.00  0.00    -0.302 NA
ATOM     21  C   UNL     1      -0.995  70.755  21.017  0.00  0.00    +0.066 C 
ATOM     22  C   UNL     1      -2.164  71.750  21.310  0.00  0.00    -0.064 C 
ATOM     23  N   UNL     1      -1.713  72.766  22.361  0.00  0.00    +0.379 N 
ATOM     24  C   UNL     1      -2.790  73.739  22.597  0.00  0.00    -0.096 C 
ATOM     25  H   UNL     1      -0.842  73.321  21.943  0.00  0.00    -0.082 HD
ATOM     26  C   UNL     1      -1.249  72.070  23.633  0.00  0.00    -0.064 C 
ATOM     27  C   UNL     1      -0.107  71.061  23.325  0.00  0.00    +0.066 C 
ENDBRANCH  19  20
ENDBRANCH  18  19
ENDBRANCH  14  15
ENDBRANCH  12  13
TORSDOF 6
ENDMDL
MODEL 5
REMARK VINA RESULT:      -5.9      8.594     11.742
REMARK  Name = C:\Users\Docking\Desktop\test protocol\1iep_ligandH.pdb
REMARK  8 active torsions:
REMARK  status: ('A' for Active; 'I' for Inactive)
REMARK    1  A    between atoms: _5  and  _11
REMARK    2  A    between atoms: _19  and  _21
REMARK    3  A    between atoms: _22  and  _66
REMARK    4  A    between atoms: _27  and  _30
REMARK    5  A    between atoms: _32  and  _33
REMARK    6  A    between atoms: _38  and  _43
REMARK    7  A    between atoms: _43  and  _46
REMARK    8  A    between atoms: _53  and  _55
REMARK                            x       y       z     vdW  Elec       q    Type
REMARK                         _______ _______ _______ _____ _____    ______ ____
ROOT
ATOM     10  C   UNL     1       3.733  66.939   8.612  0.00  0.00    +0.038 A 
ATOM     11  C   UNL     1       3.247  67.151   9.927  0.00  0.00    +0.047 A 
ATOM     12  C   UNL     1       1.963  67.795  10.160  0.00  0.00    +0.035 A 
ATOM     32  C   UNL     1       1.200  68.209   9.030  0.00  0.00    +0.024 A 
ATOM     33  C   UNL     1       1.680  68.003   7.686  0.00  0.00    +0.007 A 
ATOM     34  C   UNL     1       2.947  67.370   7.450  0.00  0.00    -0.029 A 
ATOM     35  C   UNL     1       3.414  67.181   5.988  0.00  0.00    +0.045 C 
ENDROOT
BRANCH  10   9
ATOM      4  C   UNL     1       8.524  67.050   8.332  0.00  0.00    +0.077 A 
ATOM      5  C   UNL     1       8.560  68.474   8.503  0.00  0.00    +0.048 A 
ATOM      6  C   UNL     1       7.323  69.141   8.653  0.00  0.00    +0.116 A 
ATOM      7  N   UNL     1       6.145  68.427   8.632  0.00  0.00    -0.223 NA
ATOM      8  C   UNL     1       6.145  67.055   8.463  0.00  0.00    +0.220 A 
ATOM      9  N   UNL     1       4.972  66.316   8.447  0.00  0.00    -0.283 N 
ATOM     36  H   UNL     1       5.014  65.306   8.312  0.00  0.00    +0.155 HD
ATOM     37  N   UNL     1       7.313  66.395   8.316  0.00  0.00    -0.214 NA
BRANCH   4   3
ATOM      1  C   UNL     1      11.258  64.299   8.839  0.00  0.00    +0.020 A 
ATOM      2  C   UNL     1      10.063  65.086   9.044  0.00  0.00    +0.013 A 
ATOM      3  C   UNL     1       9.747  66.203   8.164  0.00  0.00    +0.019 A 
ATOM     38  C   UNL     1      10.667  66.501   7.076  0.00  0.00    +0.120 A 
ATOM     39  N   UNL     1      11.810  65.726   6.904  0.00  0.00    -0.263 NA
ATOM     40  C   UNL     1      12.126  64.650   7.746  0.00  0.00    +0.111 A 
ENDBRANCH   4   3
ENDBRANCH  10   9
BRANCH  12  13
ATOM     13  N   UNL     1       1.422  68.044  11.473  0.00  0.00    -0.281 N 
ATOM     14  C   UNL     1       1.289  69.260  12.123  0.00  0.00    +0.248 C 
ATOM     30  O   UNL     1       1.816  70.300  11.758  0.00  0.00    -0.270 OA
ATOM     31  H   UNL     1       1.096  67.224  11.985  0.00  0.00    +0.155 HD
BRANCH  14  15
ATOM     15  C   UNL     1       0.464  69.327  13.368  0.00  0.00    +0.037 A 
ATOM     16  C   UNL     1      -0.476  70.427  13.598  0.00  0.00    +0.013 A 
ATOM     17  C   UNL     1      -1.248  70.477  14.814  0.00  0.00    +0.005 A 
ATOM     18  C   UNL     1      -1.083  69.421  15.810  0.00  0.00    -0.033 A 
ATOM     28  C   UNL     1      -0.148  68.338  15.554  0.00  0.00    +0.005 A 
ATOM     29  C   UNL     1       0.611  68.287  14.363  0.00  0.00    +0.013 A 
BRANCH  18  19
ATOM     19  C   UNL     1      -1.850  69.405  17.146  0.00  0.00    +0.119 C 
BRANCH  19  20
ATOM     20  N   UNL     1      -3.322  69.160  17.087  0.00  0.00    -0.302 NA
ATOM     21  C   UNL     1      -4.124  70.461  17.178  0.00  0.00    +0.066 C 
ATOM     22  C   UNL     1      -5.661  70.189  17.091  0.00  0.00    -0.064 C 
ATOM     23  N   UNL     1      -6.068  69.223  18.205  0.00  0.00    +0.379 N 
ATOM     24  C   UNL     1      -7.523  69.010  18.163  0.00  0.00    -0.096 C 
ATOM     25  H   UNL     1      -5.826  69.708  19.179  0.00  0.00    -0.082 HD
ATOM     26  C   UNL     1      -5.273  67.927  18.124  0.00  0.00    -0.064 C 
ATOM     27  C   UNL     1      -3.746  68.212  18.181  0.00  0.00    +0.066 C 
ENDBRANCH  19  20
ENDBRANCH  18  19
ENDBRANCH  14  15
ENDBRANCH  12  13
TORSDOF 6
ENDMDL
