MODEL 1
REMARK VINA RESULT:      -9.4      0.000      0.000
REMARK  Name = C:\Users\Docking\Desktop\test protocol\1iep_ligandH.pdb
REMARK  8 active torsions:
REMARK  status: ('A' for Active; 'I' for Inactive)
REMARK    1  A    between atoms: _5  and  _11
REMARK    2  A    between atoms: _19  and  _21
REMARK    3  A    between atoms: _22  and  _66
REMARK    4  A    between atoms: _27  and  _30
REMARK    5  A    between atoms: _32  and  _33
REMARK    6  A    between atoms: _38  and  _43
REMARK    7  A    between atoms: _43  and  _46
REMARK    8  A    between atoms: _53  and  _55
REMARK                            x       y       z     vdW  Elec       q    Type
REMARK                         _______ _______ _______ _____ _____    ______ ____
ROOT
ATOM     10  C   UNL     1      -2.471  27.925   6.923  0.00  0.00    +0.038 A 
ATOM     11  C   UNL     1      -1.442  28.836   7.274  0.00  0.00    +0.047 A 
ATOM     12  C   UNL     1      -1.359  30.151   6.658  0.00  0.00    +0.035 A 
ATOM     32  C   UNL     1      -2.342  30.507   5.690  0.00  0.00    +0.024 A 
ATOM     33  C   UNL     1      -3.394  29.594   5.320  0.00  0.00    +0.007 A 
ATOM     34  C   UNL     1      -3.480  28.294   5.923  0.00  0.00    -0.029 A 
ATOM     35  C   UNL     1      -4.626  27.353   5.483  0.00  0.00    +0.045 C 
ENDROOT
BRANCH  10   9
ATOM      4  C   UNL     1      -0.644  23.568   7.765  0.00  0.00    +0.077 A 
ATOM      5  C   UNL     1       0.453  23.789   6.868  0.00  0.00    +0.048 A 
ATOM      6  C   UNL     1       0.507  25.035   6.204  0.00  0.00    +0.116 A 
ATOM      7  N   UNL     1      -0.469  25.982   6.428  0.00  0.00    -0.223 NA
ATOM      8  C   UNL     1      -1.515  25.735   7.299  0.00  0.00    +0.220 A 
ATOM      9  N   UNL     1      -2.503  26.676   7.546  0.00  0.00    -0.283 N 
ATOM     36  H   UNL     1      -3.262  26.453   8.189  0.00  0.00    +0.155 HD
ATOM     37  N   UNL     1      -1.590  24.553   7.944  0.00  0.00    -0.214 NA
BRANCH   4   3
ATOM      1  C   UNL     1      -2.179  20.787  10.048  0.00  0.00    +0.020 A 
ATOM      2  C   UNL     1      -2.042  22.024   9.315  0.00  0.00    +0.013 A 
ATOM      3  C   UNL     1      -0.838  22.303   8.543  0.00  0.00    +0.019 A 
ATOM     38  C   UNL     1       0.217  21.301   8.533  0.00  0.00    +0.120 A 
ATOM     39  N   UNL     1       0.058  20.119   9.250  0.00  0.00    -0.263 NA
ATOM     40  C   UNL     1      -1.095  19.841   9.998  0.00  0.00    +0.111 A 
ENDBRANCH   4   3
ENDBRANCH  10   9
BRANCH  12  13
ATOM     13  N   UNL     1      -0.332  31.115   6.969  0.00  0.00    -0.281 N 
ATOM     14  C   UNL     1       0.505  31.781   6.089  0.00  0.00    +0.248 C 
ATOM     30  O   UNL     1       0.643  31.489   4.911  0.00  0.00    -0.270 OA
ATOM     31  H   UNL     1      -0.207  31.332   7.958  0.00  0.00    +0.155 HD
BRANCH  14  15
ATOM     15  C   UNL     1       1.317  32.930   6.595  0.00  0.00    +0.037 A 
ATOM     16  C   UNL     1       0.715  33.984   7.415  0.00  0.00    +0.013 A 
ATOM     17  C   UNL     1       1.517  35.089   7.875  0.00  0.00    +0.005 A 
ATOM     18  C   UNL     1       2.933  35.145   7.517  0.00  0.00    -0.033 A 
ATOM     28  C   UNL     1       3.506  34.083   6.707  0.00  0.00    +0.005 A 
ATOM     29  C   UNL     1       2.722  32.998   6.253  0.00  0.00    +0.013 A 
BRANCH  18  19
ATOM     19  C   UNL     1       3.859  36.298   7.947  0.00  0.00    +0.119 C 
BRANCH  19  20
ATOM     20  N   UNL     1       4.487  37.111   6.863  0.00  0.00    -0.302 NA
ATOM     21  C   UNL     1       5.535  38.084   7.409  0.00  0.00    +0.066 C 
ATOM     22  C   UNL     1       6.198  38.911   6.259  0.00  0.00    -0.064 C 
ATOM     23  N   UNL     1       5.113  39.662   5.484  0.00  0.00    +0.379 N 
ATOM     24  C   UNL     1       5.738  40.485   4.439  0.00  0.00    -0.096 C 
ATOM     25  H   UNL     1       4.603  40.350   6.198  0.00  0.00    -0.082 HD
ATOM     26  C   UNL     1       4.064  38.702   4.940  0.00  0.00    -0.064 C 
ATOM     27  C   UNL     1       3.434  37.864   6.088  0.00  0.00    +0.066 C 
ENDBRANCH  19  20
ENDBRANCH  18  19
ENDBRANCH  14  15
ENDBRANCH  12  13
TORSDOF 6
ENDMDL
MODEL 2
REMARK VINA RESULT:      -9.3     16.800     19.526
REMARK  Name = C:\Users\Docking\Desktop\test protocol\1iep_ligandH.pdb
REMARK  8 active torsions:
REMARK  status: ('A' for Active; 'I' for Inactive)
REMARK    1  A    between atoms: _5  and  _11
REMARK    2  A    between atoms: _19  and  _21
REMARK    3  A    between atoms: _22  and  _66
REMARK    4  A    between atoms: _27  and  _30
REMARK    5  A    between atoms: _32  and  _33
REMARK    6  A    between atoms: _38  and  _43
REMARK    7  A    between atoms: _43  and  _46
REMARK    8  A    between atoms: _53  and  _55
REMARK                            x       y       z     vdW  Elec       q    Type
REMARK                         _______ _______ _______ _____ _____    ______ ____
ROOT
ATOM     10  C   UNL     1      16.439  33.982  14.615  0.00  0.00    +0.038 A 
ATOM     11  C   UNL     1      16.468  35.357  14.963  0.00  0.00    +0.047 A 
ATOM     12  C   UNL     1      15.695  35.866  16.085  0.00  0.00    +0.035 A 
ATOM     32  C   UNL     1      14.904  34.945  16.833  0.00  0.00    +0.024 A 
ATOM     33  C   UNL     1      14.863  33.545  16.493  0.00  0.00    +0.007 A 
ATOM     34  C   UNL     1      15.621  33.038  15.386  0.00  0.00    -0.029 A 
ATOM     35  C   UNL     1      15.534  31.528  15.062  0.00  0.00    +0.045 C 
ENDROOT
BRANCH  10   9
ATOM      4  C   UNL     1      16.895  32.657  10.025  0.00  0.00    +0.077 A 
ATOM      5  C   UNL     1      15.490  32.817   9.778  0.00  0.00    +0.048 A 
ATOM      6  C   UNL     1      14.685  33.235  10.860  0.00  0.00    +0.116 A 
ATOM      7  N   UNL     1      15.252  33.473  12.094  0.00  0.00    -0.223 NA
ATOM      8  C   UNL     1      16.609  33.307  12.298  0.00  0.00    +0.220 A 
ATOM      9  N   UNL     1      17.202  33.548  13.528  0.00  0.00    -0.283 N 
ATOM     36  H   UNL     1      18.205  33.407  13.641  0.00  0.00    +0.155 HD
ATOM     37  N   UNL     1      17.400  32.907  11.281  0.00  0.00    -0.214 NA
BRANCH   4   3
ATOM      1  C   UNL     1      19.829  30.839   8.185  0.00  0.00    +0.020 A 
ATOM      2  C   UNL     1      18.905  31.222   9.228  0.00  0.00    +0.013 A 
ATOM      3  C   UNL     1      17.877  32.224   8.981  0.00  0.00    +0.019 A 
ATOM     38  C   UNL     1      17.809  32.825   7.657  0.00  0.00    +0.120 A 
ATOM     39  N   UNL     1      18.713  32.438   6.673  0.00  0.00    -0.263 NA
ATOM     40  C   UNL     1      19.708  31.475   6.899  0.00  0.00    +0.111 A 
ENDBRANCH   4   3
ENDBRANCH  10   9
BRANCH  12  13
ATOM     13  N   UNL     1      15.678  37.252  16.480  0.00  0.00    -0.281 N 
ATOM     14  C   UNL     1      16.752  38.043  16.856  0.00  0.00    +0.248 C 
ATOM     30  O   UNL     1      17.867  37.617  17.115  0.00  0.00    -0.270 OA
ATOM     31  H   UNL     1      14.764  37.705  16.484  0.00  0.00    +0.155 HD
BRANCH  14  15
ATOM     15  C   UNL     1      16.553  39.520  16.974  0.00  0.00    +0.037 A 
ATOM     16  C   UNL     1      16.916  40.425  15.881  0.00  0.00    +0.013 A 
ATOM     17  C   UNL     1      16.731  41.847  16.027  0.00  0.00    +0.005 A 
ATOM     18  C   UNL     1      16.177  42.373  17.273  0.00  0.00    -0.033 A 
ATOM     28  C   UNL     1      15.821  41.452  18.340  0.00  0.00    +0.005 A 
ATOM     29  C   UNL     1      16.003  40.057  18.200  0.00  0.00    +0.013 A 
BRANCH  18  19
ATOM     19  C   UNL     1      15.965  43.877  17.525  0.00  0.00    +0.119 C 
BRANCH  19  20
ATOM     20  N   UNL     1      14.883  44.554  16.749  0.00  0.00    -0.302 NA
ATOM     21  C   UNL     1      13.596  43.724  16.713  0.00  0.00    +0.066 C 
ATOM     22  C   UNL     1      12.468  44.457  15.917  0.00  0.00    -0.064 C 
ATOM     23  N   UNL     1      12.959  44.756  14.500  0.00  0.00    +0.379 N 
ATOM     24  C   UNL     1      11.880  45.393  13.731  0.00  0.00    -0.096 C 
ATOM     25  H   UNL     1      13.194  43.782  14.011  0.00  0.00    -0.082 HD
ATOM     26  C   UNL     1      14.240  45.579  14.527  0.00  0.00    -0.064 C 
ATOM     27  C   UNL     1      15.345  44.855  15.345  0.00  0.00    +0.066 C 
ENDBRANCH  19  20
ENDBRANCH  18  19
ENDBRANCH  14  15
ENDBRANCH  12  13
TORSDOF 6
ENDMDL
MODEL 3
REMARK VINA RESULT:      -9.2      4.377     11.681
REMARK  Name = C:\Users\Docking\Desktop\test protocol\1iep_ligandH.pdb
REMARK  8 active torsions:
REMARK  status: ('A' for Active; 'I' for Inactive)
REMARK    1  A    between atoms: _5  and  _11
REMARK    2  A    between atoms: _19  and  _21
REMARK    3  A    between atoms: _22  and  _66
REMARK    4  A    between atoms: _27  and  _30
REMARK    5  A    between atoms: _32  and  _33
REMARK    6  A    between atoms: _38  and  _43
REMARK    7  A    between atoms: _43  and  _46
REMARK    8  A    between atoms: _53  and  _55
REMARK                            x       y       z     vdW  Elec       q    Type
REMARK                         _______ _______ _______ _____ _____    ______ ____
ROOT
ATOM     10  C   UNL     1       3.629  33.546   6.621  0.00  0.00    +0.038 A 
ATOM     11  C   UNL     1       2.539  32.639   6.646  0.00  0.00    +0.047 A 
ATOM     12  C   UNL     1       1.219  33.060   7.088  0.00  0.00    +0.035 A 
ATOM     32  C   UNL     1       1.043  34.415   7.495  0.00  0.00    +0.024 A 
ATOM     33  C   UNL     1       2.140  35.351   7.476  0.00  0.00    +0.007 A 
ATOM     34  C   UNL     1       3.445  34.940   7.044  0.00  0.00    -0.029 A 
ATOM     35  C   UNL     1       4.586  35.984   7.050  0.00  0.00    +0.045 C 
ENDROOT
BRANCH  10   9
ATOM      4  C   UNL     1       6.483  31.503   3.347  0.00  0.00    +0.077 A 
ATOM      5  C   UNL     1       5.394  31.308   2.434  0.00  0.00    +0.048 A 
ATOM      6  C   UNL     1       4.115  31.741   2.847  0.00  0.00    +0.116 A 
ATOM      7  N   UNL     1       3.948  32.324   4.084  0.00  0.00    -0.223 NA
ATOM      8  C   UNL     1       5.019  32.496   4.942  0.00  0.00    +0.220 A 
ATOM      9  N   UNL     1       4.875  33.088   6.188  0.00  0.00    -0.283 N 
ATOM     36  H   UNL     1       5.688  33.190   6.794  0.00  0.00    +0.155 HD
ATOM     37  N   UNL     1       6.251  32.090   4.571  0.00  0.00    -0.214 NA
BRANCH   4   3
ATOM      1  C   UNL     1      10.026  29.863   3.592  0.00  0.00    +0.020 A 
ATOM      2  C   UNL     1       8.665  30.220   3.922  0.00  0.00    +0.013 A 
ATOM      3  C   UNL     1       7.895  31.102   3.053  0.00  0.00    +0.019 A 
ATOM     38  C   UNL     1       8.536  31.607   1.849  0.00  0.00    +0.120 A 
ATOM     39  N   UNL     1       9.848  31.247   1.557  0.00  0.00    -0.263 NA
ATOM     40  C   UNL     1      10.599  30.401   2.387  0.00  0.00    +0.111 A 
ENDBRANCH   4   3
ENDBRANCH  10   9
BRANCH  12  13
ATOM     13  N   UNL     1       0.077  32.181   7.143  0.00  0.00    -0.281 N 
ATOM     14  C   UNL     1      -0.684  31.707   6.087  0.00  0.00    +0.248 C 
ATOM     30  O   UNL     1      -0.628  32.140   4.946  0.00  0.00    -0.270 OA
ATOM     31  H   UNL     1      -0.204  31.871   8.073  0.00  0.00    +0.155 HD
BRANCH  14  15
ATOM     15  C   UNL     1      -1.658  30.602   6.339  0.00  0.00    +0.037 A 
ATOM     16  C   UNL     1      -3.067  30.729   5.958  0.00  0.00    +0.013 A 
ATOM     17  C   UNL     1      -3.989  29.655   6.228  0.00  0.00    +0.005 A 
ATOM     18  C   UNL     1      -3.504  28.441   6.881  0.00  0.00    -0.033 A 
ATOM     28  C   UNL     1      -2.100  28.339   7.243  0.00  0.00    +0.005 A 
ATOM     29  C   UNL     1      -1.194  29.391   6.981  0.00  0.00    +0.013 A 
BRANCH  18  19
ATOM     19  C   UNL     1      -4.421  27.253   7.226  0.00  0.00    +0.119 C 
BRANCH  19  20
ATOM     20  N   UNL     1      -4.572  26.903   8.670  0.00  0.00    -0.302 NA
ATOM     21  C   UNL     1      -5.484  25.689   8.874  0.00  0.00    +0.066 C 
ATOM     22  C   UNL     1      -5.612  25.323  10.389  0.00  0.00    -0.064 C 
ATOM     23  N   UNL     1      -6.140  26.533  11.161  0.00  0.00    +0.379 N 
ATOM     24  C   UNL     1      -6.317  26.174  12.575  0.00  0.00    -0.096 C 
ATOM     25  H   UNL     1      -7.144  26.786  10.747  0.00  0.00    -0.082 HD
ATOM     26  C   UNL     1      -5.241  27.745  10.961  0.00  0.00    -0.064 C 
ATOM     27  C   UNL     1      -5.096  28.083   9.450  0.00  0.00    +0.066 C 
ENDBRANCH  19  20
ENDBRANCH  18  19
ENDBRANCH  14  15
ENDBRANCH  12  13
TORSDOF 6
ENDMDL
MODEL 4
REMARK VINA RESULT:      -8.8     15.117     20.576
REMARK  Name = C:\Users\Docking\Desktop\test protocol\1iep_ligandH.pdb
REMARK  8 active torsions:
REMARK  status: ('A' for Active; 'I' for Inactive)
REMARK    1  A    between atoms: _5  and  _11
REMARK    2  A    between atoms: _19  and  _21
REMARK    3  A    between atoms: _22  and  _66
REMARK    4  A    between atoms: _27  and  _30
REMARK    5  A    between atoms: _32  and  _33
REMARK    6  A    between atoms: _38  and  _43
REMARK    7  A    between atoms: _43  and  _46
REMARK    8  A    between atoms: _53  and  _55
REMARK                            x       y       z     vdW  Elec       q    Type
REMARK                         _______ _______ _______ _____ _____    ______ ____
ROOT
ATOM     10  C   UNL     1      19.116  28.980  11.569  0.00  0.00    +0.038 A 
ATOM     11  C   UNL     1      18.326  27.829  11.316  0.00  0.00    +0.047 A 
ATOM     12  C   UNL     1      18.634  26.933  10.212  0.00  0.00    +0.035 A 
ATOM     32  C   UNL     1      19.755  27.238   9.387  0.00  0.00    +0.024 A 
ATOM     33  C   UNL     1      20.568  28.404   9.629  0.00  0.00    +0.007 A 
ATOM     34  C   UNL     1      20.268  29.293  10.715  0.00  0.00    -0.029 A 
ATOM     35  C   UNL     1      21.170  30.532  10.924  0.00  0.00    +0.045 C 
ENDROOT
BRANCH  10   9
ATOM      4  C   UNL     1      16.488  32.469  13.558  0.00  0.00    +0.077 A 
ATOM      5  C   UNL     1      15.749  32.684  12.347  0.00  0.00    +0.048 A 
ATOM      6  C   UNL     1      16.081  31.880  11.233  0.00  0.00    +0.116 A 
ATOM      7  N   UNL     1      17.079  30.935  11.334  0.00  0.00    -0.223 NA
ATOM      8  C   UNL     1      17.773  30.755  12.517  0.00  0.00    +0.220 A 
ATOM      9  N   UNL     1      18.776  29.806  12.643  0.00  0.00    -0.283 N 
ATOM     36  H   UNL     1      19.269  29.709  13.530  0.00  0.00    +0.155 HD
ATOM     37  N   UNL     1      17.476  31.511  13.594  0.00  0.00    -0.214 NA
BRANCH   4   3
ATOM      1  C   UNL     1      14.748  34.351  16.513  0.00  0.00    +0.020 A 
ATOM      2  C   UNL     1      14.921  33.610  15.285  0.00  0.00    +0.013 A 
ATOM      3  C   UNL     1      16.252  33.237  14.821  0.00  0.00    +0.019 A 
ATOM     38  C   UNL     1      17.395  33.633  15.630  0.00  0.00    +0.120 A 
ATOM     39  N   UNL     1      17.197  34.348  16.807  0.00  0.00    -0.263 NA
ATOM     40  C   UNL     1      15.921  34.713  17.262  0.00  0.00    +0.111 A 
ENDBRANCH   4   3
ENDBRANCH  10   9
BRANCH  12  13
ATOM     13  N   UNL     1      17.863  25.755   9.902  0.00  0.00    -0.281 N 
ATOM     14  C   UNL     1      18.149  24.440  10.230  0.00  0.00    +0.248 C 
ATOM     30  O   UNL     1      19.226  24.053  10.658  0.00  0.00    -0.270 OA
ATOM     31  H   UNL     1      17.002  25.909   9.377  0.00  0.00    +0.155 HD
BRANCH  14  15
ATOM     15  C   UNL     1      17.090  23.402  10.042  0.00  0.00    +0.037 A 
ATOM     16  C   UNL     1      16.476  23.172   8.731  0.00  0.00    +0.013 A 
ATOM     17  C   UNL     1      15.445  22.176   8.581  0.00  0.00    +0.005 A 
ATOM     18  C   UNL     1      15.021  21.402   9.745  0.00  0.00    -0.033 A 
ATOM     28  C   UNL     1      15.650  21.648  11.032  0.00  0.00    +0.005 A 
ATOM     29  C   UNL     1      16.661  22.623  11.184  0.00  0.00    +0.013 A 
BRANCH  18  19
ATOM     19  C   UNL     1      13.913  20.334   9.681  0.00  0.00    +0.119 C 
BRANCH  19  20
ATOM     20  N   UNL     1      12.582  20.761   9.155  0.00  0.00    -0.302 NA
ATOM     21  C   UNL     1      11.985  21.914   9.967  0.00  0.00    +0.066 C 
ATOM     22  C   UNL     1      10.604  22.363   9.390  0.00  0.00    -0.064 C 
ATOM     23  N   UNL     1       9.651  21.166   9.367  0.00  0.00    +0.379 N 
ATOM     24  C   UNL     1       8.333  21.598   8.879  0.00  0.00    -0.096 C 
ATOM     25  H   UNL     1       9.524  20.815  10.418  0.00  0.00    -0.082 HD
ATOM     26  C   UNL     1      10.237  20.014   8.564  0.00  0.00    -0.064 C 
ATOM     27  C   UNL     1      11.624  19.596   9.128  0.00  0.00    +0.066 C 
ENDBRANCH  19  20
ENDBRANCH  18  19
ENDBRANCH  14  15
ENDBRANCH  12  13
TORSDOF 6
ENDMDL
MODEL 5
REMARK VINA RESULT:      -8.8     19.285     23.875
REMARK  Name = C:\Users\Docking\Desktop\test protocol\1iep_ligandH.pdb
REMARK  8 active torsions:
REMARK  status: ('A' for Active; 'I' for Inactive)
REMARK    1  A    between atoms: _5  and  _11
REMARK    2  A    between atoms: _19  and  _21
REMARK    3  A    between atoms: _22  and  _66
REMARK    4  A    between atoms: _27  and  _30
REMARK    5  A    between atoms: _32  and  _33
REMARK    6  A    between atoms: _38  and  _43
REMARK    7  A    between atoms: _43  and  _46
REMARK    8  A    between atoms: _53  and  _55
REMARK                            x       y       z     vdW  Elec       q    Type
REMARK                         _______ _______ _______ _____ _____    ______ ____
ROOT
ATOM     10  C   UNL     1      18.171  30.704  12.741  0.00  0.00    +0.038 A 
ATOM     11  C   UNL     1      18.577  29.533  13.431  0.00  0.00    +0.047 A 
ATOM     12  C   UNL     1      18.489  28.223  12.805  0.00  0.00    +0.035 A 
ATOM     32  C   UNL     1      17.986  28.142  11.474  0.00  0.00    +0.024 A 
ATOM     33  C   UNL     1      17.568  29.322  10.759  0.00  0.00    +0.007 A 
ATOM     34  C   UNL     1      17.650  30.617  11.372  0.00  0.00    -0.029 A 
ATOM     35  C   UNL     1      17.182  31.847  10.560  0.00  0.00    +0.045 C 
ENDROOT
BRANCH  10   9
ATOM      4  C   UNL     1      16.472  34.105  15.671  0.00  0.00    +0.077 A 
ATOM      5  C   UNL     1      15.258  33.377  15.908  0.00  0.00    +0.048 A 
ATOM      6  C   UNL     1      15.107  32.135  15.251  0.00  0.00    +0.116 A 
ATOM      7  N   UNL     1      16.103  31.666  14.422  0.00  0.00    -0.223 NA
ATOM      8  C   UNL     1      17.260  32.393  14.214  0.00  0.00    +0.220 A 
ATOM      9  N   UNL     1      18.277  31.936  13.390  0.00  0.00    -0.283 N 
ATOM     36  H   UNL     1      19.112  32.506  13.256  0.00  0.00    +0.155 HD
ATOM     37  N   UNL     1      17.427  33.583  14.828  0.00  0.00    -0.214 NA
BRANCH   4   3
ATOM      1  C   UNL     1      16.172  37.791  16.945  0.00  0.00    +0.020 A 
ATOM      2  C   UNL     1      15.824  36.531  16.330  0.00  0.00    +0.013 A 
ATOM      3  C   UNL     1      16.780  35.431  16.294  0.00  0.00    +0.019 A 
ATOM     38  C   UNL     1      18.088  35.640  16.896  0.00  0.00    +0.120 A 
ATOM     39  N   UNL     1      18.395  36.865  17.480  0.00  0.00    -0.263 NA
ATOM     40  C   UNL     1      17.484  37.931  17.519  0.00  0.00    +0.111 A 
ENDBRANCH   4   3
ENDBRANCH  10   9
BRANCH  12  13
ATOM     13  N   UNL     1      18.878  26.998  13.459  0.00  0.00    -0.281 N 
ATOM     14  C   UNL     1      20.107  26.361  13.412  0.00  0.00    +0.248 C 
ATOM     30  O   UNL     1      20.999  26.637  12.623  0.00  0.00    -0.270 OA
ATOM     31  H   UNL     1      18.161  26.546  14.026  0.00  0.00    +0.155 HD
BRANCH  14  15
ATOM     15  C   UNL     1      20.380  25.246  14.370  0.00  0.00    +0.037 A 
ATOM     16  C   UNL     1      20.298  25.451  15.818  0.00  0.00    +0.013 A 
ATOM     17  C   UNL     1      20.583  24.364  16.720  0.00  0.00    +0.005 A 
ATOM     18  C   UNL     1      20.951  23.059  16.175  0.00  0.00    -0.033 A 
ATOM     28  C   UNL     1      21.020  22.882  14.734  0.00  0.00    +0.005 A 
ATOM     29  C   UNL     1      20.743  23.946  13.847  0.00  0.00    +0.013 A 
BRANCH  18  19
ATOM     19  C   UNL     1      21.292  21.848  17.063  0.00  0.00    +0.119 C 
BRANCH  19  20
ATOM     20  N   UNL     1      22.725  21.432  17.132  0.00  0.00    -0.302 NA
ATOM     21  C   UNL     1      23.008  20.200  16.268  0.00  0.00    +0.066 C 
ATOM     22  C   UNL     1      24.516  19.792  16.334  0.00  0.00    -0.064 C 
ATOM     23  N   UNL     1      24.909  19.535  17.790  0.00  0.00    +0.379 N 
ATOM     24  C   UNL     1      26.310  19.096  17.850  0.00  0.00    -0.096 C 
ATOM     25  H   UNL     1      24.275  18.699  18.169  0.00  0.00    -0.082 HD
ATOM     26  C   UNL     1      24.628  20.755  18.656  0.00  0.00    -0.064 C 
ATOM     27  C   UNL     1      23.133  21.169  18.560  0.00  0.00    +0.066 C 
ENDBRANCH  19  20
ENDBRANCH  18  19
ENDBRANCH  14  15
ENDBRANCH  12  13
TORSDOF 6
ENDMDL
