MODEL 1
REMARK VINA RESULT:     -10.6      0.000      0.000
REMARK  Name = C:\Users\Docking\Desktop\test protocol\1iep_ligandH.pdb
REMARK  8 active torsions:
REMARK  status: ('A' for Active; 'I' for Inactive)
REMARK    1  A    between atoms: _5  and  _11
REMARK    2  A    between atoms: _19  and  _21
REMARK    3  A    between atoms: _22  and  _66
REMARK    4  A    between atoms: _27  and  _30
REMARK    5  A    between atoms: _32  and  _33
REMARK    6  A    between atoms: _38  and  _43
REMARK    7  A    between atoms: _43  and  _46
REMARK    8  A    between atoms: _53  and  _55
REMARK                            x       y       z     vdW  Elec       q    Type
REMARK                         _______ _______ _______ _____ _____    ______ ____
ROOT
ATOM     10  C   UNL     1       6.599   7.396  12.737  0.00  0.00    +0.038 A 
ATOM     11  C   UNL     1       5.834   8.317  13.498  0.00  0.00    +0.047 A 
ATOM     12  C   UNL     1       4.448   8.042  13.841  0.00  0.00    +0.035 A 
ATOM     32  C   UNL     1       3.871   6.818  13.395  0.00  0.00    +0.024 A 
ATOM     33  C   UNL     1       4.633   5.870  12.619  0.00  0.00    +0.007 A 
ATOM     34  C   UNL     1       6.001   6.137  12.276  0.00  0.00    -0.029 A 
ATOM     35  C   UNL     1       6.768   5.088  11.437  0.00  0.00    +0.045 C 
ENDROOT
BRANCH  10   9
ATOM      4  C   UNL     1       9.924   9.641  10.104  0.00  0.00    +0.077 A 
ATOM      5  C   UNL     1       8.936  10.215   9.237  0.00  0.00    +0.048 A 
ATOM      6  C   UNL     1       7.583   9.901   9.498  0.00  0.00    +0.116 A 
ATOM      7  N   UNL     1       7.255   9.075  10.552  0.00  0.00    -0.223 NA
ATOM      8  C   UNL     1       8.233   8.537  11.368  0.00  0.00    +0.220 A 
ATOM      9  N   UNL     1       7.926   7.711  12.437  0.00  0.00    -0.283 N 
ATOM     36  H   UNL     1       8.677   7.328  13.011  0.00  0.00    +0.155 HD
ATOM     37  N   UNL     1       9.532   8.820  11.138  0.00  0.00    -0.214 NA
BRANCH   4   3
ATOM      1  C   UNL     1      13.391  10.895   8.795  0.00  0.00    +0.020 A 
ATOM      2  C   UNL     1      11.963  10.694   8.891  0.00  0.00    +0.013 A 
ATOM      3  C   UNL     1      11.395   9.881   9.959  0.00  0.00    +0.019 A 
ATOM     38  C   UNL     1      12.306   9.282  10.922  0.00  0.00    +0.120 A 
ATOM     39  N   UNL     1      13.676   9.492  10.805  0.00  0.00    -0.263 NA
ATOM     40  C   UNL     1      14.235  10.270   9.780  0.00  0.00    +0.111 A 
ENDBRANCH   4   3
ENDBRANCH  10   9
BRANCH  12  13
ATOM     13  N   UNL     1       3.620   8.944  14.604  0.00  0.00    -0.281 N 
ATOM     14  C   UNL     1       3.617   9.143  15.975  0.00  0.00    +0.248 C 
ATOM     30  O   UNL     1       4.181   8.417  16.780  0.00  0.00    -0.270 OA
ATOM     31  H   UNL     1       2.956   9.503  14.068  0.00  0.00    +0.155 HD
BRANCH  14  15
ATOM     15  C   UNL     1       2.867  10.309  16.533  0.00  0.00    +0.037 A 
ATOM     16  C   UNL     1       2.571  11.486  15.712  0.00  0.00    +0.013 A 
ATOM     17  C   UNL     1       1.861  12.604  16.281  0.00  0.00    +0.005 A 
ATOM     18  C   UNL     1       1.440  12.549  17.679  0.00  0.00    -0.033 A 
ATOM     28  C   UNL     1       1.742  11.367  18.469  0.00  0.00    +0.005 A 
ATOM     29  C   UNL     1       2.439  10.270  17.915  0.00  0.00    +0.013 A 
BRANCH  18  19
ATOM     19  C   UNL     1       0.697  13.705  18.374  0.00  0.00    +0.119 C 
BRANCH  19  20
ATOM     20  N   UNL     1       0.325  13.514  19.808  0.00  0.00    -0.302 NA
ATOM     21  C   UNL     1      -1.178  13.278  19.985  0.00  0.00    +0.066 C 
ATOM     22  C   UNL     1      -1.546  13.058  21.488  0.00  0.00    -0.064 C 
ATOM     23  N   UNL     1      -1.088  14.268  22.305  0.00  0.00    +0.379 N 
ATOM     24  C   UNL     1      -1.485  14.090  23.709  0.00  0.00    -0.096 C 
ATOM     25  H   UNL     1      -1.625  15.163  21.912  0.00  0.00    -0.082 HD
ATOM     26  C   UNL     1       0.404  14.512  22.132  0.00  0.00    -0.064 C 
ATOM     27  C   UNL     1       0.764  14.700  20.632  0.00  0.00    +0.066 C 
ENDBRANCH  19  20
ENDBRANCH  18  19
ENDBRANCH  14  15
ENDBRANCH  12  13
TORSDOF 6
ENDMDL
MODEL 2
REMARK VINA RESULT:      -9.5     25.406     28.989
REMARK  Name = C:\Users\Docking\Desktop\test protocol\1iep_ligandH.pdb
REMARK  8 active torsions:
REMARK  status: ('A' for Active; 'I' for Inactive)
REMARK    1  A    between atoms: _5  and  _11
REMARK    2  A    between atoms: _19  and  _21
REMARK    3  A    between atoms: _22  and  _66
REMARK    4  A    between atoms: _27  and  _30
REMARK    5  A    between atoms: _32  and  _33
REMARK    6  A    between atoms: _38  and  _43
REMARK    7  A    between atoms: _43  and  _46
REMARK    8  A    between atoms: _53  and  _55
REMARK                            x       y       z     vdW  Elec       q    Type
REMARK                         _______ _______ _______ _____ _____    ______ ____
ROOT
ATOM     10  C   UNL     1      13.746  32.730  22.318  0.00  0.00    +0.038 A 
ATOM     11  C   UNL     1      15.083  33.106  22.028  0.00  0.00    +0.047 A 
ATOM     12  C   UNL     1      15.914  33.762  23.025  0.00  0.00    +0.035 A 
ATOM     32  C   UNL     1      15.352  34.018  24.310  0.00  0.00    +0.024 A 
ATOM     33  C   UNL     1      13.995  33.645  24.622  0.00  0.00    +0.007 A 
ATOM     34  C   UNL     1      13.170  32.999  23.641  0.00  0.00    -0.029 A 
ATOM     35  C   UNL     1      11.720  32.627  24.029  0.00  0.00    +0.045 C 
ENDROOT
BRANCH  10   9
ATOM      4  C   UNL     1      12.541  28.881  19.716  0.00  0.00    +0.077 A 
ATOM      5  C   UNL     1      13.512  28.057  20.377  0.00  0.00    +0.048 A 
ATOM      6  C   UNL     1      14.306  28.664  21.375  0.00  0.00    +0.116 A 
ATOM      7  N   UNL     1      14.134  29.996  21.682  0.00  0.00    -0.223 NA
ATOM      8  C   UNL     1      13.189  30.763  21.025  0.00  0.00    +0.220 A 
ATOM      9  N   UNL     1      12.993  32.103  21.323  0.00  0.00    -0.283 N 
ATOM     36  H   UNL     1      12.292  32.636  20.810  0.00  0.00    +0.155 HD
ATOM     37  N   UNL     1      12.419  30.208  20.066  0.00  0.00    -0.214 NA
BRANCH   4   3
ATOM      1  C   UNL     1      11.103  26.946  16.636  0.00  0.00    +0.020 A 
ATOM      2  C   UNL     1      12.027  27.393  17.653  0.00  0.00    +0.013 A 
ATOM      3  C   UNL     1      11.624  28.385  18.642  0.00  0.00    +0.019 A 
ATOM     38  C   UNL     1      10.268  28.908  18.574  0.00  0.00    +0.120 A 
ATOM     39  N   UNL     1       9.401  28.460  17.583  0.00  0.00    -0.263 NA
ATOM     40  C   UNL     1       9.778  27.508  16.625  0.00  0.00    +0.111 A 
ENDBRANCH   4   3
ENDBRANCH  10   9
BRANCH  12  13
ATOM     13  N   UNL     1      17.275  34.173  22.785  0.00  0.00    -0.281 N 
ATOM     14  C   UNL     1      17.722  35.208  21.980  0.00  0.00    +0.248 C 
ATOM     30  O   UNL     1      17.027  35.805  21.171  0.00  0.00    -0.270 OA
ATOM     31  H   UNL     1      17.996  33.636  23.267  0.00  0.00    +0.155 HD
BRANCH  14  15
ATOM     15  C   UNL     1      19.153  35.631  22.076  0.00  0.00    +0.037 A 
ATOM     16  C   UNL     1      20.123  34.858  22.856  0.00  0.00    +0.013 A 
ATOM     17  C   UNL     1      21.493  35.297  22.946  0.00  0.00    +0.005 A 
ATOM     18  C   UNL     1      21.901  36.516  22.252  0.00  0.00    -0.033 A 
ATOM     28  C   UNL     1      20.919  37.261  21.481  0.00  0.00    +0.005 A 
ATOM     29  C   UNL     1      19.575  36.834  21.391  0.00  0.00    +0.013 A 
BRANCH  18  19
ATOM     19  C   UNL     1      23.337  37.071  22.310  0.00  0.00    +0.119 C 
BRANCH  19  20
ATOM     20  N   UNL     1      23.948  37.523  21.025  0.00  0.00    -0.302 NA
ATOM     21  C   UNL     1      25.131  36.643  20.611  0.00  0.00    +0.066 C 
ATOM     22  C   UNL     1      25.744  37.115  19.252  0.00  0.00    -0.064 C 
ATOM     23  N   UNL     1      26.173  38.579  19.372  0.00  0.00    +0.379 N 
ATOM     24  C   UNL     1      26.803  39.009  18.115  0.00  0.00    -0.096 C 
ATOM     25  H   UNL     1      26.944  38.640  20.175  0.00  0.00    -0.082 HD
ATOM     26  C   UNL     1      25.004  39.460  19.786  0.00  0.00    -0.064 C 
ATOM     27  C   UNL     1      24.383  38.964  21.122  0.00  0.00    +0.066 C 
ENDBRANCH  19  20
ENDBRANCH  18  19
ENDBRANCH  14  15
ENDBRANCH  12  13
TORSDOF 6
ENDMDL
MODEL 3
REMARK VINA RESULT:      -9.4      2.509     13.092
REMARK  Name = C:\Users\Docking\Desktop\test protocol\1iep_ligandH.pdb
REMARK  8 active torsions:
REMARK  status: ('A' for Active; 'I' for Inactive)
REMARK    1  A    between atoms: _5  and  _11
REMARK    2  A    between atoms: _19  and  _21
REMARK    3  A    between atoms: _22  and  _66
REMARK    4  A    between atoms: _27  and  _30
REMARK    5  A    between atoms: _32  and  _33
REMARK    6  A    between atoms: _38  and  _43
REMARK    7  A    between atoms: _43  and  _46
REMARK    8  A    between atoms: _53  and  _55
REMARK                            x       y       z     vdW  Elec       q    Type
REMARK                         _______ _______ _______ _____ _____    ______ ____
ROOT
ATOM     10  C   UNL     1       5.993   7.090  13.818  0.00  0.00    +0.038 A 
ATOM     11  C   UNL     1       7.140   7.687  13.235  0.00  0.00    +0.047 A 
ATOM     12  C   UNL     1       7.820   7.068  12.109  0.00  0.00    +0.035 A 
ATOM     32  C   UNL     1       7.304   5.841  11.599  0.00  0.00    +0.024 A 
ATOM     33  C   UNL     1       6.140   5.219  12.180  0.00  0.00    +0.007 A 
ATOM     34  C   UNL     1       5.466   5.825  13.293  0.00  0.00    -0.029 A 
ATOM     35  C   UNL     1       4.226   5.111  13.881  0.00  0.00    +0.045 C 
ENDROOT
BRANCH  10   9
ATOM      4  C   UNL     1       3.177  10.506  15.672  0.00  0.00    +0.077 A 
ATOM      5  C   UNL     1       2.929  11.084  14.382  0.00  0.00    +0.048 A 
ATOM      6  C   UNL     1       3.551  10.477  13.269  0.00  0.00    +0.116 A 
ATOM      7  N   UNL     1       4.358   9.374  13.443  0.00  0.00    -0.223 NA
ATOM      8  C   UNL     1       4.577   8.842  14.700  0.00  0.00    +0.220 A 
ATOM      9  N   UNL     1       5.379   7.729  14.898  0.00  0.00    -0.283 N 
ATOM     36  H   UNL     1       5.522   7.371  15.842  0.00  0.00    +0.155 HD
ATOM     37  N   UNL     1       3.996   9.405  15.780  0.00  0.00    -0.214 NA
BRANCH   4   3
ATOM      1  C   UNL     1       2.355  11.061  19.456  0.00  0.00    +0.020 A 
ATOM      2  C   UNL     1       2.952  10.517  18.258  0.00  0.00    +0.013 A 
ATOM      3  C   UNL     1       2.589  11.033  16.944  0.00  0.00    +0.019 A 
ATOM     38  C   UNL     1       1.611  12.108  16.877  0.00  0.00    +0.120 A 
ATOM     39  N   UNL     1       1.051  12.611  18.047  0.00  0.00    -0.263 NA
ATOM     40  C   UNL     1       1.392  12.121  19.317  0.00  0.00    +0.111 A 
ENDBRANCH   4   3
ENDBRANCH  10   9
BRANCH  12  13
ATOM     13  N   UNL     1       8.993   7.623  11.481  0.00  0.00    -0.281 N 
ATOM     14  C   UNL     1       9.101   8.812  10.778  0.00  0.00    +0.248 C 
ATOM     30  O   UNL     1       8.150   9.479  10.399  0.00  0.00    -0.270 OA
ATOM     31  H   UNL     1       9.848   7.073  11.564  0.00  0.00    +0.155 HD
BRANCH  14  15
ATOM     15  C   UNL     1      10.461   9.328  10.435  0.00  0.00    +0.037 A 
ATOM     16  C   UNL     1      10.654  10.317   9.371  0.00  0.00    +0.013 A 
ATOM     17  C   UNL     1      11.978  10.784   9.049  0.00  0.00    +0.005 A 
ATOM     18  C   UNL     1      13.122  10.264   9.794  0.00  0.00    -0.033 A 
ATOM     28  C   UNL     1      12.903   9.287  10.848  0.00  0.00    +0.005 A 
ATOM     29  C   UNL     1      11.606   8.826  11.166  0.00  0.00    +0.013 A 
BRANCH  18  19
ATOM     19  C   UNL     1      14.574  10.691   9.504  0.00  0.00    +0.119 C 
BRANCH  19  20
ATOM     20  N   UNL     1      14.866  11.244   8.148  0.00  0.00    -0.302 NA
ATOM     21  C   UNL     1      15.336  10.160   7.174  0.00  0.00    +0.066 C 
ATOM     22  C   UNL     1      15.615  10.752   5.755  0.00  0.00    -0.064 C 
ATOM     23  N   UNL     1      16.655  11.868   5.866  0.00  0.00    +0.379 N 
ATOM     24  C   UNL     1      16.963  12.388   4.526  0.00  0.00    -0.096 C 
ATOM     25  H   UNL     1      17.589  11.419   6.278  0.00  0.00    -0.082 HD
ATOM     26  C   UNL     1      16.197  12.949   6.835  0.00  0.00    -0.064 C 
ATOM     27  C   UNL     1      15.894  12.345   8.234  0.00  0.00    +0.066 C 
ENDBRANCH  19  20
ENDBRANCH  18  19
ENDBRANCH  14  15
ENDBRANCH  12  13
TORSDOF 6
ENDMDL
MODEL 4
REMARK VINA RESULT:      -9.4      2.968     13.448
REMARK  Name = C:\Users\Docking\Desktop\test protocol\1iep_ligandH.pdb
REMARK  8 active torsions:
REMARK  status: ('A' for Active; 'I' for Inactive)
REMARK    1  A    between atoms: _5  and  _11
REMARK    2  A    between atoms: _19  and  _21
REMARK    3  A    between atoms: _22  and  _66
REMARK    4  A    between atoms: _27  and  _30
REMARK    5  A    between atoms: _32  and  _33
REMARK    6  A    between atoms: _38  and  _43
REMARK    7  A    between atoms: _43  and  _46
REMARK    8  A    between atoms: _53  and  _55
REMARK                            x       y       z     vdW  Elec       q    Type
REMARK                         _______ _______ _______ _____ _____    ______ ____
ROOT
ATOM     10  C   UNL     1       4.632   9.235  11.370  0.00  0.00    +0.038 A 
ATOM     11  C   UNL     1       6.006   9.492  11.132  0.00  0.00    +0.047 A 
ATOM     12  C   UNL     1       6.755   8.728  10.147  0.00  0.00    +0.035 A 
ATOM     32  C   UNL     1       6.072   7.710   9.419  0.00  0.00    +0.024 A 
ATOM     33  C   UNL     1       4.676   7.435   9.649  0.00  0.00    +0.007 A 
ATOM     34  C   UNL     1       3.932   8.183  10.622  0.00  0.00    -0.029 A 
ATOM     35  C   UNL     1       2.439   7.840  10.831  0.00  0.00    +0.045 C 
ENDROOT
BRANCH  10   9
ATOM      4  C   UNL     1       3.207  10.073  15.876  0.00  0.00    +0.077 A 
ATOM      5  C   UNL     1       3.829   8.873  16.359  0.00  0.00    +0.048 A 
ATOM      6  C   UNL     1       4.499   8.065  15.413  0.00  0.00    +0.116 A 
ATOM      7  N   UNL     1       4.538   8.438  14.087  0.00  0.00    -0.223 NA
ATOM      8  C   UNL     1       3.927   9.600  13.655  0.00  0.00    +0.220 A 
ATOM      9  N   UNL     1       3.961   9.999  12.328  0.00  0.00    -0.283 N 
ATOM     36  H   UNL     1       3.492  10.859  12.048  0.00  0.00    +0.155 HD
ATOM     37  N   UNL     1       3.280  10.389  14.538  0.00  0.00    -0.214 NA
BRANCH   4   3
ATOM      1  C   UNL     1       1.395  11.696  18.939  0.00  0.00    +0.020 A 
ATOM      2  C   UNL     1       2.113  10.734  18.135  0.00  0.00    +0.013 A 
ATOM      3  C   UNL     1       2.464  11.033  16.753  0.00  0.00    +0.019 A 
ATOM     38  C   UNL     1       2.072  12.325  16.210  0.00  0.00    +0.120 A 
ATOM     39  N   UNL     1       1.380  13.231  17.007  0.00  0.00    -0.263 NA
ATOM     40  C   UNL     1       1.035  12.954  18.339  0.00  0.00    +0.111 A 
ENDBRANCH   4   3
ENDBRANCH  10   9
BRANCH  12  13
ATOM     13  N   UNL     1       8.154   8.939   9.868  0.00  0.00    -0.281 N 
ATOM     14  C   UNL     1       8.738  10.002   9.198  0.00  0.00    +0.248 C 
ATOM     30  O   UNL     1       8.121  10.831   8.547  0.00  0.00    -0.270 OA
ATOM     31  H   UNL     1       8.791   8.217  10.205  0.00  0.00    +0.155 HD
BRANCH  14  15
ATOM     15  C   UNL     1      10.224  10.157   9.247  0.00  0.00    +0.037 A 
ATOM     16  C   UNL     1      10.990   9.769  10.434  0.00  0.00    +0.013 A 
ATOM     17  C   UNL     1      12.420   9.946  10.461  0.00  0.00    +0.005 A 
ATOM     18  C   UNL     1      13.094  10.512   9.295  0.00  0.00    -0.033 A 
ATOM     28  C   UNL     1      12.311  10.883   8.129  0.00  0.00    +0.005 A 
ATOM     29  C   UNL     1      10.908  10.713   8.099  0.00  0.00    +0.013 A 
BRANCH  18  19
ATOM     19  C   UNL     1      14.614  10.755   9.244  0.00  0.00    +0.119 C 
BRANCH  19  20
ATOM     20  N   UNL     1      15.183  11.258   7.958  0.00  0.00    -0.302 NA
ATOM     21  C   UNL     1      15.895  10.153   7.173  0.00  0.00    +0.066 C 
ATOM     22  C   UNL     1      16.464  10.691   5.821  0.00  0.00    -0.064 C 
ATOM     23  N   UNL     1      17.416  11.856   6.099  0.00  0.00    +0.379 N 
ATOM     24  C   UNL     1      17.998  12.327   4.834  0.00  0.00    -0.096 C 
ATOM     25  H   UNL     1      18.249  11.468   6.731  0.00  0.00    -0.082 HD
ATOM     26  C   UNL     1      16.718  12.959   6.882  0.00  0.00    -0.064 C 
ATOM     27  C   UNL     1      16.130  12.406   8.210  0.00  0.00    +0.066 C 
ENDBRANCH  19  20
ENDBRANCH  18  19
ENDBRANCH  14  15
ENDBRANCH  12  13
TORSDOF 6
ENDMDL
MODEL 5
REMARK VINA RESULT:      -9.2      3.781      6.137
REMARK  Name = C:\Users\Docking\Desktop\test protocol\1iep_ligandH.pdb
REMARK  8 active torsions:
REMARK  status: ('A' for Active; 'I' for Inactive)
REMARK    1  A    between atoms: _5  and  _11
REMARK    2  A    between atoms: _19  and  _21
REMARK    3  A    between atoms: _22  and  _66
REMARK    4  A    between atoms: _27  and  _30
REMARK    5  A    between atoms: _32  and  _33
REMARK    6  A    between atoms: _38  and  _43
REMARK    7  A    between atoms: _43  and  _46
REMARK    8  A    between atoms: _53  and  _55
REMARK                            x       y       z     vdW  Elec       q    Type
REMARK                         _______ _______ _______ _____ _____    ______ ____
ROOT
ATOM     10  C   UNL     1       6.431   6.866  14.095  0.00  0.00    +0.038 A 
ATOM     11  C   UNL     1       5.547   7.707  14.818  0.00  0.00    +0.047 A 
ATOM     12  C   UNL     1       4.688   8.661  14.135  0.00  0.00    +0.035 A 
ATOM     32  C   UNL     1       4.752   8.730  12.713  0.00  0.00    +0.024 A 
ATOM     33  C   UNL     1       5.645   7.884  11.962  0.00  0.00    +0.007 A 
ATOM     34  C   UNL     1       6.497   6.943  12.630  0.00  0.00    -0.029 A 
ATOM     35  C   UNL     1       7.440   6.065  11.775  0.00  0.00    +0.045 C 
ENDROOT
BRANCH  10   9
ATOM      4  C   UNL     1       7.260   2.559  16.045  0.00  0.00    +0.077 A 
ATOM      5  C   UNL     1       5.975   2.065  15.644  0.00  0.00    +0.048 A 
ATOM      6  C   UNL     1       5.127   2.953  14.944  0.00  0.00    +0.116 A 
ATOM      7  N   UNL     1       5.545   4.237  14.671  0.00  0.00    -0.223 NA
ATOM      8  C   UNL     1       6.790   4.683  15.073  0.00  0.00    +0.220 A 
ATOM      9  N   UNL     1       7.234   5.968  14.802  0.00  0.00    -0.283 N 
ATOM     36  H   UNL     1       8.156   6.261  15.122  0.00  0.00    +0.155 HD
ATOM     37  N   UNL     1       7.618   3.855  15.744  0.00  0.00    -0.214 NA
BRANCH   4   3
ATOM      1  C   UNL     1       8.956  -0.278  18.136  0.00  0.00    +0.020 A 
ATOM      2  C   UNL     1       7.944   0.474  17.430  0.00  0.00    +0.013 A 
ATOM      3  C   UNL     1       8.270   1.741  16.788  0.00  0.00    +0.019 A 
ATOM     38  C   UNL     1       9.640   2.222  16.878  0.00  0.00    +0.120 A 
ATOM     39  N   UNL     1      10.593   1.477  17.566  0.00  0.00    -0.263 NA
ATOM     40  C   UNL     1      10.290   0.257  18.189  0.00  0.00    +0.111 A 
ENDBRANCH   4   3
ENDBRANCH  10   9
BRANCH  12  13
ATOM     13  N   UNL     1       3.776   9.546  14.817  0.00  0.00    -0.281 N 
ATOM     14  C   UNL     1       3.320   9.458  16.122  0.00  0.00    +0.248 C 
ATOM     30  O   UNL     1       3.462   8.478  16.839  0.00  0.00    -0.270 OA
ATOM     31  H   UNL     1       3.425  10.333  14.272  0.00  0.00    +0.155 HD
BRANCH  14  15
ATOM     15  C   UNL     1       2.589  10.621  16.712  0.00  0.00    +0.037 A 
ATOM     16  C   UNL     1       2.349  11.840  15.936  0.00  0.00    +0.013 A 
ATOM     17  C   UNL     1       1.656  12.953  16.534  0.00  0.00    +0.005 A 
ATOM     18  C   UNL     1       1.195  12.851  17.916  0.00  0.00    -0.033 A 
ATOM     28  C   UNL     1       1.442  11.628  18.661  0.00  0.00    +0.005 A 
ATOM     29  C   UNL     1       2.122  10.535  18.079  0.00  0.00    +0.013 A 
BRANCH  18  19
ATOM     19  C   UNL     1       0.466  13.997  18.642  0.00  0.00    +0.119 C 
BRANCH  19  20
ATOM     20  N   UNL     1       0.032  13.749  20.049  0.00  0.00    -0.302 NA
ATOM     21  C   UNL     1      -1.492  13.680  20.177  0.00  0.00    +0.066 C 
ATOM     22  C   UNL     1      -1.927  13.397  21.652  0.00  0.00    -0.064 C 
ATOM     23  N   UNL     1      -1.356  14.483  22.566  0.00  0.00    +0.379 N 
ATOM     24  C   UNL     1      -1.812  14.252  23.945  0.00  0.00    -0.096 C 
ATOM     25  H   UNL     1      -1.773  15.461  22.231  0.00  0.00    -0.082 HD
ATOM     26  C   UNL     1       0.159  14.560  22.443  0.00  0.00    -0.064 C 
ATOM     27  C   UNL     1       0.582  14.812  20.969  0.00  0.00    +0.066 C 
ENDBRANCH  19  20
ENDBRANCH  18  19
ENDBRANCH  14  15
ENDBRANCH  12  13
TORSDOF 6
ENDMDL
