MODEL 1
REMARK VINA RESULT:     -11.0      0.000      0.000
REMARK  Name = C:\Users\Docking\Desktop\test protocol\1iep_ligandH.pdb
REMARK  8 active torsions:
REMARK  status: ('A' for Active; 'I' for Inactive)
REMARK    1  A    between atoms: _5  and  _11
REMARK    2  A    between atoms: _19  and  _21
REMARK    3  A    between atoms: _22  and  _66
REMARK    4  A    between atoms: _27  and  _30
REMARK    5  A    between atoms: _32  and  _33
REMARK    6  A    between atoms: _38  and  _43
REMARK    7  A    between atoms: _43  and  _46
REMARK    8  A    between atoms: _53  and  _55
REMARK                            x       y       z     vdW  Elec       q    Type
REMARK                         _______ _______ _______ _____ _____    ______ ____
ROOT
ATOM     10  C   UNL     1      48.867  88.357  38.312  0.00  0.00    +0.038 A 
ATOM     11  C   UNL     1      49.125  89.410  37.398  0.00  0.00    +0.047 A 
ATOM     12  C   UNL     1      48.857  90.796  37.752  0.00  0.00    +0.035 A 
ATOM     32  C   UNL     1      48.330  91.072  39.047  0.00  0.00    +0.024 A 
ATOM     33  C   UNL     1      48.061  90.013  39.988  0.00  0.00    +0.007 A 
ATOM     34  C   UNL     1      48.320  88.645  39.643  0.00  0.00    -0.029 A 
ATOM     35  C   UNL     1      48.007  87.549  40.689  0.00  0.00    +0.045 C 
ENDROOT
BRANCH  10   9
ATOM      4  C   UNL     1      51.668  84.460  38.242  0.00  0.00    +0.077 A 
ATOM      5  C   UNL     1      52.680  85.100  39.032  0.00  0.00    +0.048 A 
ATOM      6  C   UNL     1      52.444  86.435  39.430  0.00  0.00    +0.116 A 
ATOM      7  N   UNL     1      51.280  87.072  39.060  0.00  0.00    -0.223 NA
ATOM      8  C   UNL     1      50.325  86.426  38.296  0.00  0.00    +0.220 A 
ATOM      9  N   UNL     1      49.143  87.045  37.919  0.00  0.00    -0.283 N 
ATOM     36  H   UNL     1      48.467  86.537  37.349  0.00  0.00    +0.155 HD
ATOM     37  N   UNL     1      50.527  85.151  37.902  0.00  0.00    -0.214 NA
BRANCH   4   3
ATOM      1  C   UNL     1      52.395  81.329  36.013  0.00  0.00    +0.020 A 
ATOM      2  C   UNL     1      52.318  82.706  36.442  0.00  0.00    +0.013 A 
ATOM      3  C   UNL     1      51.770  83.050  37.748  0.00  0.00    +0.019 A 
ATOM     38  C   UNL     1      51.305  81.968  38.602  0.00  0.00    +0.120 A 
ATOM     39  N   UNL     1      51.390  80.651  38.162  0.00  0.00    -0.263 NA
ATOM     40  C   UNL     1      51.914  80.308  36.906  0.00  0.00    +0.111 A 
ENDBRANCH   4   3
ENDBRANCH  10   9
BRANCH  12  13
ATOM     13  N   UNL     1      49.091  91.906  36.863  0.00  0.00    -0.281 N 
ATOM     14  C   UNL     1      48.156  92.634  36.145  0.00  0.00    +0.248 C 
ATOM     30  O   UNL     1      46.991  92.301  35.992  0.00  0.00    -0.270 OA
ATOM     31  H   UNL     1      50.064  92.191  36.750  0.00  0.00    +0.155 HD
BRANCH  14  15
ATOM     15  C   UNL     1      48.582  93.908  35.490  0.00  0.00    +0.037 A 
ATOM     16  C   UNL     1      48.509  94.076  34.036  0.00  0.00    +0.013 A 
ATOM     17  C   UNL     1      48.942  95.310  33.428  0.00  0.00    +0.005 A 
ATOM     18  C   UNL     1      49.449  96.386  34.275  0.00  0.00    -0.033 A 
ATOM     28  C   UNL     1      49.505  96.195  35.715  0.00  0.00    +0.005 A 
ATOM     29  C   UNL     1      49.083  94.987  36.314  0.00  0.00    +0.013 A 
BRANCH  18  19
ATOM     19  C   UNL     1      49.952  97.728  33.711  0.00  0.00    +0.119 C 
BRANCH  19  20
ATOM     20  N   UNL     1      51.266  97.723  33.002  0.00  0.00    -0.302 NA
ATOM     21  C   UNL     1      52.248  98.731  33.604  0.00  0.00    +0.066 C 
ATOM     22  C   UNL     1      53.626  98.696  32.865  0.00  0.00    -0.064 C 
ATOM     23  N   UNL     1      53.409  98.973  31.376  0.00  0.00    +0.379 N 
ATOM     24  C   UNL     1      54.708  98.998  30.688  0.00  0.00    -0.096 C 
ATOM     25  H   UNL     1      52.958  99.988  31.284  0.00  0.00    -0.082 HD
ATOM     26  C   UNL     1      52.432  97.976  30.770  0.00  0.00    -0.064 C 
ATOM     27  C   UNL     1      51.077  97.999  31.531  0.00  0.00    +0.066 C 
ENDBRANCH  19  20
ENDBRANCH  18  19
ENDBRANCH  14  15
ENDBRANCH  12  13
TORSDOF 6
ENDMDL
MODEL 2
REMARK VINA RESULT:     -10.6      2.194      3.249
REMARK  Name = C:\Users\Docking\Desktop\test protocol\1iep_ligandH.pdb
REMARK  8 active torsions:
REMARK  status: ('A' for Active; 'I' for Inactive)
REMARK    1  A    between atoms: _5  and  _11
REMARK    2  A    between atoms: _19  and  _21
REMARK    3  A    between atoms: _22  and  _66
REMARK    4  A    between atoms: _27  and  _30
REMARK    5  A    between atoms: _32  and  _33
REMARK    6  A    between atoms: _38  and  _43
REMARK    7  A    between atoms: _43  and  _46
REMARK    8  A    between atoms: _53  and  _55
REMARK                            x       y       z     vdW  Elec       q    Type
REMARK                         _______ _______ _______ _____ _____    ______ ____
ROOT
ATOM     10  C   UNL     1      48.295  89.174  36.254  0.00  0.00    +0.038 A 
ATOM     11  C   UNL     1      48.969  90.408  36.067  0.00  0.00    +0.047 A 
ATOM     12  C   UNL     1      48.241  91.616  35.710  0.00  0.00    +0.035 A 
ATOM     32  C   UNL     1      46.827  91.532  35.554  0.00  0.00    +0.024 A 
ATOM     33  C   UNL     1      46.126  90.285  35.740  0.00  0.00    +0.007 A 
ATOM     34  C   UNL     1      46.839  89.090  36.089  0.00  0.00    -0.029 A 
ATOM     35  C   UNL     1      46.037  87.780  36.269  0.00  0.00    +0.045 C 
ENDROOT
BRANCH  10   9
ATOM      4  C   UNL     1      50.113  86.118  39.478  0.00  0.00    +0.077 A 
ATOM      5  C   UNL     1      49.546  86.847  40.576  0.00  0.00    +0.048 A 
ATOM      6  C   UNL     1      48.800  88.007  40.269  0.00  0.00    +0.116 A 
ATOM      7  N   UNL     1      48.638  88.399  38.957  0.00  0.00    -0.223 NA
ATOM      8  C   UNL     1      49.200  87.674  37.922  0.00  0.00    +0.220 A 
ATOM      9  N   UNL     1      49.043  88.045  36.596  0.00  0.00    -0.283 N 
ATOM     36  H   UNL     1      49.479  87.488  35.861  0.00  0.00    +0.155 HD
ATOM     37  N   UNL     1      49.918  86.563  38.189  0.00  0.00    -0.214 NA
BRANCH   4   3
ATOM      1  C   UNL     1      51.704  82.595  38.880  0.00  0.00    +0.020 A 
ATOM      2  C   UNL     1      50.901  83.779  38.676  0.00  0.00    +0.013 A 
ATOM      3  C   UNL     1      50.924  84.870  39.641  0.00  0.00    +0.019 A 
ATOM     38  C   UNL     1      51.778  84.733  40.811  0.00  0.00    +0.120 A 
ATOM     39  N   UNL     1      52.540  83.581  40.982  0.00  0.00    -0.263 NA
ATOM     40  C   UNL     1      52.524  82.523  40.061  0.00  0.00    +0.111 A 
ENDBRANCH   4   3
ENDBRANCH  10   9
BRANCH  12  13
ATOM     13  N   UNL     1      48.872  92.895  35.499  0.00  0.00    -0.281 N 
ATOM     14  C   UNL     1      48.748  93.736  34.405  0.00  0.00    +0.248 C 
ATOM     30  O   UNL     1      48.239  93.416  33.342  0.00  0.00    -0.270 OA
ATOM     31  H   UNL     1      49.485  93.220  36.247  0.00  0.00    +0.155 HD
BRANCH  14  15
ATOM     15  C   UNL     1      49.279  95.130  34.502  0.00  0.00    +0.037 A 
ATOM     16  C   UNL     1      49.409  95.978  33.315  0.00  0.00    +0.013 A 
ATOM     17  C   UNL     1      49.940  97.313  33.434  0.00  0.00    +0.005 A 
ATOM     18  C   UNL     1      50.343  97.809  34.747  0.00  0.00    -0.033 A 
ATOM     28  C   UNL     1      50.198  96.948  35.910  0.00  0.00    +0.005 A 
ATOM     29  C   UNL     1      49.679  95.639  35.797  0.00  0.00    +0.013 A 
BRANCH  18  19
ATOM     19  C   UNL     1      50.939  99.212  34.965  0.00  0.00    +0.119 C 
BRANCH  19  20
ATOM     20  N   UNL     1      52.426  99.316  35.064  0.00  0.00    -0.302 NA
ATOM     21  C   UNL     1      53.134  98.277  34.189  0.00  0.00    +0.066 C 
ATOM     22  C   UNL     1      54.688  98.415  34.287  0.00  0.00    -0.064 C 
ATOM     23  N   UNL     1      55.118  98.276  35.748  0.00  0.00    +0.379 N 
ATOM     24  C   UNL     1      56.584  98.346  35.837  0.00  0.00    -0.096 C 
ATOM     25  H   UNL     1      54.806  97.264  36.097  0.00  0.00    -0.082 HD
ATOM     26  C   UNL     1      54.417  99.303  36.626  0.00  0.00    -0.064 C 
ATOM     27  C   UNL     1      52.873  99.177  36.498  0.00  0.00    +0.066 C 
ENDBRANCH  19  20
ENDBRANCH  18  19
ENDBRANCH  14  15
ENDBRANCH  12  13
TORSDOF 6
ENDMDL
MODEL 3
REMARK VINA RESULT:     -10.5      2.603      4.033
REMARK  Name = C:\Users\Docking\Desktop\test protocol\1iep_ligandH.pdb
REMARK  8 active torsions:
REMARK  status: ('A' for Active; 'I' for Inactive)
REMARK    1  A    between atoms: _5  and  _11
REMARK    2  A    between atoms: _19  and  _21
REMARK    3  A    between atoms: _22  and  _66
REMARK    4  A    between atoms: _27  and  _30
REMARK    5  A    between atoms: _32  and  _33
REMARK    6  A    between atoms: _38  and  _43
REMARK    7  A    between atoms: _43  and  _46
REMARK    8  A    between atoms: _53  and  _55
REMARK                            x       y       z     vdW  Elec       q    Type
REMARK                         _______ _______ _______ _____ _____    ______ ____
ROOT
ATOM     10  C   UNL     1      48.037  89.910  35.517  0.00  0.00    +0.038 A 
ATOM     11  C   UNL     1      48.480  91.205  35.144  0.00  0.00    +0.047 A 
ATOM     12  C   UNL     1      47.596  92.134  34.458  0.00  0.00    +0.035 A 
ATOM     32  C   UNL     1      46.266  91.712  34.168  0.00  0.00    +0.024 A 
ATOM     33  C   UNL     1      45.799  90.399  34.539  0.00  0.00    +0.007 A 
ATOM     34  C   UNL     1      46.667  89.478  35.214  0.00  0.00    -0.029 A 
ATOM     35  C   UNL     1      46.116  88.081  35.582  0.00  0.00    +0.045 C 
ENDROOT
BRANCH  10   9
ATOM      4  C   UNL     1      50.022  88.124  39.505  0.00  0.00    +0.077 A 
ATOM      5  C   UNL     1      49.237  88.977  40.349  0.00  0.00    +0.048 A 
ATOM      6  C   UNL     1      48.339  89.867  39.717  0.00  0.00    +0.116 A 
ATOM      7  N   UNL     1      48.242  89.892  38.343  0.00  0.00    -0.223 NA
ATOM      8  C   UNL     1      49.015  89.056  37.558  0.00  0.00    +0.220 A 
ATOM      9  N   UNL     1      48.928  89.059  36.175  0.00  0.00    -0.283 N 
ATOM     36  H   UNL     1      49.521  88.432  35.631  0.00  0.00    +0.155 HD
ATOM     37  N   UNL     1      49.881  88.199  38.138  0.00  0.00    -0.214 NA
BRANCH   4   3
ATOM      1  C   UNL     1      53.319  86.464  40.799  0.00  0.00    +0.020 A 
ATOM      2  C   UNL     1      52.404  87.463  40.298  0.00  0.00    +0.013 A 
ATOM      3  C   UNL     1      51.012  87.128  40.024  0.00  0.00    +0.019 A 
ATOM     38  C   UNL     1      50.575  85.761  40.269  0.00  0.00    +0.120 A 
ATOM     39  N   UNL     1      51.480  84.820  40.750  0.00  0.00    -0.263 NA
ATOM     40  C   UNL     1      52.822  85.131  41.016  0.00  0.00    +0.111 A 
ENDBRANCH   4   3
ENDBRANCH  10   9
BRANCH  12  13
ATOM     13  N   UNL     1      47.993  93.458  34.047  0.00  0.00    -0.281 N 
ATOM     14  C   UNL     1      48.221  94.565  34.848  0.00  0.00    +0.248 C 
ATOM     30  O   UNL     1      47.909  94.641  36.027  0.00  0.00    -0.270 OA
ATOM     31  H   UNL     1      48.121  93.596  33.045  0.00  0.00    +0.155 HD
BRANCH  14  15
ATOM     15  C   UNL     1      48.876  95.767  34.249  0.00  0.00    +0.037 A 
ATOM     16  C   UNL     1      48.544  97.120  34.703  0.00  0.00    +0.013 A 
ATOM     17  C   UNL     1      49.179  98.263  34.096  0.00  0.00    +0.005 A 
ATOM     18  C   UNL     1      50.155  98.057  33.028  0.00  0.00    -0.033 A 
ATOM     28  C   UNL     1      50.470  96.704  32.601  0.00  0.00    +0.005 A 
ATOM     29  C   UNL     1      49.849  95.582  33.193  0.00  0.00    +0.013 A 
BRANCH  18  19
ATOM     19  C   UNL     1      50.865  99.219  32.310  0.00  0.00    +0.119 C 
BRANCH  19  20
ATOM     20  N   UNL     1      52.277  99.506  32.704  0.00  0.00    -0.302 NA
ATOM     21  C   UNL     1      53.283  98.817  31.779  0.00  0.00    +0.066 C 
ATOM     22  C   UNL     1      54.755  99.146  32.192  0.00  0.00    -0.064 C 
ATOM     23  N   UNL     1      54.979  98.726  33.646  0.00  0.00    +0.379 N 
ATOM     24  C   UNL     1      56.378  98.981  34.020  0.00  0.00    -0.096 C 
ATOM     25  H   UNL     1      54.806  97.627  33.711  0.00  0.00    -0.082 HD
ATOM     26  C   UNL     1      53.981  99.406  34.572  0.00  0.00    -0.064 C 
ATOM     27  C   UNL     1      52.522  99.096  34.135  0.00  0.00    +0.066 C 
ENDBRANCH  19  20
ENDBRANCH  18  19
ENDBRANCH  14  15
ENDBRANCH  12  13
TORSDOF 6
ENDMDL
MODEL 4
REMARK VINA RESULT:     -10.5      2.157      3.095
REMARK  Name = C:\Users\Docking\Desktop\test protocol\1iep_ligandH.pdb
REMARK  8 active torsions:
REMARK  status: ('A' for Active; 'I' for Inactive)
REMARK    1  A    between atoms: _5  and  _11
REMARK    2  A    between atoms: _19  and  _21
REMARK    3  A    between atoms: _22  and  _66
REMARK    4  A    between atoms: _27  and  _30
REMARK    5  A    between atoms: _32  and  _33
REMARK    6  A    between atoms: _38  and  _43
REMARK    7  A    between atoms: _43  and  _46
REMARK    8  A    between atoms: _53  and  _55
REMARK                            x       y       z     vdW  Elec       q    Type
REMARK                         _______ _______ _______ _____ _____    ______ ____
ROOT
ATOM     10  C   UNL     1      48.327  89.423  36.682  0.00  0.00    +0.038 A 
ATOM     11  C   UNL     1      49.025  90.617  36.369  0.00  0.00    +0.047 A 
ATOM     12  C   UNL     1      48.312  91.845  36.054  0.00  0.00    +0.035 A 
ATOM     32  C   UNL     1      46.886  91.821  36.071  0.00  0.00    +0.024 A 
ATOM     33  C   UNL     1      46.161  90.616  36.387  0.00  0.00    +0.007 A 
ATOM     34  C   UNL     1      46.860  89.401  36.695  0.00  0.00    -0.029 A 
ATOM     35  C   UNL     1      46.030  88.136  37.019  0.00  0.00    +0.045 C 
ENDROOT
BRANCH  10   9
ATOM      4  C   UNL     1      50.244  86.302  39.785  0.00  0.00    +0.077 A 
ATOM      5  C   UNL     1      49.761  87.040  40.916  0.00  0.00    +0.048 A 
ATOM      6  C   UNL     1      49.030  88.221  40.657  0.00  0.00    +0.116 A 
ATOM      7  N   UNL     1      48.804  88.624  39.359  0.00  0.00    -0.223 NA
ATOM      8  C   UNL     1      49.285  87.890  38.290  0.00  0.00    +0.220 A 
ATOM      9  N   UNL     1      49.063  88.272  36.976  0.00  0.00    -0.283 N 
ATOM     36  H   UNL     1      49.441  87.707  36.216  0.00  0.00    +0.155 HD
ATOM     37  N   UNL     1      49.987  86.759  38.512  0.00  0.00    -0.214 NA
BRANCH   4   3
ATOM      1  C   UNL     1      51.603  82.687  39.165  0.00  0.00    +0.020 A 
ATOM      2  C   UNL     1      50.817  83.890  39.016  0.00  0.00    +0.013 A 
ATOM      3  C   UNL     1      51.029  85.032  39.896  0.00  0.00    +0.019 A 
ATOM     38  C   UNL     1      52.052  84.924  40.925  0.00  0.00    +0.120 A 
ATOM     39  N   UNL     1      52.793  83.752  41.046  0.00  0.00    -0.263 NA
ATOM     40  C   UNL     1      52.597  82.646  40.206  0.00  0.00    +0.111 A 
ENDBRANCH   4   3
ENDBRANCH  10   9
BRANCH  12  13
ATOM     13  N   UNL     1      48.966  93.086  35.721  0.00  0.00    -0.281 N 
ATOM     14  C   UNL     1      48.839  93.830  34.560  0.00  0.00    +0.248 C 
ATOM     30  O   UNL     1      48.303  93.429  33.537  0.00  0.00    -0.270 OA
ATOM     31  H   UNL     1      49.600  93.461  36.427  0.00  0.00    +0.155 HD
BRANCH  14  15
ATOM     15  C   UNL     1      49.401  95.214  34.524  0.00  0.00    +0.037 A 
ATOM     16  C   UNL     1      49.868  95.876  35.745  0.00  0.00    +0.013 A 
ATOM     17  C   UNL     1      50.391  97.219  35.685  0.00  0.00    +0.005 A 
ATOM     18  C   UNL     1      50.450  97.907  34.398  0.00  0.00    -0.033 A 
ATOM     28  C   UNL     1      49.985  97.225  33.202  0.00  0.00    +0.005 A 
ATOM     29  C   UNL     1      49.472  95.910  33.257  0.00  0.00    +0.013 A 
BRANCH  18  19
ATOM     19  C   UNL     1      50.973  99.348  34.244  0.00  0.00    +0.119 C 
BRANCH  19  20
ATOM     20  N   UNL     1      51.077  99.893  32.857  0.00  0.00    -0.302 NA
ATOM     21  C   UNL     1      52.525 100.208  32.471  0.00  0.00    +0.066 C 
ATOM     22  C   UNL     1      52.618 100.756  31.010  0.00  0.00    -0.064 C 
ATOM     23  N   UNL     1      51.739 102.000  30.878  0.00  0.00    +0.379 N 
ATOM     24  C   UNL     1      51.870 102.551  29.521  0.00  0.00    -0.096 C 
ATOM     25  H   UNL     1      52.126 102.764  31.592  0.00  0.00    -0.082 HD
ATOM     26  C   UNL     1      50.298 101.696  31.262  0.00  0.00    -0.064 C 
ATOM     27  C   UNL     1      50.220 101.125  32.706  0.00  0.00    +0.066 C 
ENDBRANCH  19  20
ENDBRANCH  18  19
ENDBRANCH  14  15
ENDBRANCH  12  13
TORSDOF 6
ENDMDL
MODEL 5
REMARK VINA RESULT:      -9.9      3.440      5.262
REMARK  Name = C:\Users\Docking\Desktop\test protocol\1iep_ligandH.pdb
REMARK  8 active torsions:
REMARK  status: ('A' for Active; 'I' for Inactive)
REMARK    1  A    between atoms: _5  and  _11
REMARK    2  A    between atoms: _19  and  _21
REMARK    3  A    between atoms: _22  and  _66
REMARK    4  A    between atoms: _27  and  _30
REMARK    5  A    between atoms: _32  and  _33
REMARK    6  A    between atoms: _38  and  _43
REMARK    7  A    between atoms: _43  and  _46
REMARK    8  A    between atoms: _53  and  _55
REMARK                            x       y       z     vdW  Elec       q    Type
REMARK                         _______ _______ _______ _____ _____    ______ ____
ROOT
ATOM     10  C   UNL     1      47.702  92.244  36.495  0.00  0.00    +0.038 A 
ATOM     11  C   UNL     1      48.650  93.166  35.983  0.00  0.00    +0.047 A 
ATOM     12  C   UNL     1      48.418  93.866  34.730  0.00  0.00    +0.035 A 
ATOM     32  C   UNL     1      47.208  93.604  34.024  0.00  0.00    +0.024 A 
ATOM     33  C   UNL     1      46.234  92.669  34.529  0.00  0.00    +0.007 A 
ATOM     34  C   UNL     1      46.458  91.974  35.764  0.00  0.00    -0.029 A 
ATOM     35  C   UNL     1      45.382  90.977  36.254  0.00  0.00    +0.045 C 
ENDROOT
BRANCH  10   9
ATOM      4  C   UNL     1      49.385  88.529  39.026  0.00  0.00    +0.077 A 
ATOM      5  C   UNL     1      49.723  87.797  37.839  0.00  0.00    +0.048 A 
ATOM      6  C   UNL     1      49.441  88.409  36.597  0.00  0.00    +0.116 A 
ATOM      7  N   UNL     1      48.864  89.660  36.557  0.00  0.00    -0.223 NA
ATOM      8  C   UNL     1      48.549  90.338  37.721  0.00  0.00    +0.220 A 
ATOM      9  N   UNL     1      47.976  91.600  37.704  0.00  0.00    -0.283 N 
ATOM     36  H   UNL     1      47.752  92.063  38.584  0.00  0.00    +0.155 HD
ATOM     37  N   UNL     1      48.807  89.774  38.919  0.00  0.00    -0.214 NA
BRANCH   4   3
ATOM      1  C   UNL     1      48.879  86.871  42.533  0.00  0.00    +0.020 A 
ATOM      2  C   UNL     1      48.596  87.347  41.198  0.00  0.00    +0.013 A 
ATOM      3  C   UNL     1      49.625  88.017  40.412  0.00  0.00    +0.019 A 
ATOM     38  C   UNL     1      50.940  88.190  41.010  0.00  0.00    +0.120 A 
ATOM     39  N   UNL     1      51.183  87.722  42.298  0.00  0.00    -0.263 NA
ATOM     40  C   UNL     1      50.201  87.078  43.064  0.00  0.00    +0.111 A 
ENDBRANCH   4   3
ENDBRANCH  10   9
BRANCH  12  13
ATOM     13  N   UNL     1      49.348  94.807  34.157  0.00  0.00    -0.281 N 
ATOM     14  C   UNL     1      49.281  96.190  34.178  0.00  0.00    +0.248 C 
ATOM     30  O   UNL     1      48.294  96.830  34.510  0.00  0.00    -0.270 OA
ATOM     31  H   UNL     1      50.154  94.404  33.677  0.00  0.00    +0.155 HD
BRANCH  14  15
ATOM     15  C   UNL     1      50.479  96.978  33.755  0.00  0.00    +0.037 A 
ATOM     16  C   UNL     1      50.814  97.151  32.339  0.00  0.00    +0.013 A 
ATOM     17  C   UNL     1      51.984  97.901  31.958  0.00  0.00    +0.005 A 
ATOM     18  C   UNL     1      52.829  98.485  32.997  0.00  0.00    -0.033 A 
ATOM     28  C   UNL     1      52.471  98.302  34.394  0.00  0.00    +0.005 A 
ATOM     29  C   UNL     1      51.325  97.567  34.771  0.00  0.00    +0.013 A 
BRANCH  18  19
ATOM     19  C   UNL     1      54.109  99.283  32.684  0.00  0.00    +0.119 C 
BRANCH  19  20
ATOM     20  N   UNL     1      53.942 100.607  32.015  0.00  0.00    -0.302 NA
ATOM     21  C   UNL     1      52.472 100.928  31.733  0.00  0.00    +0.066 C 
ATOM     22  C   UNL     1      52.314 102.327  31.053  0.00  0.00    -0.064 C 
ATOM     23  N   UNL     1      53.133 102.358  29.761  0.00  0.00    +0.379 N 
ATOM     24  C   UNL     1      52.941 103.651  29.089  0.00  0.00    -0.096 C 
ATOM     25  H   UNL     1      52.732 101.564  29.088  0.00  0.00    -0.082 HD
ATOM     26  C   UNL     1      54.596 102.037  30.032  0.00  0.00    -0.064 C 
ATOM     27  C   UNL     1      54.739 100.658  30.734  0.00  0.00    +0.066 C 
ENDBRANCH  19  20
ENDBRANCH  18  19
ENDBRANCH  14  15
ENDBRANCH  12  13
TORSDOF 6
ENDMDL
