MODEL 1
REMARK VINA RESULT:     -11.2      0.000      0.000
REMARK  Name = C:\Users\Docking\Desktop\test protocol\1iep_ligandH.pdb
REMARK  8 active torsions:
REMARK  status: ('A' for Active; 'I' for Inactive)
REMARK    1  A    between atoms: _5  and  _11
REMARK    2  A    between atoms: _19  and  _21
REMARK    3  A    between atoms: _22  and  _66
REMARK    4  A    between atoms: _27  and  _30
REMARK    5  A    between atoms: _32  and  _33
REMARK    6  A    between atoms: _38  and  _43
REMARK    7  A    between atoms: _43  and  _46
REMARK    8  A    between atoms: _53  and  _55
REMARK                            x       y       z     vdW  Elec       q    Type
REMARK                         _______ _______ _______ _____ _____    ______ ____
ROOT
ATOM     10  C   UNL     1      12.220  72.039  10.389  0.00  0.00    +0.038 A 
ATOM     11  C   UNL     1      10.978  72.622  10.749  0.00  0.00    +0.047 A 
ATOM     12  C   UNL     1      10.920  73.836  11.548  0.00  0.00    +0.035 A 
ATOM     32  C   UNL     1      12.147  74.432  11.961  0.00  0.00    +0.024 A 
ATOM     33  C   UNL     1      13.418  73.853  11.605  0.00  0.00    +0.007 A 
ATOM     34  C   UNL     1      13.481  72.654  10.819  0.00  0.00    -0.029 A 
ATOM     35  C   UNL     1      14.872  72.073  10.472  0.00  0.00    +0.045 C 
ENDROOT
BRANCH  10   9
ATOM      4  C   UNL     1      12.930  69.685   6.267  0.00  0.00    +0.077 A 
ATOM      5  C   UNL     1      13.315  70.884   5.580  0.00  0.00    +0.048 A 
ATOM      6  C   UNL     1      13.310  72.087   6.321  0.00  0.00    +0.116 A 
ATOM      7  N   UNL     1      12.946  72.080   7.650  0.00  0.00    -0.223 NA
ATOM      8  C   UNL     1      12.579  70.906   8.282  0.00  0.00    +0.220 A 
ATOM      9  N   UNL     1      12.216  70.873   9.620  0.00  0.00    -0.283 N 
ATOM     36  H   UNL     1      11.945  69.988  10.048  0.00  0.00    +0.155 HD
ATOM     37  N   UNL     1      12.574  69.744   7.596  0.00  0.00    -0.214 NA
BRANCH   4   3
ATOM      1  C   UNL     1      12.742  65.819   5.707  0.00  0.00    +0.020 A 
ATOM      2  C   UNL     1      12.778  67.097   6.380  0.00  0.00    +0.013 A 
ATOM      3  C   UNL     1      12.889  68.336   5.620  0.00  0.00    +0.019 A 
ATOM     38  C   UNL     1      12.961  68.246   4.170  0.00  0.00    +0.120 A 
ATOM     39  N   UNL     1      12.925  67.002   3.549  0.00  0.00    -0.263 NA
ATOM     40  C   UNL     1      12.820  65.802   4.270  0.00  0.00    +0.111 A 
ENDBRANCH   4   3
ENDBRANCH  10   9
BRANCH  12  13
ATOM     13  N   UNL     1       9.689  74.469  11.951  0.00  0.00    -0.281 N 
ATOM     14  C   UNL     1       8.905  74.180  13.056  0.00  0.00    +0.248 C 
ATOM     30  O   UNL     1       9.033  73.185  13.753  0.00  0.00    -0.270 OA
ATOM     31  H   UNL     1       9.355  75.222  11.349  0.00  0.00    +0.155 HD
BRANCH  14  15
ATOM     15  C   UNL     1       7.811  75.127  13.433  0.00  0.00    +0.037 A 
ATOM     16  C   UNL     1       7.783  76.499  12.920  0.00  0.00    +0.013 A 
ATOM     17  C   UNL     1       6.726  77.396  13.312  0.00  0.00    +0.005 A 
ATOM     18  C   UNL     1       5.686  76.923  14.223  0.00  0.00    -0.033 A 
ATOM     28  C   UNL     1       5.735  75.556  14.713  0.00  0.00    +0.005 A 
ATOM     29  C   UNL     1       6.771  74.673  14.331  0.00  0.00    +0.013 A 
BRANCH  18  19
ATOM     19  C   UNL     1       4.532  77.818  14.712  0.00  0.00    +0.119 C 
BRANCH  19  20
ATOM     20  N   UNL     1       3.372  78.003  13.789  0.00  0.00    -0.302 NA
ATOM     21  C   UNL     1       3.499  79.281  12.955  0.00  0.00    +0.066 C 
ATOM     22  C   UNL     1       2.289  79.447  11.980  0.00  0.00    -0.064 C 
ATOM     23  N   UNL     1       0.987  79.452  12.783  0.00  0.00    +0.379 N 
ATOM     24  C   UNL     1      -0.149  79.666  11.874  0.00  0.00    -0.096 C 
ATOM     25  H   UNL     1       1.027  80.317  13.485  0.00  0.00    -0.082 HD
ATOM     26  C   UNL     1       0.854  78.186  13.617  0.00  0.00    -0.064 C 
ATOM     27  C   UNL     1       2.076  78.015  14.562  0.00  0.00    +0.066 C 
ENDBRANCH  19  20
ENDBRANCH  18  19
ENDBRANCH  14  15
ENDBRANCH  12  13
TORSDOF 6
ENDMDL
MODEL 2
REMARK VINA RESULT:     -11.1      2.194     13.029
REMARK  Name = C:\Users\Docking\Desktop\test protocol\1iep_ligandH.pdb
REMARK  8 active torsions:
REMARK  status: ('A' for Active; 'I' for Inactive)
REMARK    1  A    between atoms: _5  and  _11
REMARK    2  A    between atoms: _19  and  _21
REMARK    3  A    between atoms: _22  and  _66
REMARK    4  A    between atoms: _27  and  _30
REMARK    5  A    between atoms: _32  and  _33
REMARK    6  A    between atoms: _38  and  _43
REMARK    7  A    between atoms: _43  and  _46
REMARK    8  A    between atoms: _53  and  _55
REMARK                            x       y       z     vdW  Elec       q    Type
REMARK                         _______ _______ _______ _____ _____    ______ ____
ROOT
ATOM     10  C   UNL     1      10.930  74.147  12.164  0.00  0.00    +0.038 A 
ATOM     11  C   UNL     1      10.918  73.320  11.012  0.00  0.00    +0.047 A 
ATOM     12  C   UNL     1      11.854  72.215  10.870  0.00  0.00    +0.035 A 
ATOM     32  C   UNL     1      12.786  71.979  11.922  0.00  0.00    +0.024 A 
ATOM     33  C   UNL     1      12.813  72.811  13.099  0.00  0.00    +0.007 A 
ATOM     34  C   UNL     1      11.894  73.903  13.244  0.00  0.00    -0.029 A 
ATOM     35  C   UNL     1      11.972  74.766  14.525  0.00  0.00    +0.045 C 
ENDROOT
BRANCH  10   9
ATOM      4  C   UNL     1       6.862  76.082  13.821  0.00  0.00    +0.077 A 
ATOM      5  C   UNL     1       6.529  74.897  14.559  0.00  0.00    +0.048 A 
ATOM      6  C   UNL     1       7.428  73.810  14.480  0.00  0.00    +0.116 A 
ATOM      7  N   UNL     1       8.571  73.911  13.717  0.00  0.00    -0.223 NA
ATOM      8  C   UNL     1       8.861  75.067  13.016  0.00  0.00    +0.220 A 
ATOM      9  N   UNL     1      10.009  75.193  12.249  0.00  0.00    -0.283 N 
ATOM     36  H   UNL     1      10.183  76.060  11.741  0.00  0.00    +0.155 HD
ATOM     37  N   UNL     1       8.018  76.119  13.074  0.00  0.00    -0.214 NA
BRANCH   4   3
ATOM      1  C   UNL     1       3.868  78.560  14.268  0.00  0.00    +0.020 A 
ATOM      2  C   UNL     1       4.644  77.341  14.304  0.00  0.00    +0.013 A 
ATOM      3  C   UNL     1       6.014  77.316  13.807  0.00  0.00    +0.019 A 
ATOM     38  C   UNL     1       6.574  78.549  13.276  0.00  0.00    +0.120 A 
ATOM     39  N   UNL     1       5.802  79.707  13.252  0.00  0.00    -0.263 NA
ATOM     40  C   UNL     1       4.482  79.744  13.727  0.00  0.00    +0.111 A 
ENDBRANCH   4   3
ENDBRANCH  10   9
BRANCH  12  13
ATOM     13  N   UNL     1      11.894  71.346   9.719  0.00  0.00    -0.281 N 
ATOM     14  C   UNL     1      12.944  71.151   8.837  0.00  0.00    +0.248 C 
ATOM     30  O   UNL     1      13.939  71.857   8.779  0.00  0.00    -0.270 OA
ATOM     31  H   UNL     1      11.046  70.811   9.533  0.00  0.00    +0.155 HD
BRANCH  14  15
ATOM     15  C   UNL     1      12.871  70.014   7.869  0.00  0.00    +0.037 A 
ATOM     16  C   UNL     1      12.736  68.630   8.330  0.00  0.00    +0.013 A 
ATOM     17  C   UNL     1      12.685  67.551   7.376  0.00  0.00    +0.005 A 
ATOM     18  C   UNL     1      12.767  67.853   5.949  0.00  0.00    -0.033 A 
ATOM     28  C   UNL     1      12.895  69.236   5.518  0.00  0.00    +0.005 A 
ATOM     29  C   UNL     1      12.947  70.296   6.451  0.00  0.00    +0.013 A 
BRANCH  18  19
ATOM     19  C   UNL     1      12.742  66.763   4.860  0.00  0.00    +0.119 C 
BRANCH  19  20
ATOM     20  N   UNL     1      12.718  67.218   3.438  0.00  0.00    -0.302 NA
ATOM     21  C   UNL     1      11.297  67.239   2.866  0.00  0.00    +0.066 C 
ATOM     22  C   UNL     1      11.288  67.738   1.384  0.00  0.00    -0.064 C 
ATOM     23  N   UNL     1      12.198  66.843   0.542  0.00  0.00    +0.379 N 
ATOM     24  C   UNL     1      12.146  67.274  -0.863  0.00  0.00    -0.096 C 
ATOM     25  H   UNL     1      11.793  65.806   0.592  0.00  0.00    -0.082 HD
ATOM     26  C   UNL     1      13.612  66.814   1.105  0.00  0.00    -0.064 C 
ATOM     27  C   UNL     1      13.607  66.345   2.587  0.00  0.00    +0.066 C 
ENDBRANCH  19  20
ENDBRANCH  18  19
ENDBRANCH  14  15
ENDBRANCH  12  13
TORSDOF 6
ENDMDL
MODEL 3
REMARK VINA RESULT:     -10.9      2.869     12.045
REMARK  Name = C:\Users\Docking\Desktop\test protocol\1iep_ligandH.pdb
REMARK  8 active torsions:
REMARK  status: ('A' for Active; 'I' for Inactive)
REMARK    1  A    between atoms: _5  and  _11
REMARK    2  A    between atoms: _19  and  _21
REMARK    3  A    between atoms: _22  and  _66
REMARK    4  A    between atoms: _27  and  _30
REMARK    5  A    between atoms: _32  and  _33
REMARK    6  A    between atoms: _38  and  _43
REMARK    7  A    between atoms: _43  and  _46
REMARK    8  A    between atoms: _53  and  _55
REMARK                            x       y       z     vdW  Elec       q    Type
REMARK                         _______ _______ _______ _____ _____    ______ ____
ROOT
ATOM     10  C   UNL     1      12.822  74.438  10.885  0.00  0.00    +0.038 A 
ATOM     11  C   UNL     1      12.706  73.336  10.000  0.00  0.00    +0.047 A 
ATOM     12  C   UNL     1      13.885  72.686   9.450  0.00  0.00    +0.035 A 
ATOM     32  C   UNL     1      15.168  73.183   9.824  0.00  0.00    +0.024 A 
ATOM     33  C   UNL     1      15.304  74.303  10.721  0.00  0.00    +0.007 A 
ATOM     34  C   UNL     1      14.145  74.950  11.265  0.00  0.00    -0.029 A 
ATOM     35  C   UNL     1      14.350  76.151  12.217  0.00  0.00    +0.045 C 
ENDROOT
BRANCH  10   9
ATOM      4  C   UNL     1       9.352  74.819  14.178  0.00  0.00    +0.077 A 
ATOM      5  C   UNL     1       9.890  73.741  14.957  0.00  0.00    +0.048 A 
ATOM      6  C   UNL     1      11.058  73.111  14.471  0.00  0.00    +0.116 A 
ATOM      7  N   UNL     1      11.635  73.535  13.294  0.00  0.00    -0.223 NA
ATOM      8  C   UNL     1      11.089  74.576  12.566  0.00  0.00    +0.220 A 
ATOM      9  N   UNL     1      11.657  75.024  11.384  0.00  0.00    -0.283 N 
ATOM     36  H   UNL     1      11.219  75.791  10.873  0.00  0.00    +0.155 HD
ATOM     37  N   UNL     1       9.973  75.194  13.008  0.00  0.00    -0.214 NA
BRANCH   4   3
ATOM      1  C   UNL     1       5.671  76.134  14.346  0.00  0.00    +0.020 A 
ATOM      2  C   UNL     1       6.825  75.366  13.939  0.00  0.00    +0.013 A 
ATOM      3  C   UNL     1       8.125  75.587  14.561  0.00  0.00    +0.019 A 
ATOM     38  C   UNL     1       8.223  76.600  15.601  0.00  0.00    +0.120 A 
ATOM     39  N   UNL     1       7.095  77.325  15.971  0.00  0.00    -0.263 NA
ATOM     40  C   UNL     1       5.840  77.123  15.378  0.00  0.00    +0.111 A 
ENDBRANCH   4   3
ENDBRANCH  10   9
BRANCH  12  13
ATOM     13  N   UNL     1      13.830  71.568   8.541  0.00  0.00    -0.281 N 
ATOM     14  C   UNL     1      13.002  70.459   8.604  0.00  0.00    +0.248 C 
ATOM     30  O   UNL     1      12.327  70.155   9.577  0.00  0.00    -0.270 OA
ATOM     31  H   UNL     1      14.479  71.597   7.755  0.00  0.00    +0.155 HD
BRANCH  14  15
ATOM     15  C   UNL     1      12.923  69.548   7.422  0.00  0.00    +0.037 A 
ATOM     16  C   UNL     1      12.774  68.100   7.587  0.00  0.00    +0.013 A 
ATOM     17  C   UNL     1      12.717  67.241   6.430  0.00  0.00    +0.005 A 
ATOM     18  C   UNL     1      12.809  67.831   5.097  0.00  0.00    -0.033 A 
ATOM     28  C   UNL     1      12.952  69.271   4.962  0.00  0.00    +0.005 A 
ATOM     29  C   UNL     1      13.008  70.115   6.093  0.00  0.00    +0.013 A 
BRANCH  18  19
ATOM     19  C   UNL     1      12.779  66.990   3.807  0.00  0.00    +0.119 C 
BRANCH  19  20
ATOM     20  N   UNL     1      11.477  66.896   3.082  0.00  0.00    -0.302 NA
ATOM     21  C   UNL     1      11.316  68.010   2.044  0.00  0.00    +0.066 C 
ATOM     22  C   UNL     1       9.958  67.884   1.279  0.00  0.00    -0.064 C 
ATOM     23  N   UNL     1       8.806  67.909   2.284  0.00  0.00    +0.379 N 
ATOM     24  C   UNL     1       7.525  67.849   1.564  0.00  0.00    -0.096 C 
ATOM     25  H   UNL     1       8.846  68.885   2.821  0.00  0.00    -0.082 HD
ATOM     26  C   UNL     1       8.959  66.806   3.321  0.00  0.00    -0.064 C 
ATOM     27  C   UNL     1      10.325  66.923   4.055  0.00  0.00    +0.066 C 
ENDBRANCH  19  20
ENDBRANCH  18  19
ENDBRANCH  14  15
ENDBRANCH  12  13
TORSDOF 6
ENDMDL
MODEL 4
REMARK VINA RESULT:     -10.8      1.702      2.575
REMARK  Name = C:\Users\Docking\Desktop\test protocol\1iep_ligandH.pdb
REMARK  8 active torsions:
REMARK  status: ('A' for Active; 'I' for Inactive)
REMARK    1  A    between atoms: _5  and  _11
REMARK    2  A    between atoms: _19  and  _21
REMARK    3  A    between atoms: _22  and  _66
REMARK    4  A    between atoms: _27  and  _30
REMARK    5  A    between atoms: _32  and  _33
REMARK    6  A    between atoms: _38  and  _43
REMARK    7  A    between atoms: _43  and  _46
REMARK    8  A    between atoms: _53  and  _55
REMARK                            x       y       z     vdW  Elec       q    Type
REMARK                         _______ _______ _______ _____ _____    ______ ____
ROOT
ATOM     10  C   UNL     1      12.265  71.894  10.261  0.00  0.00    +0.038 A 
ATOM     11  C   UNL     1      11.018  72.460  10.632  0.00  0.00    +0.047 A 
ATOM     12  C   UNL     1      10.951  73.657  11.456  0.00  0.00    +0.035 A 
ATOM     32  C   UNL     1      12.173  74.253  11.882  0.00  0.00    +0.024 A 
ATOM     33  C   UNL     1      13.449  73.691  11.515  0.00  0.00    +0.007 A 
ATOM     34  C   UNL     1      13.522  72.509  10.705  0.00  0.00    -0.029 A 
ATOM     35  C   UNL     1      14.917  71.946  10.347  0.00  0.00    +0.045 C 
ENDROOT
BRANCH  10   9
ATOM      4  C   UNL     1      12.919  69.643   6.073  0.00  0.00    +0.077 A 
ATOM      5  C   UNL     1      13.250  70.866   5.400  0.00  0.00    +0.048 A 
ATOM      6  C   UNL     1      13.234  72.053   6.166  0.00  0.00    +0.116 A 
ATOM      7  N   UNL     1      12.909  72.009   7.504  0.00  0.00    -0.223 NA
ATOM      8  C   UNL     1      12.593  70.813   8.122  0.00  0.00    +0.220 A 
ATOM      9  N   UNL     1      12.271  70.744   9.469  0.00  0.00    -0.283 N 
ATOM     36  H   UNL     1      12.036  69.843   9.885  0.00  0.00    +0.155 HD
ATOM     37  N   UNL     1      12.600  69.666   7.412  0.00  0.00    -0.214 NA
BRANCH   4   3
ATOM      1  C   UNL     1      12.728  65.789   5.432  0.00  0.00    +0.020 A 
ATOM      2  C   UNL     1      12.745  67.054   6.130  0.00  0.00    +0.013 A 
ATOM      3  C   UNL     1      12.896  68.306   5.400  0.00  0.00    +0.019 A 
ATOM     38  C   UNL     1      13.027  68.243   3.952  0.00  0.00    +0.120 A 
ATOM     39  N   UNL     1      13.009  67.010   3.307  0.00  0.00    -0.263 NA
ATOM     40  C   UNL     1      12.866  65.799   4.000  0.00  0.00    +0.111 A 
ENDBRANCH   4   3
ENDBRANCH  10   9
BRANCH  12  13
ATOM     13  N   UNL     1       9.714  74.272  11.871  0.00  0.00    -0.281 N 
ATOM     14  C   UNL     1       9.012  74.064  13.047  0.00  0.00    +0.248 C 
ATOM     30  O   UNL     1       9.232  73.152  13.831  0.00  0.00    -0.270 OA
ATOM     31  H   UNL     1       9.307  74.942  11.219  0.00  0.00    +0.155 HD
BRANCH  14  15
ATOM     15  C   UNL     1       7.896  74.994  13.395  0.00  0.00    +0.037 A 
ATOM     16  C   UNL     1       7.893  76.384  12.934  0.00  0.00    +0.013 A 
ATOM     17  C   UNL     1       6.811  77.265  13.299  0.00  0.00    +0.005 A 
ATOM     18  C   UNL     1       5.722  76.756  14.129  0.00  0.00    -0.033 A 
ATOM     28  C   UNL     1       5.748  75.371  14.569  0.00  0.00    +0.005 A 
ATOM     29  C   UNL     1       6.806  74.505  14.214  0.00  0.00    +0.013 A 
BRANCH  18  19
ATOM     19  C   UNL     1       4.539  77.631  14.584  0.00  0.00    +0.119 C 
BRANCH  19  20
ATOM     20  N   UNL     1       4.757  78.515  15.767  0.00  0.00    -0.302 NA
ATOM     21  C   UNL     1       5.619  77.840  16.838  0.00  0.00    +0.066 C 
ATOM     22  C   UNL     1       5.856  78.788  18.059  0.00  0.00    -0.064 C 
ATOM     23  N   UNL     1       4.507  79.214  18.639  0.00  0.00    +0.379 N 
ATOM     24  C   UNL     1       4.727  80.058  19.823  0.00  0.00    -0.096 C 
ATOM     25  H   UNL     1       3.977  78.292  18.975  0.00  0.00    -0.082 HD
ATOM     26  C   UNL     1       3.642  79.884  17.581  0.00  0.00    -0.064 C 
ATOM     27  C   UNL     1       3.437  78.945  16.359  0.00  0.00    +0.066 C 
ENDBRANCH  19  20
ENDBRANCH  18  19
ENDBRANCH  14  15
ENDBRANCH  12  13
TORSDOF 6
ENDMDL
MODEL 5
REMARK VINA RESULT:     -10.6      2.808     13.573
REMARK  Name = C:\Users\Docking\Desktop\test protocol\1iep_ligandH.pdb
REMARK  8 active torsions:
REMARK  status: ('A' for Active; 'I' for Inactive)
REMARK    1  A    between atoms: _5  and  _11
REMARK    2  A    between atoms: _19  and  _21
REMARK    3  A    between atoms: _22  and  _66
REMARK    4  A    between atoms: _27  and  _30
REMARK    5  A    between atoms: _32  and  _33
REMARK    6  A    between atoms: _38  and  _43
REMARK    7  A    between atoms: _43  and  _46
REMARK    8  A    between atoms: _53  and  _55
REMARK                            x       y       z     vdW  Elec       q    Type
REMARK                         _______ _______ _______ _____ _____    ______ ____
ROOT
ATOM     10  C   UNL     1      11.845  72.363  11.299  0.00  0.00    +0.038 A 
ATOM     11  C   UNL     1      11.617  71.582  10.138  0.00  0.00    +0.047 A 
ATOM     12  C   UNL     1      12.723  70.988   9.402  0.00  0.00    +0.035 A 
ATOM     32  C   UNL     1      14.048  71.207   9.879  0.00  0.00    +0.024 A 
ATOM     33  C   UNL     1      14.297  72.000  11.058  0.00  0.00    +0.007 A 
ATOM     34  C   UNL     1      13.211  72.591  11.786  0.00  0.00    -0.029 A 
ATOM     35  C   UNL     1      13.537  73.436  13.039  0.00  0.00    +0.045 C 
ENDROOT
BRANCH  10   9
ATOM      4  C   UNL     1       8.788  75.957  12.183  0.00  0.00    +0.077 A 
ATOM      5  C   UNL     1       9.452  76.828  11.257  0.00  0.00    +0.048 A 
ATOM      6  C   UNL     1      10.581  76.315  10.579  0.00  0.00    +0.116 A 
ATOM      7  N   UNL     1      11.004  75.026  10.816  0.00  0.00    -0.223 NA
ATOM      8  C   UNL     1      10.342  74.212  11.718  0.00  0.00    +0.220 A 
ATOM      9  N   UNL     1      10.746  72.910  11.967  0.00  0.00    -0.283 N 
ATOM     36  H   UNL     1      10.236  72.344  12.644  0.00  0.00    +0.155 HD
ATOM     37  N   UNL     1       9.263  74.679  12.379  0.00  0.00    -0.214 NA
BRANCH   4   3
ATOM      1  C   UNL     1       5.711  75.863  14.596  0.00  0.00    +0.020 A 
ATOM      2  C   UNL     1       6.873  75.430  13.854  0.00  0.00    +0.013 A 
ATOM      3  C   UNL     1       7.580  76.352  12.974  0.00  0.00    +0.019 A 
ATOM     38  C   UNL     1       7.083  77.716  12.868  0.00  0.00    +0.120 A 
ATOM     39  N   UNL     1       5.961  78.103  13.594  0.00  0.00    -0.263 NA
ATOM     40  C   UNL     1       5.271  77.225  14.442  0.00  0.00    +0.111 A 
ENDBRANCH   4   3
ENDBRANCH  10   9
BRANCH  12  13
ATOM     13  N   UNL     1      12.554  70.192   8.212  0.00  0.00    -0.281 N 
ATOM     14  C   UNL     1      13.009  70.466   6.932  0.00  0.00    +0.248 C 
ATOM     30  O   UNL     1      13.449  71.547   6.572  0.00  0.00    -0.270 OA
ATOM     31  H   UNL     1      12.036  69.320   8.326  0.00  0.00    +0.155 HD
BRANCH  14  15
ATOM     15  C   UNL     1      12.953  69.387   5.900  0.00  0.00    +0.037 A 
ATOM     16  C   UNL     1      12.674  67.996   6.268  0.00  0.00    +0.013 A 
ATOM     17  C   UNL     1      12.643  66.972   5.254  0.00  0.00    +0.005 A 
ATOM     18  C   UNL     1      12.891  67.335   3.861  0.00  0.00    -0.033 A 
ATOM     28  C   UNL     1      13.160  68.723   3.523  0.00  0.00    +0.005 A 
ATOM     29  C   UNL     1      13.192  69.730   4.514  0.00  0.00    +0.013 A 
BRANCH  18  19
ATOM     19  C   UNL     1      12.898  66.305   2.716  0.00  0.00    +0.119 C 
BRANCH  19  20
ATOM     20  N   UNL     1      13.748  66.610   1.527  0.00  0.00    -0.302 NA
ATOM     21  C   UNL     1      12.913  66.798   0.257  0.00  0.00    +0.066 C 
ATOM     22  C   UNL     1      13.817  67.139  -0.973  0.00  0.00    -0.064 C 
ATOM     23  N   UNL     1      14.852  66.029  -1.165  0.00  0.00    +0.379 N 
ATOM     24  C   UNL     1      15.665  66.318  -2.355  0.00  0.00    -0.096 C 
ATOM     25  H   UNL     1      14.298  65.081  -1.355  0.00  0.00    -0.082 HD
ATOM     26  C   UNL     1      15.684  65.834   0.094  0.00  0.00    -0.064 C 
ATOM     27  C   UNL     1      14.775  65.525   1.316  0.00  0.00    +0.066 C 
ENDBRANCH  19  20
ENDBRANCH  18  19
ENDBRANCH  14  15
ENDBRANCH  12  13
TORSDOF 6
ENDMDL
