MODEL 1
REMARK VINA RESULT:      -7.8      0.000      0.000
REMARK  Name = C:\Users\Docking\Desktop\test protocol\1iep_ligandH.pdb
REMARK  8 active torsions:
REMARK  status: ('A' for Active; 'I' for Inactive)
REMARK    1  A    between atoms: _5  and  _11
REMARK    2  A    between atoms: _19  and  _21
REMARK    3  A    between atoms: _22  and  _66
REMARK    4  A    between atoms: _27  and  _30
REMARK    5  A    between atoms: _32  and  _33
REMARK    6  A    between atoms: _38  and  _43
REMARK    7  A    between atoms: _43  and  _46
REMARK    8  A    between atoms: _53  and  _55
REMARK                            x       y       z     vdW  Elec       q    Type
REMARK                         _______ _______ _______ _____ _____    ______ ____
ROOT
ATOM     10  C   UNL     1       7.903  19.958   9.743  0.00  0.00    +0.038 A 
ATOM     11  C   UNL     1       8.670  21.031  10.265  0.00  0.00    +0.047 A 
ATOM     12  C   UNL     1       9.012  22.181   9.442  0.00  0.00    +0.035 A 
ATOM     32  C   UNL     1       8.553  22.207   8.093  0.00  0.00    +0.024 A 
ATOM     33  C   UNL     1       7.772  21.125   7.547  0.00  0.00    +0.007 A 
ATOM     34  C   UNL     1       7.435  19.987   8.353  0.00  0.00    -0.029 A 
ATOM     35  C   UNL     1       6.601  18.852   7.712  0.00  0.00    +0.045 C 
ENDROOT
BRANCH  10   9
ATOM      4  C   UNL     1       5.152  17.769  13.011  0.00  0.00    +0.077 A 
ATOM      5  C   UNL     1       4.248  18.881  13.082  0.00  0.00    +0.048 A 
ATOM      6  C   UNL     1       4.531  20.000  12.266  0.00  0.00    +0.116 A 
ATOM      7  N   UNL     1       5.638  19.996  11.445  0.00  0.00    -0.223 NA
ATOM      8  C   UNL     1       6.490  18.907  11.402  0.00  0.00    +0.220 A 
ATOM      9  N   UNL     1       7.604  18.879  10.578  0.00  0.00    -0.283 N 
ATOM     36  H   UNL     1       8.212  18.060  10.580  0.00  0.00    +0.155 HD
ATOM     37  N   UNL     1       6.242  17.827  12.172  0.00  0.00    -0.214 NA
BRANCH   4   3
ATOM      1  C   UNL     1       5.890  14.608  15.194  0.00  0.00    +0.020 A 
ATOM      2  C   UNL     1       6.104  15.818  14.433  0.00  0.00    +0.013 A 
ATOM      3  C   UNL     1       4.986  16.513  13.808  0.00  0.00    +0.019 A 
ATOM     38  C   UNL     1       3.653  15.954  13.974  0.00  0.00    +0.120 A 
ATOM     39  N   UNL     1       3.477  14.786  14.711  0.00  0.00    -0.263 NA
ATOM     40  C   UNL     1       4.545  14.108  15.315  0.00  0.00    +0.111 A 
ENDBRANCH   4   3
ENDBRANCH  10   9
BRANCH  12  13
ATOM     13  N   UNL     1       9.795  23.296   9.914  0.00  0.00    -0.281 N 
ATOM     14  C   UNL     1       9.352  24.425  10.584  0.00  0.00    +0.248 C 
ATOM     30  O   UNL     1       8.179  24.749  10.691  0.00  0.00    -0.270 OA
ATOM     31  H   UNL     1      10.798  23.247   9.733  0.00  0.00    +0.155 HD
BRANCH  14  15
ATOM     15  C   UNL     1      10.359  25.332  11.214  0.00  0.00    +0.037 A 
ATOM     16  C   UNL     1      10.082  26.758  11.407  0.00  0.00    +0.013 A 
ATOM     17  C   UNL     1      11.077  27.614  12.002  0.00  0.00    +0.005 A 
ATOM     18  C   UNL     1      12.360  27.046  12.409  0.00  0.00    -0.033 A 
ATOM     28  C   UNL     1      12.607  25.628  12.210  0.00  0.00    +0.005 A 
ATOM     29  C   UNL     1      11.634  24.785  11.626  0.00  0.00    +0.013 A 
BRANCH  18  19
ATOM     19  C   UNL     1      13.488  27.889  13.032  0.00  0.00    +0.119 C 
BRANCH  19  20
ATOM     20  N   UNL     1      13.089  28.973  13.978  0.00  0.00    -0.302 NA
ATOM     21  C   UNL     1      14.123  30.102  14.028  0.00  0.00    +0.066 C 
ATOM     22  C   UNL     1      13.678  31.238  15.006  0.00  0.00    -0.064 C 
ATOM     23  N   UNL     1      13.452  30.648  16.399  0.00  0.00    +0.379 N 
ATOM     24  C   UNL     1      13.090  31.724  17.334  0.00  0.00    -0.096 C 
ATOM     25  H   UNL     1      14.419  30.212  16.743  0.00  0.00    -0.082 HD
ATOM     26  C   UNL     1      12.427  29.524  16.358  0.00  0.00    -0.064 C 
ATOM     27  C   UNL     1      12.864  28.414  15.361  0.00  0.00    +0.066 C 
ENDBRANCH  19  20
ENDBRANCH  18  19
ENDBRANCH  14  15
ENDBRANCH  12  13
TORSDOF 6
ENDMDL
MODEL 2
REMARK VINA RESULT:      -7.8     12.552     14.434
REMARK  Name = C:\Users\Docking\Desktop\test protocol\1iep_ligandH.pdb
REMARK  8 active torsions:
REMARK  status: ('A' for Active; 'I' for Inactive)
REMARK    1  A    between atoms: _5  and  _11
REMARK    2  A    between atoms: _19  and  _21
REMARK    3  A    between atoms: _22  and  _66
REMARK    4  A    between atoms: _27  and  _30
REMARK    5  A    between atoms: _32  and  _33
REMARK    6  A    between atoms: _38  and  _43
REMARK    7  A    between atoms: _43  and  _46
REMARK    8  A    between atoms: _53  and  _55
REMARK                            x       y       z     vdW  Elec       q    Type
REMARK                         _______ _______ _______ _____ _____    ______ ____
ROOT
ATOM     10  C   UNL     1       7.400  10.465  11.270  0.00  0.00    +0.038 A 
ATOM     11  C   UNL     1       8.612  10.753  11.948  0.00  0.00    +0.047 A 
ATOM     12  C   UNL     1       8.653  10.876  13.396  0.00  0.00    +0.035 A 
ATOM     32  C   UNL     1       7.441  10.698  14.124  0.00  0.00    +0.024 A 
ATOM     33  C   UNL     1       6.200  10.406  13.452  0.00  0.00    +0.007 A 
ATOM     34  C   UNL     1       6.152  10.286  12.023  0.00  0.00    -0.029 A 
ATOM     35  C   UNL     1       4.792   9.978  11.354  0.00  0.00    +0.045 C 
ENDROOT
BRANCH  10   9
ATOM      4  C   UNL     1       8.068   7.968   7.226  0.00  0.00    +0.077 A 
ATOM      5  C   UNL     1       8.439   6.785   7.948  0.00  0.00    +0.048 A 
ATOM      6  C   UNL     1       8.452   6.863   9.358  0.00  0.00    +0.116 A 
ATOM      7  N   UNL     1       8.117   8.041   9.990  0.00  0.00    -0.223 NA
ATOM      8  C   UNL     1       7.766   9.165   9.263  0.00  0.00    +0.220 A 
ATOM      9  N   UNL     1       7.417  10.358   9.878  0.00  0.00    -0.283 N 
ATOM     36  H   UNL     1       7.172  11.166   9.306  0.00  0.00    +0.155 HD
ATOM     37  N   UNL     1       7.747   9.116   7.915  0.00  0.00    -0.214 NA
BRANCH   4   3
ATOM      1  C   UNL     1       7.290   9.142   3.577  0.00  0.00    +0.020 A 
ATOM      2  C   UNL     1       7.322   9.117   5.021  0.00  0.00    +0.013 A 
ATOM      3  C   UNL     1       8.004   8.043   5.732  0.00  0.00    +0.019 A 
ATOM     38  C   UNL     1       8.648   7.002   4.946  0.00  0.00    +0.120 A 
ATOM     39  N   UNL     1       8.599   7.051   3.556  0.00  0.00    -0.263 NA
ATOM     40  C   UNL     1       7.945   8.079   2.861  0.00  0.00    +0.111 A 
ENDBRANCH   4   3
ENDBRANCH  10   9
BRANCH  12  13
ATOM     13  N   UNL     1       9.853  11.175  14.138  0.00  0.00    -0.281 N 
ATOM     14  C   UNL     1      10.970  10.374  14.309  0.00  0.00    +0.248 C 
ATOM     30  O   UNL     1      11.020   9.186  14.024  0.00  0.00    -0.270 OA
ATOM     31  H   UNL     1       9.882  12.088  14.593  0.00  0.00    +0.155 HD
BRANCH  14  15
ATOM     15  C   UNL     1      12.208  10.975  14.894  0.00  0.00    +0.037 A 
ATOM     16  C   UNL     1      13.538  10.487  14.523  0.00  0.00    +0.013 A 
ATOM     17  C   UNL     1      14.715  11.073  15.115  0.00  0.00    +0.005 A 
ATOM     18  C   UNL     1      14.565  12.157  16.083  0.00  0.00    -0.033 A 
ATOM     28  C   UNL     1      13.233  12.626  16.428  0.00  0.00    +0.005 A 
ATOM     29  C   UNL     1      12.078  12.053  15.851  0.00  0.00    +0.013 A 
BRANCH  18  19
ATOM     19  C   UNL     1      15.764  12.828  16.780  0.00  0.00    +0.119 C 
BRANCH  19  20
ATOM     20  N   UNL     1      15.929  12.581  18.243  0.00  0.00    -0.302 NA
ATOM     21  C   UNL     1      17.192  13.245  18.799  0.00  0.00    +0.066 C 
ATOM     22  C   UNL     1      17.338  12.996  20.335  0.00  0.00    -0.064 C 
ATOM     23  N   UNL     1      17.354  11.490  20.606  0.00  0.00    +0.379 N 
ATOM     24  C   UNL     1      17.549  11.252  22.043  0.00  0.00    -0.096 C 
ATOM     25  H   UNL     1      18.232  11.060  20.069  0.00  0.00    -0.082 HD
ATOM     26  C   UNL     1      16.103  10.821  20.054  0.00  0.00    -0.064 C 
ATOM     27  C   UNL     1      15.952  11.100  18.533  0.00  0.00    +0.066 C 
ENDBRANCH  19  20
ENDBRANCH  18  19
ENDBRANCH  14  15
ENDBRANCH  12  13
TORSDOF 6
ENDMDL
MODEL 3
REMARK VINA RESULT:      -7.8      6.748     11.861
REMARK  Name = C:\Users\Docking\Desktop\test protocol\1iep_ligandH.pdb
REMARK  8 active torsions:
REMARK  status: ('A' for Active; 'I' for Inactive)
REMARK    1  A    between atoms: _5  and  _11
REMARK    2  A    between atoms: _19  and  _21
REMARK    3  A    between atoms: _22  and  _66
REMARK    4  A    between atoms: _27  and  _30
REMARK    5  A    between atoms: _32  and  _33
REMARK    6  A    between atoms: _38  and  _43
REMARK    7  A    between atoms: _43  and  _46
REMARK    8  A    between atoms: _53  and  _55
REMARK                            x       y       z     vdW  Elec       q    Type
REMARK                         _______ _______ _______ _____ _____    ______ ____
ROOT
ATOM     10  C   UNL     1       5.232  18.346  12.342  0.00  0.00    +0.038 A 
ATOM     11  C   UNL     1       6.083  17.341  12.868  0.00  0.00    +0.047 A 
ATOM     12  C   UNL     1       6.183  17.113  14.302  0.00  0.00    +0.035 A 
ATOM     32  C   UNL     1       5.398  17.926  15.171  0.00  0.00    +0.024 A 
ATOM     33  C   UNL     1       4.528  18.953  14.653  0.00  0.00    +0.007 A 
ATOM     34  C   UNL     1       4.428  19.184  13.240  0.00  0.00    -0.029 A 
ATOM     35  C   UNL     1       3.484  20.303  12.742  0.00  0.00    +0.045 C 
ENDROOT
BRANCH  10   9
ATOM      4  C   UNL     1       7.049  19.956   8.202  0.00  0.00    +0.077 A 
ATOM      5  C   UNL     1       8.195  20.519   8.855  0.00  0.00    +0.048 A 
ATOM      6  C   UNL     1       8.275  20.379  10.259  0.00  0.00    +0.116 A 
ATOM      7  N   UNL     1       7.278  19.722  10.947  0.00  0.00    -0.223 NA
ATOM      8  C   UNL     1       6.186  19.192  10.286  0.00  0.00    +0.220 A 
ATOM      9  N   UNL     1       5.175  18.521  10.958  0.00  0.00    -0.283 N 
ATOM     36  H   UNL     1       4.382  18.151  10.435  0.00  0.00    +0.155 HD
ATOM     37  N   UNL     1       6.085  19.314   8.946  0.00  0.00    -0.214 NA
BRANCH   4   3
ATOM      1  C   UNL     1       7.434  20.783   4.398  0.00  0.00    +0.020 A 
ATOM      2  C   UNL     1       7.697  20.754   5.818  0.00  0.00    +0.013 A 
ATOM      3  C   UNL     1       6.822  20.019   6.723  0.00  0.00    +0.019 A 
ATOM     38  C   UNL     1       5.682  19.317   6.154  0.00  0.00    +0.120 A 
ATOM     39  N   UNL     1       5.452  19.364   4.782  0.00  0.00    -0.263 NA
ATOM     40  C   UNL     1       6.286  20.070   3.902  0.00  0.00    +0.111 A 
ENDBRANCH   4   3
ENDBRANCH  10   9
BRANCH  12  13
ATOM     13  N   UNL     1       7.036  16.113  14.894  0.00  0.00    -0.281 N 
ATOM     14  C   UNL     1       6.820  14.747  14.970  0.00  0.00    +0.248 C 
ATOM     30  O   UNL     1       5.754  14.201  14.728  0.00  0.00    -0.270 OA
ATOM     31  H   UNL     1       7.904  16.454  15.307  0.00  0.00    +0.155 HD
BRANCH  14  15
ATOM     15  C   UNL     1       7.948  13.861  15.391  0.00  0.00    +0.037 A 
ATOM     16  C   UNL     1       8.229  12.604  14.691  0.00  0.00    +0.013 A 
ATOM     17  C   UNL     1       9.312  11.760  15.128  0.00  0.00    +0.005 A 
ATOM     18  C   UNL     1      10.124  12.170  16.271  0.00  0.00    -0.033 A 
ATOM     28  C   UNL     1       9.827  13.424  16.943  0.00  0.00    +0.005 A 
ATOM     29  C   UNL     1       8.765  14.254  16.519  0.00  0.00    +0.013 A 
BRANCH  18  19
ATOM     19  C   UNL     1      11.286  11.321  16.819  0.00  0.00    +0.119 C 
BRANCH  19  20
ATOM     20  N   UNL     1      12.459  12.052  17.386  0.00  0.00    -0.302 NA
ATOM     21  C   UNL     1      13.408  12.551  16.293  0.00  0.00    +0.066 C 
ATOM     22  C   UNL     1      14.617  13.333  16.903  0.00  0.00    -0.064 C 
ATOM     23  N   UNL     1      15.357  12.431  17.892  0.00  0.00    +0.379 N 
ATOM     24  C   UNL     1      16.528  13.143  18.423  0.00  0.00    -0.096 C 
ATOM     25  H   UNL     1      15.728  11.543  17.328  0.00  0.00    -0.082 HD
ATOM     26  C   UNL     1      14.420  11.927  18.980  0.00  0.00    -0.064 C 
ATOM     27  C   UNL     1      13.207  11.178  18.362  0.00  0.00    +0.066 C 
ENDBRANCH  19  20
ENDBRANCH  18  19
ENDBRANCH  14  15
ENDBRANCH  12  13
TORSDOF 6
ENDMDL
MODEL 4
REMARK VINA RESULT:      -7.8      7.846     12.107
REMARK  Name = C:\Users\Docking\Desktop\test protocol\1iep_ligandH.pdb
REMARK  8 active torsions:
REMARK  status: ('A' for Active; 'I' for Inactive)
REMARK    1  A    between atoms: _5  and  _11
REMARK    2  A    between atoms: _19  and  _21
REMARK    3  A    between atoms: _22  and  _66
REMARK    4  A    between atoms: _27  and  _30
REMARK    5  A    between atoms: _32  and  _33
REMARK    6  A    between atoms: _38  and  _43
REMARK    7  A    between atoms: _43  and  _46
REMARK    8  A    between atoms: _53  and  _55
REMARK                            x       y       z     vdW  Elec       q    Type
REMARK                         _______ _______ _______ _____ _____    ______ ____
ROOT
ATOM     10  C   UNL     1      11.249  11.613  16.129  0.00  0.00    +0.038 A 
ATOM     11  C   UNL     1      10.275  12.644  16.174  0.00  0.00    +0.047 A 
ATOM     12  C   UNL     1       9.307  12.811  15.101  0.00  0.00    +0.035 A 
ATOM     32  C   UNL     1       9.358  11.910  13.998  0.00  0.00    +0.024 A 
ATOM     33  C   UNL     1      10.342  10.858  13.936  0.00  0.00    +0.007 A 
ATOM     34  C   UNL     1      11.301  10.689  14.990  0.00  0.00    -0.029 A 
ATOM     35  C   UNL     1      12.337   9.547  14.868  0.00  0.00    +0.045 C 
ENDROOT
BRANCH  10   9
ATOM      4  C   UNL     1      15.544  12.385  18.129  0.00  0.00    +0.077 A 
ATOM      5  C   UNL     1      16.035  13.051  16.957  0.00  0.00    +0.048 A 
ATOM      6  C   UNL     1      15.154  13.167  15.859  0.00  0.00    +0.116 A 
ATOM      7  N   UNL     1      13.878  12.653  15.938  0.00  0.00    -0.223 NA
ATOM      8  C   UNL     1      13.436  12.016  17.083  0.00  0.00    +0.220 A 
ATOM      9  N   UNL     1      12.154  11.498  17.187  0.00  0.00    -0.283 N 
ATOM     36  H   UNL     1      11.868  11.028  18.046  0.00  0.00    +0.155 HD
ATOM     37  N   UNL     1      14.259  11.890  18.144  0.00  0.00    -0.214 NA
BRANCH   4   3
ATOM      1  C   UNL     1      18.183  12.848  20.978  0.00  0.00    +0.020 A 
ATOM      2  C   UNL     1      17.431  13.085  19.767  0.00  0.00    +0.013 A 
ATOM      3  C   UNL     1      16.354  12.186  19.371  0.00  0.00    +0.019 A 
ATOM     38  C   UNL     1      16.061  11.048  20.230  0.00  0.00    +0.120 A 
ATOM     39  N   UNL     1      16.803  10.844  21.389  0.00  0.00    -0.263 NA
ATOM     40  C   UNL     1      17.843  11.701  21.779  0.00  0.00    +0.111 A 
ENDBRANCH   4   3
ENDBRANCH  10   9
BRANCH  12  13
ATOM     13  N   UNL     1       8.301  13.844  15.088  0.00  0.00    -0.281 N 
ATOM     14  C   UNL     1       7.869  14.626  16.147  0.00  0.00    +0.248 C 
ATOM     30  O   UNL     1       8.134  14.409  17.320  0.00  0.00    -0.270 OA
ATOM     31  H   UNL     1       7.852  14.019  14.189  0.00  0.00    +0.155 HD
BRANCH  14  15
ATOM     15  C   UNL     1       7.007  15.813  15.863  0.00  0.00    +0.037 A 
ATOM     16  C   UNL     1       6.699  16.796  16.905  0.00  0.00    +0.013 A 
ATOM     17  C   UNL     1       5.850  17.923  16.609  0.00  0.00    +0.005 A 
ATOM     18  C   UNL     1       5.305  18.074  15.262  0.00  0.00    -0.033 A 
ATOM     28  C   UNL     1       5.631  17.087  14.246  0.00  0.00    +0.005 A 
ATOM     29  C   UNL     1       6.461  15.981  14.532  0.00  0.00    +0.013 A 
BRANCH  18  19
ATOM     19  C   UNL     1       4.373  19.234  14.862  0.00  0.00    +0.119 C 
BRANCH  19  20
ATOM     20  N   UNL     1       5.017  20.524  14.472  0.00  0.00    -0.302 NA
ATOM     21  C   UNL     1       5.731  20.424  13.121  0.00  0.00    +0.066 C 
ATOM     22  C   UNL     1       6.379  21.788  12.718  0.00  0.00    -0.064 C 
ATOM     23  N   UNL     1       7.351  22.232  13.813  0.00  0.00    +0.379 N 
ATOM     24  C   UNL     1       8.005  23.485  13.411  0.00  0.00    -0.096 C 
ATOM     25  H   UNL     1       8.141  21.450  13.901  0.00  0.00    -0.082 HD
ATOM     26  C   UNL     1       6.649  22.331  15.160  0.00  0.00    -0.064 C 
ATOM     27  C   UNL     1       5.984  20.978  15.538  0.00  0.00    +0.066 C 
ENDBRANCH  19  20
ENDBRANCH  18  19
ENDBRANCH  14  15
ENDBRANCH  12  13
TORSDOF 6
ENDMDL
MODEL 5
REMARK VINA RESULT:      -7.7     12.065     14.000
REMARK  Name = C:\Users\Docking\Desktop\test protocol\1iep_ligandH.pdb
REMARK  8 active torsions:
REMARK  status: ('A' for Active; 'I' for Inactive)
REMARK    1  A    between atoms: _5  and  _11
REMARK    2  A    between atoms: _19  and  _21
REMARK    3  A    between atoms: _22  and  _66
REMARK    4  A    between atoms: _27  and  _30
REMARK    5  A    between atoms: _32  and  _33
REMARK    6  A    between atoms: _38  and  _43
REMARK    7  A    between atoms: _43  and  _46
REMARK    8  A    between atoms: _53  and  _55
REMARK                            x       y       z     vdW  Elec       q    Type
REMARK                         _______ _______ _______ _____ _____    ______ ____
ROOT
ATOM     10  C   UNL     1       7.603  10.521  12.408  0.00  0.00    +0.038 A 
ATOM     11  C   UNL     1       8.870  11.001  12.829  0.00  0.00    +0.047 A 
ATOM     12  C   UNL     1       9.262  10.963  14.229  0.00  0.00    +0.035 A 
ATOM     32  C   UNL     1       8.340  10.428  15.175  0.00  0.00    +0.024 A 
ATOM     33  C   UNL     1       7.047   9.937  14.765  0.00  0.00    +0.007 A 
ATOM     34  C   UNL     1       6.654   9.974  13.385  0.00  0.00    -0.029 A 
ATOM     35  C   UNL     1       5.254   9.440  13.004  0.00  0.00    +0.045 C 
ENDROOT
BRANCH  10   9
ATOM      4  C   UNL     1       7.639   8.710   7.964  0.00  0.00    +0.077 A 
ATOM      5  C   UNL     1       8.391   7.559   8.375  0.00  0.00    +0.048 A 
ATOM      6  C   UNL     1       8.755   7.475   9.738  0.00  0.00    +0.116 A 
ATOM      7  N   UNL     1       8.388   8.473  10.615  0.00  0.00    -0.223 NA
ATOM      8  C   UNL     1       7.665   9.570  10.185  0.00  0.00    +0.220 A 
ATOM      9  N   UNL     1       7.279  10.581  11.051  0.00  0.00    -0.283 N 
ATOM     36  H   UNL     1       6.752  11.378  10.694  0.00  0.00    +0.155 HD
ATOM     37  N   UNL     1       7.307   9.674   8.888  0.00  0.00    -0.214 NA
BRANCH   4   3
ATOM      1  C   UNL     1       7.561   9.036   4.067  0.00  0.00    +0.020 A 
ATOM      2  C   UNL     1       8.057   8.802   5.403  0.00  0.00    +0.013 A 
ATOM      3  C   UNL     1       7.178   8.940   6.558  0.00  0.00    +0.019 A 
ATOM     38  C   UNL     1       5.792   9.318   6.324  0.00  0.00    +0.120 A 
ATOM     39  N   UNL     1       5.344   9.538   5.025  0.00  0.00    -0.263 NA
ATOM     40  C   UNL     1       6.180   9.410   3.907  0.00  0.00    +0.111 A 
ENDBRANCH   4   3
ENDBRANCH  10   9
BRANCH  12  13
ATOM     13  N   UNL     1      10.532  11.443  14.716  0.00  0.00    -0.281 N 
ATOM     14  C   UNL     1      10.769  12.504  15.574  0.00  0.00    +0.248 C 
ATOM     30  O   UNL     1       9.934  13.340  15.887  0.00  0.00    -0.270 OA
ATOM     31  H   UNL     1      11.356  10.939  14.388  0.00  0.00    +0.155 HD
BRANCH  14  15
ATOM     15  C   UNL     1      12.135  12.668  16.159  0.00  0.00    +0.037 A 
ATOM     16  C   UNL     1      12.428  13.740  17.114  0.00  0.00    +0.013 A 
ATOM     17  C   UNL     1      13.759  13.887  17.650  0.00  0.00    +0.005 A 
ATOM     18  C   UNL     1      14.806  12.957  17.232  0.00  0.00    -0.033 A 
ATOM     28  C   UNL     1      14.486  11.901  16.286  0.00  0.00    +0.005 A 
ATOM     29  C   UNL     1      13.183  11.754  15.759  0.00  0.00    +0.013 A 
BRANCH  18  19
ATOM     19  C   UNL     1      16.258  13.052  17.735  0.00  0.00    +0.119 C 
BRANCH  19  20
ATOM     20  N   UNL     1      16.513  12.683  19.160  0.00  0.00    -0.302 NA
ATOM     21  C   UNL     1      17.904  13.120  19.626  0.00  0.00    +0.066 C 
ATOM     22  C   UNL     1      18.146  12.747  21.125  0.00  0.00    -0.064 C 
ATOM     23  N   UNL     1      17.962  11.239  21.308  0.00  0.00    +0.379 N 
ATOM     24  C   UNL     1      18.245  10.876  22.704  0.00  0.00    -0.096 C 
ATOM     25  H   UNL     1      18.716  10.727  20.665  0.00  0.00    -0.082 HD
ATOM     26  C   UNL     1      16.582  10.795  20.844  0.00  0.00    -0.064 C 
ATOM     27  C   UNL     1      16.341  11.198  19.362  0.00  0.00    +0.066 C 
ENDBRANCH  19  20
ENDBRANCH  18  19
ENDBRANCH  14  15
ENDBRANCH  12  13
TORSDOF 6
ENDMDL
