MODEL 1
REMARK VINA RESULT:      -8.9      0.000      0.000
REMARK  Name = C:\Users\Docking\Desktop\test protocol\1iep_ligandH.pdb
REMARK  8 active torsions:
REMARK  status: ('A' for Active; 'I' for Inactive)
REMARK    1  A    between atoms: _5  and  _11
REMARK    2  A    between atoms: _19  and  _21
REMARK    3  A    between atoms: _22  and  _66
REMARK    4  A    between atoms: _27  and  _30
REMARK    5  A    between atoms: _32  and  _33
REMARK    6  A    between atoms: _38  and  _43
REMARK    7  A    between atoms: _43  and  _46
REMARK    8  A    between atoms: _53  and  _55
REMARK                            x       y       z     vdW  Elec       q    Type
REMARK                         _______ _______ _______ _____ _____    ______ ____
ROOT
ATOM     10  C   UNL     1      19.573  16.869  18.271  0.00  0.00    +0.038 A 
ATOM     11  C   UNL     1      18.654  15.797  18.140  0.00  0.00    +0.047 A 
ATOM     12  C   UNL     1      17.850  15.637  16.938  0.00  0.00    +0.035 A 
ATOM     32  C   UNL     1      18.010  16.588  15.888  0.00  0.00    +0.024 A 
ATOM     33  C   UNL     1      18.939  17.684  16.005  0.00  0.00    +0.007 A 
ATOM     34  C   UNL     1      19.733  17.847  17.189  0.00  0.00    -0.029 A 
ATOM     35  C   UNL     1      20.708  19.045  17.262  0.00  0.00    +0.045 C 
ENDROOT
BRANCH  10   9
ATOM      4  C   UNL     1      23.434  15.857  20.937  0.00  0.00    +0.077 A 
ATOM      5  C   UNL     1      23.999  15.028  19.911  0.00  0.00    +0.048 A 
ATOM      6  C   UNL     1      23.260  14.882  18.715  0.00  0.00    +0.116 A 
ATOM      7  N   UNL     1      22.049  15.523  18.567  0.00  0.00    -0.223 NA
ATOM      8  C   UNL     1      21.532  16.314  19.577  0.00  0.00    +0.220 A 
ATOM      9  N   UNL     1      20.320  16.973  19.446  0.00  0.00    -0.283 N 
ATOM     36  H   UNL     1      19.970  17.541  20.217  0.00  0.00    +0.155 HD
ATOM     37  N   UNL     1      22.217  16.467  20.729  0.00  0.00    -0.214 NA
BRANCH   4   3
ATOM      1  C   UNL     1      24.219  17.220  24.518  0.00  0.00    +0.020 A 
ATOM      2  C   UNL     1      23.540  17.009  23.260  0.00  0.00    +0.013 A 
ATOM      3  C   UNL     1      24.096  16.111  22.256  0.00  0.00    +0.019 A 
ATOM     38  C   UNL     1      25.348  15.435  22.558  0.00  0.00    +0.120 A 
ATOM     39  N   UNL     1      25.980  15.659  23.778  0.00  0.00    -0.263 NA
ATOM     40  C   UNL     1      25.456  16.522  24.751  0.00  0.00    +0.111 A 
ENDBRANCH   4   3
ENDBRANCH  10   9
BRANCH  12  13
ATOM     13  N   UNL     1      16.895  14.574  16.752  0.00  0.00    -0.281 N 
ATOM     14  C   UNL     1      15.601  14.495  17.241  0.00  0.00    +0.248 C 
ATOM     30  O   UNL     1      15.140  15.236  18.096  0.00  0.00    -0.270 OA
ATOM     31  H   UNL     1      17.210  13.782  16.191  0.00  0.00    +0.155 HD
BRANCH  14  15
ATOM     15  C   UNL     1      14.693  13.431  16.714  0.00  0.00    +0.037 A 
ATOM     16  C   UNL     1      13.267  13.415  17.050  0.00  0.00    +0.013 A 
ATOM     17  C   UNL     1      12.417  12.367  16.542  0.00  0.00    +0.005 A 
ATOM     18  C   UNL     1      12.991  11.327  15.692  0.00  0.00    -0.033 A 
ATOM     28  C   UNL     1      14.408  11.371  15.371  0.00  0.00    +0.005 A 
ATOM     29  C   UNL     1      15.245  12.395  15.867  0.00  0.00    +0.013 A 
BRANCH  18  19
ATOM     19  C   UNL     1      12.163  10.160  15.123  0.00  0.00    +0.119 C 
BRANCH  19  20
ATOM     20  N   UNL     1      10.691  10.368  14.987  0.00  0.00    -0.302 NA
ATOM     21  C   UNL     1       9.971   9.098  14.524  0.00  0.00    +0.066 C 
ATOM     22  C   UNL     1       8.429   9.328  14.409  0.00  0.00    -0.064 C 
ATOM     23  N   UNL     1       8.159  10.485  13.445  0.00  0.00    +0.379 N 
ATOM     24  C   UNL     1       6.708  10.666  13.290  0.00  0.00    -0.096 C 
ATOM     25  H   UNL     1       8.573  10.200  12.450  0.00  0.00    -0.082 HD
ATOM     26  C   UNL     1       8.873  11.751  13.896  0.00  0.00    -0.064 C 
ATOM     27  C   UNL     1      10.401  11.504  14.036  0.00  0.00    +0.066 C 
ENDBRANCH  19  20
ENDBRANCH  18  19
ENDBRANCH  14  15
ENDBRANCH  12  13
TORSDOF 6
ENDMDL
MODEL 2
REMARK VINA RESULT:      -8.8      1.191      1.772
REMARK  Name = C:\Users\Docking\Desktop\test protocol\1iep_ligandH.pdb
REMARK  8 active torsions:
REMARK  status: ('A' for Active; 'I' for Inactive)
REMARK    1  A    between atoms: _5  and  _11
REMARK    2  A    between atoms: _19  and  _21
REMARK    3  A    between atoms: _22  and  _66
REMARK    4  A    between atoms: _27  and  _30
REMARK    5  A    between atoms: _32  and  _33
REMARK    6  A    between atoms: _38  and  _43
REMARK    7  A    between atoms: _43  and  _46
REMARK    8  A    between atoms: _53  and  _55
REMARK                            x       y       z     vdW  Elec       q    Type
REMARK                         _______ _______ _______ _____ _____    ______ ____
ROOT
ATOM     10  C   UNL     1      19.593  16.702  17.624  0.00  0.00    +0.038 A 
ATOM     11  C   UNL     1      18.714  15.595  17.504  0.00  0.00    +0.047 A 
ATOM     12  C   UNL     1      17.647  15.585  16.515  0.00  0.00    +0.035 A 
ATOM     32  C   UNL     1      17.506  16.719  15.662  0.00  0.00    +0.024 A 
ATOM     33  C   UNL     1      18.390  17.852  15.771  0.00  0.00    +0.007 A 
ATOM     34  C   UNL     1      19.443  17.869  16.746  0.00  0.00    -0.029 A 
ATOM     35  C   UNL     1      20.357  19.114  16.822  0.00  0.00    +0.045 C 
ENDROOT
BRANCH  10   9
ATOM      4  C   UNL     1      21.184  17.322  22.109  0.00  0.00    +0.077 A 
ATOM      5  C   UNL     1      19.907  17.798  22.559  0.00  0.00    +0.048 A 
ATOM      6  C   UNL     1      18.870  17.876  21.603  0.00  0.00    +0.116 A 
ATOM      7  N   UNL     1      19.103  17.501  20.297  0.00  0.00    -0.223 NA
ATOM      8  C   UNL     1      20.346  17.048  19.896  0.00  0.00    +0.220 A 
ATOM      9  N   UNL     1      20.600  16.658  18.590  0.00  0.00    -0.283 N 
ATOM     36  H   UNL     1      21.533  16.336  18.333  0.00  0.00    +0.155 HD
ATOM     37  N   UNL     1      21.353  16.966  20.790  0.00  0.00    -0.214 NA
BRANCH   4   3
ATOM      1  C   UNL     1      23.573  17.483  25.202  0.00  0.00    +0.020 A 
ATOM      2  C   UNL     1      22.394  17.645  24.383  0.00  0.00    +0.013 A 
ATOM      3  C   UNL     1      22.378  17.180  23.001  0.00  0.00    +0.019 A 
ATOM     38  C   UNL     1      23.580  16.551  22.475  0.00  0.00    +0.120 A 
ATOM     39  N   UNL     1      24.701  16.411  23.287  0.00  0.00    -0.263 NA
ATOM     40  C   UNL     1      24.729  16.856  24.618  0.00  0.00    +0.111 A 
ENDBRANCH   4   3
ENDBRANCH  10   9
BRANCH  12  13
ATOM     13  N   UNL     1      16.719  14.494  16.353  0.00  0.00    -0.281 N 
ATOM     14  C   UNL     1      15.599  14.208  17.116  0.00  0.00    +0.248 C 
ATOM     30  O   UNL     1      15.344  14.729  18.192  0.00  0.00    -0.270 OA
ATOM     31  H   UNL     1      16.911  13.855  15.582  0.00  0.00    +0.155 HD
BRANCH  14  15
ATOM     15  C   UNL     1      14.629  13.184  16.620  0.00  0.00    +0.037 A 
ATOM     16  C   UNL     1      13.220  13.216  17.020  0.00  0.00    +0.013 A 
ATOM     17  C   UNL     1      12.309  12.207  16.540  0.00  0.00    +0.005 A 
ATOM     18  C   UNL     1      12.806  11.157  15.653  0.00  0.00    -0.033 A 
ATOM     28  C   UNL     1      14.207  11.153  15.269  0.00  0.00    +0.005 A 
ATOM     29  C   UNL     1      15.103  12.140  15.738  0.00  0.00    +0.013 A 
BRANCH  18  19
ATOM     19  C   UNL     1      11.910  10.028  15.110  0.00  0.00    +0.119 C 
BRANCH  19  20
ATOM     20  N   UNL     1      10.456  10.327  14.948  0.00  0.00    -0.302 NA
ATOM     21  C   UNL     1       9.670   9.109  14.455  0.00  0.00    +0.066 C 
ATOM     22  C   UNL     1       8.147   9.433  14.313  0.00  0.00    -0.064 C 
ATOM     23  N   UNL     1       7.967  10.616  13.360  0.00  0.00    +0.379 N 
ATOM     24  C   UNL     1       6.533  10.886  13.178  0.00  0.00    -0.096 C 
ATOM     25  H   UNL     1       8.383  10.318  12.369  0.00  0.00    -0.082 HD
ATOM     26  C   UNL     1       8.747  11.831  13.841  0.00  0.00    -0.064 C 
ATOM     27  C   UNL     1      10.254  11.490  14.008  0.00  0.00    +0.066 C 
ENDBRANCH  19  20
ENDBRANCH  18  19
ENDBRANCH  14  15
ENDBRANCH  12  13
TORSDOF 6
ENDMDL
MODEL 3
REMARK VINA RESULT:      -8.7      6.682     11.017
REMARK  Name = C:\Users\Docking\Desktop\test protocol\1iep_ligandH.pdb
REMARK  8 active torsions:
REMARK  status: ('A' for Active; 'I' for Inactive)
REMARK    1  A    between atoms: _5  and  _11
REMARK    2  A    between atoms: _19  and  _21
REMARK    3  A    between atoms: _22  and  _66
REMARK    4  A    between atoms: _27  and  _30
REMARK    5  A    between atoms: _32  and  _33
REMARK    6  A    between atoms: _38  and  _43
REMARK    7  A    between atoms: _43  and  _46
REMARK    8  A    between atoms: _53  and  _55
REMARK                            x       y       z     vdW  Elec       q    Type
REMARK                         _______ _______ _______ _____ _____    ______ ____
ROOT
ATOM     10  C   UNL     1      27.016  11.626  17.000  0.00  0.00    +0.038 A 
ATOM     11  C   UNL     1      25.955  12.561  16.891  0.00  0.00    +0.047 A 
ATOM     12  C   UNL     1      25.215  13.000  18.064  0.00  0.00    +0.035 A 
ATOM     32  C   UNL     1      25.585  12.468  19.334  0.00  0.00    +0.024 A 
ATOM     33  C   UNL     1      26.660  11.516  19.463  0.00  0.00    +0.007 A 
ATOM     34  C   UNL     1      27.391  11.077  18.309  0.00  0.00    -0.029 A 
ATOM     35  C   UNL     1      28.531  10.050  18.505  0.00  0.00    +0.045 C 
ENDROOT
BRANCH  10   9
ATOM      4  C   UNL     1      27.346   9.091  12.938  0.00  0.00    +0.077 A 
ATOM      5  C   UNL     1      26.075   8.462  13.158  0.00  0.00    +0.048 A 
ATOM      6  C   UNL     1      25.371   8.814  14.331  0.00  0.00    +0.116 A 
ATOM      7  N   UNL     1      25.908   9.727  15.213  0.00  0.00    -0.223 NA
ATOM      8  C   UNL     1      27.137  10.313  14.972  0.00  0.00    +0.220 A 
ATOM      9  N   UNL     1      27.692  11.240  15.841  0.00  0.00    -0.283 N 
ATOM     36  H   UNL     1      28.605  11.644  15.631  0.00  0.00    +0.155 HD
ATOM     37  N   UNL     1      27.829   9.993  13.859  0.00  0.00    -0.214 NA
BRANCH   4   3
ATOM      1  C   UNL     1      29.937   7.487  10.486  0.00  0.00    +0.020 A 
ATOM      2  C   UNL     1      29.128   7.698  11.664  0.00  0.00    +0.013 A 
ATOM      3  C   UNL     1      28.207   8.825  11.743  0.00  0.00    +0.019 A 
ATOM     38  C   UNL     1      28.128   9.727  10.603  0.00  0.00    +0.120 A 
ATOM     39  N   UNL     1      28.921   9.499   9.483  0.00  0.00    -0.263 NA
ATOM     40  C   UNL     1      29.812   8.418   9.396  0.00  0.00    +0.111 A 
ENDBRANCH   4   3
ENDBRANCH  10   9
BRANCH  12  13
ATOM     13  N   UNL     1      24.123  13.940  18.014  0.00  0.00    -0.281 N 
ATOM     14  C   UNL     1      24.140  15.283  18.354  0.00  0.00    +0.248 C 
ATOM     30  O   UNL     1      25.049  15.832  18.958  0.00  0.00    -0.270 OA
ATOM     31  H   UNL     1      23.230  13.571  17.689  0.00  0.00    +0.155 HD
BRANCH  14  15
ATOM     15  C   UNL     1      22.971  16.137  17.980  0.00  0.00    +0.037 A 
ATOM     16  C   UNL     1      22.680  17.382  18.696  0.00  0.00    +0.013 A 
ATOM     17  C   UNL     1      21.536  18.178  18.326  0.00  0.00    +0.005 A 
ATOM     18  C   UNL     1      20.675  17.731  17.234  0.00  0.00    -0.033 A 
ATOM     28  C   UNL     1      20.990  16.494  16.538  0.00  0.00    +0.005 A 
ATOM     29  C   UNL     1      22.110  15.711  16.898  0.00  0.00    +0.013 A 
BRANCH  18  19
ATOM     19  C   UNL     1      19.422  18.506  16.786  0.00  0.00    +0.119 C 
BRANCH  19  20
ATOM     20  N   UNL     1      18.096  17.867  17.040  0.00  0.00    -0.302 NA
ATOM     21  C   UNL     1      18.045  17.171  18.403  0.00  0.00    +0.066 C 
ATOM     22  C   UNL     1      16.644  16.528  18.662  0.00  0.00    -0.064 C 
ATOM     23  N   UNL     1      16.323  15.541  17.538  0.00  0.00    +0.379 N 
ATOM     24  C   UNL     1      15.032  14.892  17.809  0.00  0.00    -0.096 C 
ATOM     25  H   UNL     1      17.109  14.750  17.549  0.00  0.00    -0.082 HD
ATOM     26  C   UNL     1      16.374  16.224  16.179  0.00  0.00    -0.064 C 
ATOM     27  C   UNL     1      17.761  16.885  15.944  0.00  0.00    +0.066 C 
ENDBRANCH  19  20
ENDBRANCH  18  19
ENDBRANCH  14  15
ENDBRANCH  12  13
TORSDOF 6
ENDMDL
MODEL 4
REMARK VINA RESULT:      -8.6      2.605     13.787
REMARK  Name = C:\Users\Docking\Desktop\test protocol\1iep_ligandH.pdb
REMARK  8 active torsions:
REMARK  status: ('A' for Active; 'I' for Inactive)
REMARK    1  A    between atoms: _5  and  _11
REMARK    2  A    between atoms: _19  and  _21
REMARK    3  A    between atoms: _22  and  _66
REMARK    4  A    between atoms: _27  and  _30
REMARK    5  A    between atoms: _32  and  _33
REMARK    6  A    between atoms: _38  and  _43
REMARK    7  A    between atoms: _43  and  _46
REMARK    8  A    between atoms: _53  and  _55
REMARK                            x       y       z     vdW  Elec       q    Type
REMARK                         _______ _______ _______ _____ _____    ______ ____
ROOT
ATOM     10  C   UNL     1      19.245  16.705  16.882  0.00  0.00    +0.038 A 
ATOM     11  C   UNL     1      20.008  16.575  18.071  0.00  0.00    +0.047 A 
ATOM     12  C   UNL     1      20.789  17.687  18.589  0.00  0.00    +0.035 A 
ATOM     32  C   UNL     1      20.768  18.919  17.873  0.00  0.00    +0.024 A 
ATOM     33  C   UNL     1      19.999  19.069  16.663  0.00  0.00    +0.007 A 
ATOM     34  C   UNL     1      19.228  17.975  16.145  0.00  0.00    -0.029 A 
ATOM     35  C   UNL     1      18.427  18.190  14.840  0.00  0.00    +0.045 C 
ENDROOT
BRANCH  10   9
ATOM      4  C   UNL     1      15.258  14.036  16.754  0.00  0.00    +0.077 A 
ATOM      5  C   UNL     1      14.584  14.892  17.689  0.00  0.00    +0.048 A 
ATOM      6  C   UNL     1      15.302  16.004  18.184  0.00  0.00    +0.116 A 
ATOM      7  N   UNL     1      16.595  16.234  17.769  0.00  0.00    -0.223 NA
ATOM      8  C   UNL     1      17.216  15.388  16.867  0.00  0.00    +0.220 A 
ATOM      9  N   UNL     1      18.513  15.605  16.430  0.00  0.00    -0.283 N 
ATOM     36  H   UNL     1      18.938  14.954  15.770  0.00  0.00    +0.155 HD
ATOM     37  N   UNL     1      16.553  14.319  16.381  0.00  0.00    -0.214 NA
BRANCH   4   3
ATOM      1  C   UNL     1      14.735  10.692  14.795  0.00  0.00    +0.020 A 
ATOM      2  C   UNL     1      15.388  11.846  15.367  0.00  0.00    +0.013 A 
ATOM      3  C   UNL     1      14.631  12.824  16.139  0.00  0.00    +0.019 A 
ATOM     38  C   UNL     1      13.204  12.601  16.315  0.00  0.00    +0.120 A 
ATOM     39  N   UNL     1      12.602  11.481  15.751  0.00  0.00    -0.263 NA
ATOM     40  C   UNL     1      13.320  10.534  15.005  0.00  0.00    +0.111 A 
ENDBRANCH   4   3
ENDBRANCH  10   9
BRANCH  12  13
ATOM     13  N   UNL     1      21.589  17.611  19.786  0.00  0.00    -0.281 N 
ATOM     14  C   UNL     1      21.155  17.459  21.093  0.00  0.00    +0.248 C 
ATOM     30  O   UNL     1      19.994  17.581  21.454  0.00  0.00    -0.270 OA
ATOM     31  H   UNL     1      22.599  17.677  19.654  0.00  0.00    +0.155 HD
BRANCH  14  15
ATOM     15  C   UNL     1      22.158  17.141  22.155  0.00  0.00    +0.037 A 
ATOM     16  C   UNL     1      23.461  16.563  21.820  0.00  0.00    +0.013 A 
ATOM     17  C   UNL     1      24.403  16.250  22.865  0.00  0.00    +0.005 A 
ATOM     18  C   UNL     1      24.045  16.516  24.256  0.00  0.00    -0.033 A 
ATOM     28  C   UNL     1      22.746  17.095  24.560  0.00  0.00    +0.005 A 
ATOM     29  C   UNL     1      21.820  17.402  23.538  0.00  0.00    +0.013 A 
BRANCH  18  19
ATOM     19  C   UNL     1      24.979  16.194  25.437  0.00  0.00    +0.119 C 
BRANCH  19  20
ATOM     20  N   UNL     1      26.110  17.135  25.691  0.00  0.00    -0.302 NA
ATOM     21  C   UNL     1      27.349  16.414  26.227  0.00  0.00    +0.066 C 
ATOM     22  C   UNL     1      28.530  17.410  26.466  0.00  0.00    -0.064 C 
ATOM     23  N   UNL     1      28.080  18.507  27.434  0.00  0.00    +0.379 N 
ATOM     24  C   UNL     1      29.206  19.413  27.705  0.00  0.00    -0.096 C 
ATOM     25  H   UNL     1      27.802  18.015  28.395  0.00  0.00    -0.082 HD
ATOM     26  C   UNL     1      26.847  19.228  26.909  0.00  0.00    -0.064 C 
ATOM     27  C   UNL     1      25.689  18.224  26.648  0.00  0.00    +0.066 C 
ENDBRANCH  19  20
ENDBRANCH  18  19
ENDBRANCH  14  15
ENDBRANCH  12  13
TORSDOF 6
ENDMDL
MODEL 5
REMARK VINA RESULT:      -8.6      1.704      2.590
REMARK  Name = C:\Users\Docking\Desktop\test protocol\1iep_ligandH.pdb
REMARK  8 active torsions:
REMARK  status: ('A' for Active; 'I' for Inactive)
REMARK    1  A    between atoms: _5  and  _11
REMARK    2  A    between atoms: _19  and  _21
REMARK    3  A    between atoms: _22  and  _66
REMARK    4  A    between atoms: _27  and  _30
REMARK    5  A    between atoms: _32  and  _33
REMARK    6  A    between atoms: _38  and  _43
REMARK    7  A    between atoms: _43  and  _46
REMARK    8  A    between atoms: _53  and  _55
REMARK                            x       y       z     vdW  Elec       q    Type
REMARK                         _______ _______ _______ _____ _____    ______ ____
ROOT
ATOM     10  C   UNL     1      19.699  16.896  17.810  0.00  0.00    +0.038 A 
ATOM     11  C   UNL     1      18.795  15.828  17.579  0.00  0.00    +0.047 A 
ATOM     12  C   UNL     1      17.837  15.876  16.486  0.00  0.00    +0.035 A 
ATOM     32  C   UNL     1      17.828  17.027  15.646  0.00  0.00    +0.024 A 
ATOM     33  C   UNL     1      18.739  18.123  15.867  0.00  0.00    +0.007 A 
ATOM     34  C   UNL     1      19.685  18.082  16.945  0.00  0.00    -0.029 A 
ATOM     35  C   UNL     1      20.633  19.288  17.139  0.00  0.00    +0.045 C 
ENDROOT
BRANCH  10   9
ATOM      4  C   UNL     1      23.801  15.338  19.754  0.00  0.00    +0.077 A 
ATOM      5  C   UNL     1      24.172  14.639  18.558  0.00  0.00    +0.048 A 
ATOM      6  C   UNL     1      23.276  14.700  17.467  0.00  0.00    +0.116 A 
ATOM      7  N   UNL     1      22.100  15.410  17.576  0.00  0.00    -0.223 NA
ATOM      8  C   UNL     1      21.772  16.071  18.745  0.00  0.00    +0.220 A 
ATOM      9  N   UNL     1      20.598  16.797  18.875  0.00  0.00    -0.283 N 
ATOM     36  H   UNL     1      20.389  17.265  19.756  0.00  0.00    +0.155 HD
ATOM     37  N   UNL     1      22.610  16.027  19.802  0.00  0.00    -0.214 NA
BRANCH   4   3
ATOM      1  C   UNL     1      26.719  14.778  22.299  0.00  0.00    +0.020 A 
ATOM      2  C   UNL     1      25.944  14.716  21.081  0.00  0.00    +0.013 A 
ATOM      3  C   UNL     1      24.645  15.370  20.991  0.00  0.00    +0.019 A 
ATOM     38  C   UNL     1      24.154  16.085  22.160  0.00  0.00    +0.120 A 
ATOM     39  N   UNL     1      24.922  16.126  23.320  0.00  0.00    -0.263 NA
ATOM     40  C   UNL     1      26.173  15.499  23.419  0.00  0.00    +0.111 A 
ENDBRANCH   4   3
ENDBRANCH  10   9
BRANCH  12  13
ATOM     13  N   UNL     1      16.890  14.825  16.208  0.00  0.00    -0.281 N 
ATOM     14  C   UNL     1      16.225  14.016  17.114  0.00  0.00    +0.248 C 
ATOM     30  O   UNL     1      16.507  13.930  18.300  0.00  0.00    -0.270 OA
ATOM     31  H   UNL     1      16.684  14.658  15.223  0.00  0.00    +0.155 HD
BRANCH  14  15
ATOM     15  C   UNL     1      15.093  13.169  16.631  0.00  0.00    +0.037 A 
ATOM     16  C   UNL     1      13.716  13.421  17.064  0.00  0.00    +0.013 A 
ATOM     17  C   UNL     1      12.644  12.579  16.596  0.00  0.00    +0.005 A 
ATOM     18  C   UNL     1      12.946  11.475  15.687  0.00  0.00    -0.033 A 
ATOM     28  C   UNL     1      14.320  11.250  15.270  0.00  0.00    +0.005 A 
ATOM     29  C   UNL     1      15.373  12.073  15.727  0.00  0.00    +0.013 A 
BRANCH  18  19
ATOM     19  C   UNL     1      11.868  10.512  15.154  0.00  0.00    +0.119 C 
BRANCH  19  20
ATOM     20  N   UNL     1      12.152   9.049  15.247  0.00  0.00    -0.302 NA
ATOM     21  C   UNL     1      11.054   8.208  14.590  0.00  0.00    +0.066 C 
ATOM     22  C   UNL     1      11.379   6.681  14.677  0.00  0.00    -0.064 C 
ATOM     23  N   UNL     1      11.562   6.283  16.142  0.00  0.00    +0.379 N 
ATOM     24  C   UNL     1      11.810   4.837  16.231  0.00  0.00    -0.096 C 
ATOM     25  H   UNL     1      10.604   6.496  16.672  0.00  0.00    -0.082 HD
ATOM     26  C   UNL     1      12.650   7.117  16.804  0.00  0.00    -0.064 C 
ATOM     27  C   UNL     1      12.333   8.634  16.686  0.00  0.00    +0.066 C 
ENDBRANCH  19  20
ENDBRANCH  18  19
ENDBRANCH  14  15
ENDBRANCH  12  13
TORSDOF 6
ENDMDL
