MODEL 1
REMARK VINA RESULT:     -11.7      0.000      0.000
REMARK  Name = C:\Users\Docking\Desktop\test protocol\1iep_ligandH.pdb
REMARK  8 active torsions:
REMARK  status: ('A' for Active; 'I' for Inactive)
REMARK    1  A    between atoms: _5  and  _11
REMARK    2  A    between atoms: _19  and  _21
REMARK    3  A    between atoms: _22  and  _66
REMARK    4  A    between atoms: _27  and  _30
REMARK    5  A    between atoms: _32  and  _33
REMARK    6  A    between atoms: _38  and  _43
REMARK    7  A    between atoms: _43  and  _46
REMARK    8  A    between atoms: _53  and  _55
REMARK                            x       y       z     vdW  Elec       q    Type
REMARK                         _______ _______ _______ _____ _____    ______ ____
ROOT
ATOM     10  C   UNL     1      -6.103  -3.979   2.708  0.00  0.00    +0.038 A 
ATOM     11  C   UNL     1      -5.690  -2.950   1.823  0.00  0.00    +0.047 A 
ATOM     12  C   UNL     1      -5.032  -3.260   0.563  0.00  0.00    +0.035 A 
ATOM     32  C   UNL     1      -4.813  -4.630   0.235  0.00  0.00    +0.024 A 
ATOM     33  C   UNL     1      -5.226  -5.688   1.123  0.00  0.00    +0.007 A 
ATOM     34  C   UNL     1      -5.873  -5.388   2.368  0.00  0.00    -0.029 A 
ATOM     35  C   UNL     1      -6.288  -6.563   3.284  0.00  0.00    +0.045 C 
ENDROOT
BRANCH  10   9
ATOM      4  C   UNL     1     -10.014  -2.963   5.297  0.00  0.00    +0.077 A 
ATOM      5  C   UNL     1     -10.879  -3.127   4.165  0.00  0.00    +0.048 A 
ATOM      6  C   UNL     1     -10.277  -3.465   2.932  0.00  0.00    +0.116 A 
ATOM      7  N   UNL     1      -8.911  -3.626   2.850  0.00  0.00    -0.223 NA
ATOM      8  C   UNL     1      -8.105  -3.459   3.962  0.00  0.00    +0.220 A 
ATOM      9  N   UNL     1      -6.730  -3.624   3.904  0.00  0.00    -0.283 N 
ATOM     36  H   UNL     1      -6.170  -3.484   4.745  0.00  0.00    +0.155 HD
ATOM     37  N   UNL     1      -8.656  -3.134   5.150  0.00  0.00    -0.214 NA
BRANCH   4   3
ATOM      1  C   UNL     1     -11.402  -0.977   8.369  0.00  0.00    +0.020 A 
ATOM      2  C   UNL     1     -10.940  -1.267   7.031  0.00  0.00    +0.013 A 
ATOM      3  C   UNL     1     -10.501  -2.608   6.668  0.00  0.00    +0.019 A 
ATOM     38  C   UNL     1     -10.541  -3.642   7.691  0.00  0.00    +0.120 A 
ATOM     39  N   UNL     1     -10.989  -3.334   8.972  0.00  0.00    -0.263 NA
ATOM     40  C   UNL     1     -11.413  -2.046   9.333  0.00  0.00    +0.111 A 
ENDBRANCH   4   3
ENDBRANCH  10   9
BRANCH  12  13
ATOM     13  N   UNL     1      -4.583  -2.258  -0.371  0.00  0.00    -0.281 N 
ATOM     14  C   UNL     1      -3.281  -1.878  -0.652  0.00  0.00    +0.248 C 
ATOM     30  O   UNL     1      -2.309  -2.196   0.017  0.00  0.00    -0.270 OA
ATOM     31  H   UNL     1      -5.314  -1.770  -0.888  0.00  0.00    +0.155 HD
BRANCH  14  15
ATOM     15  C   UNL     1      -3.023  -1.008  -1.839  0.00  0.00    +0.037 A 
ATOM     16  C   UNL     1      -3.571  -1.338  -3.157  0.00  0.00    +0.013 A 
ATOM     17  C   UNL     1      -3.293  -0.491  -4.290  0.00  0.00    +0.005 A 
ATOM     18  C   UNL     1      -2.462   0.697  -4.108  0.00  0.00    -0.033 A 
ATOM     28  C   UNL     1      -1.935   1.004  -2.789  0.00  0.00    +0.005 A 
ATOM     29  C   UNL     1      -2.205   0.175  -1.677  0.00  0.00    +0.013 A 
BRANCH  18  19
ATOM     19  C   UNL     1      -2.096   1.646  -5.265  0.00  0.00    +0.119 C 
BRANCH  19  20
ATOM     20  N   UNL     1      -1.121   2.739  -4.970  0.00  0.00    -0.302 NA
ATOM     21  C   UNL     1      -1.808   4.100  -4.835  0.00  0.00    +0.066 C 
ATOM     22  C   UNL     1      -0.777   5.228  -4.505  0.00  0.00    -0.064 C 
ATOM     23  N   UNL     1       0.297   5.268  -5.594  0.00  0.00    +0.379 N 
ATOM     24  C   UNL     1       1.235   6.365  -5.317  0.00  0.00    -0.096 C 
ATOM     25  H   UNL     1      -0.211   5.493  -6.561  0.00  0.00    -0.082 HD
ATOM     26  C   UNL     1       0.983   3.917  -5.736  0.00  0.00    -0.064 C 
ATOM     27  C   UNL     1      -0.054   2.799  -6.035  0.00  0.00    +0.066 C 
ENDBRANCH  19  20
ENDBRANCH  18  19
ENDBRANCH  14  15
ENDBRANCH  12  13
TORSDOF 6
ENDMDL
MODEL 2
REMARK VINA RESULT:     -11.4      3.754     11.201
REMARK  Name = C:\Users\Docking\Desktop\test protocol\1iep_ligandH.pdb
REMARK  8 active torsions:
REMARK  status: ('A' for Active; 'I' for Inactive)
REMARK    1  A    between atoms: _5  and  _11
REMARK    2  A    between atoms: _19  and  _21
REMARK    3  A    between atoms: _22  and  _66
REMARK    4  A    between atoms: _27  and  _30
REMARK    5  A    between atoms: _32  and  _33
REMARK    6  A    between atoms: _38  and  _43
REMARK    7  A    between atoms: _43  and  _46
REMARK    8  A    between atoms: _53  and  _55
REMARK                            x       y       z     vdW  Elec       q    Type
REMARK                         _______ _______ _______ _____ _____    ______ ____
ROOT
ATOM     10  C   UNL     1      -3.151   1.711  -2.560  0.00  0.00    +0.038 A 
ATOM     11  C   UNL     1      -3.587   0.724  -1.639  0.00  0.00    +0.047 A 
ATOM     12  C   UNL     1      -3.743  -0.665  -2.041  0.00  0.00    +0.035 A 
ATOM     32  C   UNL     1      -3.443  -1.015  -3.390  0.00  0.00    +0.024 A 
ATOM     33  C   UNL     1      -3.000  -0.025  -4.340  0.00  0.00    +0.007 A 
ATOM     34  C   UNL     1      -2.847   1.347  -3.949  0.00  0.00    -0.029 A 
ATOM     35  C   UNL     1      -2.374   2.367  -5.012  0.00  0.00    +0.045 C 
ENDROOT
BRANCH  10   9
ATOM      4  C   UNL     1      -4.581   5.455   0.081  0.00  0.00    +0.077 A 
ATOM      5  C   UNL     1      -5.702   4.731   0.607  0.00  0.00    +0.048 A 
ATOM      6  C   UNL     1      -5.879   3.400   0.168  0.00  0.00    +0.116 A 
ATOM      7  N   UNL     1      -4.995   2.844  -0.731  0.00  0.00    -0.223 NA
ATOM      8  C   UNL     1      -3.925   3.571  -1.221  0.00  0.00    +0.220 A 
ATOM      9  N   UNL     1      -3.019   3.029  -2.120  0.00  0.00    -0.283 N 
ATOM     36  H   UNL     1      -2.247   3.600  -2.463  0.00  0.00    +0.155 HD
ATOM     37  N   UNL     1      -3.735   4.844  -0.818  0.00  0.00    -0.214 NA
BRANCH   4   3
ATOM      1  C   UNL     1      -4.755   9.038   1.640  0.00  0.00    +0.020 A 
ATOM      2  C   UNL     1      -5.113   7.677   1.312  0.00  0.00    +0.013 A 
ATOM      3  C   UNL     1      -4.258   6.869   0.452  0.00  0.00    +0.019 A 
ATOM     38  C   UNL     1      -3.038   7.472  -0.063  0.00  0.00    +0.120 A 
ATOM     39  N   UNL     1      -2.720   8.785   0.269  0.00  0.00    -0.263 NA
ATOM     40  C   UNL     1      -3.536   9.573   1.095  0.00  0.00    +0.111 A 
ENDBRANCH   4   3
ENDBRANCH  10   9
BRANCH  12  13
ATOM     13  N   UNL     1      -4.190  -1.708  -1.152  0.00  0.00    -0.281 N 
ATOM     14  C   UNL     1      -3.514  -2.255  -0.074  0.00  0.00    +0.248 C 
ATOM     30  O   UNL     1      -2.329  -2.077   0.162  0.00  0.00    -0.270 OA
ATOM     31  H   UNL     1      -5.117  -2.090  -1.341  0.00  0.00    +0.155 HD
BRANCH  14  15
ATOM     15  C   UNL     1      -4.260  -3.140   0.872  0.00  0.00    +0.037 A 
ATOM     16  C   UNL     1      -4.955  -4.341   0.401  0.00  0.00    +0.013 A 
ATOM     17  C   UNL     1      -5.682  -5.168   1.332  0.00  0.00    +0.005 A 
ATOM     18  C   UNL     1      -5.716  -4.797   2.745  0.00  0.00    -0.033 A 
ATOM     28  C   UNL     1      -5.013  -3.603   3.185  0.00  0.00    +0.005 A 
ATOM     29  C   UNL     1      -4.301  -2.789   2.276  0.00  0.00    +0.013 A 
BRANCH  18  19
ATOM     19  C   UNL     1      -6.483  -5.608   3.805  0.00  0.00    +0.119 C 
BRANCH  19  20
ATOM     20  N   UNL     1      -7.599  -4.918   4.519  0.00  0.00    -0.302 NA
ATOM     21  C   UNL     1      -8.007  -3.616   3.824  0.00  0.00    +0.066 C 
ATOM     22  C   UNL     1      -9.190  -2.919   4.572  0.00  0.00    -0.064 C 
ATOM     23  N   UNL     1      -8.786  -2.654   6.024  0.00  0.00    +0.379 N 
ATOM     24  C   UNL     1      -9.875  -1.947   6.714  0.00  0.00    -0.096 C 
ATOM     25  H   UNL     1      -7.899  -1.980   6.011  0.00  0.00    -0.082 HD
ATOM     26  C   UNL     1      -8.376  -3.944   6.721  0.00  0.00    -0.064 C 
ATOM     27  C   UNL     1      -7.220  -4.644   5.954  0.00  0.00    +0.066 C 
ENDBRANCH  19  20
ENDBRANCH  18  19
ENDBRANCH  14  15
ENDBRANCH  12  13
TORSDOF 6
ENDMDL
MODEL 3
REMARK VINA RESULT:     -11.3      2.177     12.466
REMARK  Name = C:\Users\Docking\Desktop\test protocol\1iep_ligandH.pdb
REMARK  8 active torsions:
REMARK  status: ('A' for Active; 'I' for Inactive)
REMARK    1  A    between atoms: _5  and  _11
REMARK    2  A    between atoms: _19  and  _21
REMARK    3  A    between atoms: _22  and  _66
REMARK    4  A    between atoms: _27  and  _30
REMARK    5  A    between atoms: _32  and  _33
REMARK    6  A    between atoms: _38  and  _43
REMARK    7  A    between atoms: _43  and  _46
REMARK    8  A    between atoms: _53  and  _55
REMARK                            x       y       z     vdW  Elec       q    Type
REMARK                         _______ _______ _______ _____ _____    ______ ____
ROOT
ATOM     10  C   UNL     1      -2.089   1.195  -3.419  0.00  0.00    +0.038 A 
ATOM     11  C   UNL     1      -2.614   0.453  -2.331  0.00  0.00    +0.047 A 
ATOM     12  C   UNL     1      -3.326  -0.797  -2.546  0.00  0.00    +0.035 A 
ATOM     32  C   UNL     1      -3.481  -1.264  -3.884  0.00  0.00    +0.024 A 
ATOM     33  C   UNL     1      -2.954  -0.522  -5.002  0.00  0.00    +0.007 A 
ATOM     34  C   UNL     1      -2.254   0.714  -4.796  0.00  0.00    -0.029 A 
ATOM     35  C   UNL     1      -1.716   1.471  -6.032  0.00  0.00    +0.045 C 
ENDROOT
BRANCH  10   9
ATOM      4  C   UNL     1      -1.960   5.972  -2.962  0.00  0.00    +0.077 A 
ATOM      5  C   UNL     1      -3.347   6.101  -3.306  0.00  0.00    +0.048 A 
ATOM      6  C   UNL     1      -4.056   4.915  -3.600  0.00  0.00    +0.116 A 
ATOM      7  N   UNL     1      -3.416   3.696  -3.551  0.00  0.00    -0.223 NA
ATOM      8  C   UNL     1      -2.077   3.606  -3.218  0.00  0.00    +0.220 A 
ATOM      9  N   UNL     1      -1.415   2.390  -3.154  0.00  0.00    -0.283 N 
ATOM     36  H   UNL     1      -0.425   2.366  -2.911  0.00  0.00    +0.155 HD
ATOM     37  N   UNL     1      -1.377   4.724  -2.934  0.00  0.00    -0.214 NA
BRANCH   4   3
ATOM      1  C   UNL     1       1.132   8.348  -2.662  0.00  0.00    +0.020 A 
ATOM      2  C   UNL     1       0.324   7.204  -3.015  0.00  0.00    +0.013 A 
ATOM      3  C   UNL     1      -1.078   7.132  -2.622  0.00  0.00    +0.019 A 
ATOM     38  C   UNL     1      -1.635   8.244  -1.866  0.00  0.00    +0.120 A 
ATOM     39  N   UNL     1      -0.832   9.332  -1.539  0.00  0.00    -0.263 NA
ATOM     40  C   UNL     1       0.519   9.411  -1.911  0.00  0.00    +0.111 A 
ENDBRANCH   4   3
ENDBRANCH  10   9
BRANCH  12  13
ATOM     13  N   UNL     1      -3.888  -1.590  -1.481  0.00  0.00    -0.281 N 
ATOM     14  C   UNL     1      -3.230  -2.150  -0.398  0.00  0.00    +0.248 C 
ATOM     30  O   UNL     1      -2.016  -2.234  -0.295  0.00  0.00    -0.270 OA
ATOM     31  H   UNL     1      -4.893  -1.759  -1.532  0.00  0.00    +0.155 HD
BRANCH  14  15
ATOM     15  C   UNL     1      -4.039  -2.712   0.726  0.00  0.00    +0.037 A 
ATOM     16  C   UNL     1      -3.612  -2.561   2.119  0.00  0.00    +0.013 A 
ATOM     17  C   UNL     1      -4.402  -3.127   3.184  0.00  0.00    +0.005 A 
ATOM     18  C   UNL     1      -5.630  -3.848   2.858  0.00  0.00    -0.033 A 
ATOM     28  C   UNL     1      -6.034  -3.978   1.468  0.00  0.00    +0.005 A 
ATOM     29  C   UNL     1      -5.261  -3.426   0.422  0.00  0.00    +0.013 A 
BRANCH  18  19
ATOM     19  C   UNL     1      -6.524  -4.503   3.928  0.00  0.00    +0.119 C 
BRANCH  19  20
ATOM     20  N   UNL     1      -7.914  -3.976   4.073  0.00  0.00    -0.302 NA
ATOM     21  C   UNL     1      -8.034  -2.529   3.587  0.00  0.00    +0.066 C 
ATOM     22  C   UNL     1      -9.499  -2.002   3.725  0.00  0.00    -0.064 C 
ATOM     23  N   UNL     1      -9.947  -2.122   5.183  0.00  0.00    +0.379 N 
ATOM     24  C   UNL     1     -11.303  -1.574   5.327  0.00  0.00    -0.096 C 
ATOM     25  H   UNL     1      -9.261  -1.496   5.800  0.00  0.00    -0.082 HD
ATOM     26  C   UNL     1      -9.828  -3.558   5.675  0.00  0.00    -0.064 C 
ATOM     27  C   UNL     1      -8.375  -4.082   5.506  0.00  0.00    +0.066 C 
ENDBRANCH  19  20
ENDBRANCH  18  19
ENDBRANCH  14  15
ENDBRANCH  12  13
TORSDOF 6
ENDMDL
MODEL 4
REMARK VINA RESULT:     -11.2      1.777      2.108
REMARK  Name = C:\Users\Docking\Desktop\test protocol\1iep_ligandH.pdb
REMARK  8 active torsions:
REMARK  status: ('A' for Active; 'I' for Inactive)
REMARK    1  A    between atoms: _5  and  _11
REMARK    2  A    between atoms: _19  and  _21
REMARK    3  A    between atoms: _22  and  _66
REMARK    4  A    between atoms: _27  and  _30
REMARK    5  A    between atoms: _32  and  _33
REMARK    6  A    between atoms: _38  and  _43
REMARK    7  A    between atoms: _43  and  _46
REMARK    8  A    between atoms: _53  and  _55
REMARK                            x       y       z     vdW  Elec       q    Type
REMARK                         _______ _______ _______ _____ _____    ______ ____
ROOT
ATOM     10  C   UNL     1      -5.765  -3.627   2.388  0.00  0.00    +0.038 A 
ATOM     11  C   UNL     1      -5.293  -2.587   1.547  0.00  0.00    +0.047 A 
ATOM     12  C   UNL     1      -4.575  -2.881   0.316  0.00  0.00    +0.035 A 
ATOM     32  C   UNL     1      -4.358  -4.246  -0.029  0.00  0.00    +0.024 A 
ATOM     33  C   UNL     1      -4.831  -5.316   0.814  0.00  0.00    +0.007 A 
ATOM     34  C   UNL     1      -5.537  -5.032   2.030  0.00  0.00    -0.029 A 
ATOM     35  C   UNL     1      -6.014  -6.219   2.899  0.00  0.00    +0.045 C 
ENDROOT
BRANCH  10   9
ATOM      4  C   UNL     1      -9.809  -2.944   4.881  0.00  0.00    +0.077 A 
ATOM      5  C   UNL     1     -10.631  -3.264   3.750  0.00  0.00    +0.048 A 
ATOM      6  C   UNL     1      -9.974  -3.593   2.543  0.00  0.00    +0.116 A 
ATOM      7  N   UNL     1      -8.597  -3.597   2.483  0.00  0.00    -0.223 NA
ATOM      8  C   UNL     1      -7.834  -3.282   3.593  0.00  0.00    +0.220 A 
ATOM      9  N   UNL     1      -6.448  -3.288   3.558  0.00  0.00    -0.283 N 
ATOM     36  H   UNL     1      -5.922  -3.041   4.395  0.00  0.00    +0.155 HD
ATOM     37  N   UNL     1      -8.438  -2.963   4.756  0.00  0.00    -0.214 NA
BRANCH   4   3
ATOM      1  C   UNL     1     -11.407  -0.959   7.849  0.00  0.00    +0.020 A 
ATOM      2  C   UNL     1     -10.891  -1.260   6.533  0.00  0.00    +0.013 A 
ATOM      3  C   UNL     1     -10.355  -2.580   6.227  0.00  0.00    +0.019 A 
ATOM     38  C   UNL     1     -10.356  -3.582   7.282  0.00  0.00    +0.120 A 
ATOM     39  N   UNL     1     -10.859  -3.264   8.540  0.00  0.00    -0.263 NA
ATOM     40  C   UNL     1     -11.375  -1.996   8.847  0.00  0.00    +0.111 A 
ENDBRANCH   4   3
ENDBRANCH  10   9
BRANCH  12  13
ATOM     13  N   UNL     1      -4.065  -1.866  -0.572  0.00  0.00    -0.281 N 
ATOM     14  C   UNL     1      -4.710  -0.725  -1.021  0.00  0.00    +0.248 C 
ATOM     30  O   UNL     1      -5.906  -0.511  -0.893  0.00  0.00    -0.270 OA
ATOM     31  H   UNL     1      -3.114  -2.007  -0.912  0.00  0.00    +0.155 HD
BRANCH  14  15
ATOM     15  C   UNL     1      -3.912   0.325  -1.725  0.00  0.00    +0.037 A 
ATOM     16  C   UNL     1      -2.505   0.107  -2.069  0.00  0.00    +0.013 A 
ATOM     17  C   UNL     1      -1.754   1.143  -2.733  0.00  0.00    +0.005 A 
ATOM     18  C   UNL     1      -2.410   2.406  -3.059  0.00  0.00    -0.033 A 
ATOM     28  C   UNL     1      -3.809   2.594  -2.712  0.00  0.00    +0.005 A 
ATOM     29  C   UNL     1      -4.548   1.581  -2.060  0.00  0.00    +0.013 A 
BRANCH  18  19
ATOM     19  C   UNL     1      -1.680   3.575  -3.748  0.00  0.00    +0.119 C 
BRANCH  19  20
ATOM     20  N   UNL     1      -1.594   4.864  -3.000  0.00  0.00    -0.302 NA
ATOM     21  C   UNL     1      -2.529   5.929  -3.580  0.00  0.00    +0.066 C 
ATOM     22  C   UNL     1      -2.442   7.264  -2.770  0.00  0.00    -0.064 C 
ATOM     23  N   UNL     1      -0.995   7.759  -2.763  0.00  0.00    +0.379 N 
ATOM     24  C   UNL     1      -0.920   9.044  -2.052  0.00  0.00    -0.096 C 
ATOM     25  H   UNL     1      -0.694   7.940  -3.821  0.00  0.00    -0.082 HD
ATOM     26  C   UNL     1      -0.058   6.705  -2.190  0.00  0.00    -0.064 C 
ATOM     27  C   UNL     1      -0.174   5.373  -2.983  0.00  0.00    +0.066 C 
ENDBRANCH  19  20
ENDBRANCH  18  19
ENDBRANCH  14  15
ENDBRANCH  12  13
TORSDOF 6
ENDMDL
MODEL 5
REMARK VINA RESULT:     -11.0      2.256     12.983
REMARK  Name = C:\Users\Docking\Desktop\test protocol\1iep_ligandH.pdb
REMARK  8 active torsions:
REMARK  status: ('A' for Active; 'I' for Inactive)
REMARK    1  A    between atoms: _5  and  _11
REMARK    2  A    between atoms: _19  and  _21
REMARK    3  A    between atoms: _22  and  _66
REMARK    4  A    between atoms: _27  and  _30
REMARK    5  A    between atoms: _32  and  _33
REMARK    6  A    between atoms: _38  and  _43
REMARK    7  A    between atoms: _43  and  _46
REMARK    8  A    between atoms: _53  and  _55
REMARK                            x       y       z     vdW  Elec       q    Type
REMARK                         _______ _______ _______ _____ _____    ______ ____
ROOT
ATOM     10  C   UNL     1      -1.401   1.642  -3.621  0.00  0.00    +0.038 A 
ATOM     11  C   UNL     1      -1.932   0.919  -2.522  0.00  0.00    +0.047 A 
ATOM     12  C   UNL     1      -2.824  -0.212  -2.726  0.00  0.00    +0.035 A 
ATOM     32  C   UNL     1      -3.152  -0.581  -4.063  0.00  0.00    +0.024 A 
ATOM     33  C   UNL     1      -2.623   0.143  -5.191  0.00  0.00    +0.007 A 
ATOM     34  C   UNL     1      -1.744   1.261  -4.997  0.00  0.00    -0.029 A 
ATOM     35  C   UNL     1      -1.212   2.006  -6.243  0.00  0.00    +0.045 C 
ENDROOT
BRANCH  10   9
ATOM      4  C   UNL     1      -0.572   6.330  -3.015  0.00  0.00    +0.077 A 
ATOM      5  C   UNL     1      -1.947   6.664  -3.249  0.00  0.00    +0.048 A 
ATOM      6  C   UNL     1      -2.835   5.601  -3.529  0.00  0.00    +0.116 A 
ATOM      7  N   UNL     1      -2.370   4.304  -3.569  0.00  0.00    -0.223 NA
ATOM      8  C   UNL     1      -1.037   4.017  -3.340  0.00  0.00    +0.220 A 
ATOM      9  N   UNL     1      -0.549   2.719  -3.368  0.00  0.00    -0.283 N 
ATOM     36  H   UNL     1       0.442   2.550  -3.201  0.00  0.00    +0.155 HD
ATOM     37  N   UNL     1      -0.169   5.015  -3.072  0.00  0.00    -0.214 NA
BRANCH   4   3
ATOM      1  C   UNL     1       1.672   8.928  -1.140  0.00  0.00    +0.020 A 
ATOM      2  C   UNL     1       0.633   7.956  -1.389  0.00  0.00    +0.013 A 
ATOM      3  C   UNL     1       0.486   7.343  -2.703  0.00  0.00    +0.019 A 
ATOM     38  C   UNL     1       1.414   7.738  -3.751  0.00  0.00    +0.120 A 
ATOM     39  N   UNL     1       2.404   8.678  -3.482  0.00  0.00    -0.263 NA
ATOM     40  C   UNL     1       2.554   9.276  -2.222  0.00  0.00    +0.111 A 
ENDBRANCH   4   3
ENDBRANCH  10   9
BRANCH  12  13
ATOM     13  N   UNL     1      -3.399  -0.979  -1.649  0.00  0.00    -0.281 N 
ATOM     14  C   UNL     1      -4.636  -0.809  -1.050  0.00  0.00    +0.248 C 
ATOM     30  O   UNL     1      -5.352   0.169  -1.206  0.00  0.00    -0.270 OA
ATOM     31  H   UNL     1      -2.825  -1.740  -1.285  0.00  0.00    +0.155 HD
BRANCH  14  15
ATOM     15  C   UNL     1      -5.146  -1.873  -0.132  0.00  0.00    +0.037 A 
ATOM     16  C   UNL     1      -6.490  -2.435  -0.292  0.00  0.00    +0.013 A 
ATOM     17  C   UNL     1      -6.963  -3.448   0.618  0.00  0.00    +0.005 A 
ATOM     18  C   UNL     1      -6.090  -3.907   1.695  0.00  0.00    -0.033 A 
ATOM     28  C   UNL     1      -4.760  -3.337   1.828  0.00  0.00    +0.005 A 
ATOM     29  C   UNL     1      -4.293  -2.343   0.939  0.00  0.00    +0.013 A 
BRANCH  18  19
ATOM     19  C   UNL     1      -6.520  -4.970   2.725  0.00  0.00    +0.119 C 
BRANCH  19  20
ATOM     20  N   UNL     1      -7.514  -4.556   3.760  0.00  0.00    -0.302 NA
ATOM     21  C   UNL     1      -7.913  -3.085   3.617  0.00  0.00    +0.066 C 
ATOM     22  C   UNL     1      -8.970  -2.675   4.693  0.00  0.00    -0.064 C 
ATOM     23  N   UNL     1      -8.406  -2.950   6.088  0.00  0.00    +0.379 N 
ATOM     24  C   UNL     1      -9.375  -2.512   7.104  0.00  0.00    -0.096 C 
ATOM     25  H   UNL     1      -7.486  -2.332   6.209  0.00  0.00    -0.082 HD
ATOM     26  C   UNL     1      -8.004  -4.410   6.238  0.00  0.00    -0.064 C 
ATOM     27  C   UNL     1      -6.975  -4.815   5.146  0.00  0.00    +0.066 C 
ENDBRANCH  19  20
ENDBRANCH  18  19
ENDBRANCH  14  15
ENDBRANCH  12  13
TORSDOF 6
ENDMDL
