MODEL 1
REMARK VINA RESULT:      -8.3      0.000      0.000
REMARK  Name = C:\Users\Docking\Desktop\test protocol\1iep_ligandH.pdb
REMARK  8 active torsions:
REMARK  status: ('A' for Active; 'I' for Inactive)
REMARK    1  A    between atoms: _5  and  _11
REMARK    2  A    between atoms: _19  and  _21
REMARK    3  A    between atoms: _22  and  _66
REMARK    4  A    between atoms: _27  and  _30
REMARK    5  A    between atoms: _32  and  _33
REMARK    6  A    between atoms: _38  and  _43
REMARK    7  A    between atoms: _43  and  _46
REMARK    8  A    between atoms: _53  and  _55
REMARK                            x       y       z     vdW  Elec       q    Type
REMARK                         _______ _______ _______ _____ _____    ______ ____
ROOT
ATOM     10  C   UNL     1      47.216   0.244  36.451  0.00  0.00    +0.038 A 
ATOM     11  C   UNL     1      48.595   0.319  36.774  0.00  0.00    +0.047 A 
ATOM     12  C   UNL     1      49.543  -0.654  36.254  0.00  0.00    +0.035 A 
ATOM     32  C   UNL     1      49.053  -1.689  35.406  0.00  0.00    +0.024 A 
ATOM     33  C   UNL     1      47.654  -1.780  35.068  0.00  0.00    +0.007 A 
ATOM     34  C   UNL     1      46.714  -0.825  35.579  0.00  0.00    -0.029 A 
ATOM     35  C   UNL     1      45.225  -0.975  35.190  0.00  0.00    +0.045 C 
ENDROOT
BRANCH  10   9
ATOM      4  C   UNL     1      44.565   2.050  40.021  0.00  0.00    +0.077 A 
ATOM      5  C   UNL     1      44.914   0.974  40.904  0.00  0.00    +0.048 A 
ATOM      6  C   UNL     1      45.773  -0.027  40.398  0.00  0.00    +0.116 A 
ATOM      7  N   UNL     1      46.241   0.051  39.104  0.00  0.00    -0.223 NA
ATOM      8  C   UNL     1      45.884   1.102  38.279  0.00  0.00    +0.220 A 
ATOM      9  N   UNL     1      46.350   1.205  36.977  0.00  0.00    -0.283 N 
ATOM     36  H   UNL     1      46.057   1.992  36.398  0.00  0.00    +0.155 HD
ATOM     37  N   UNL     1      45.065   2.070  38.738  0.00  0.00    -0.214 NA
BRANCH   4   3
ATOM      1  C   UNL     1      42.069   5.058  39.869  0.00  0.00    +0.020 A 
ATOM      2  C   UNL     1      42.919   3.971  39.440  0.00  0.00    +0.013 A 
ATOM      3  C   UNL     1      43.671   3.186  40.411  0.00  0.00    +0.019 A 
ATOM     38  C   UNL     1      43.538   3.528  41.819  0.00  0.00    +0.120 A 
ATOM     39  N   UNL     1      42.713   4.580  42.202  0.00  0.00    -0.263 NA
ATOM     40  C   UNL     1      41.986   5.344  41.277  0.00  0.00    +0.111 A 
ENDBRANCH   4   3
ENDBRANCH  10   9
BRANCH  12  13
ATOM     13  N   UNL     1      50.954  -0.634  36.554  0.00  0.00    -0.281 N 
ATOM     14  C   UNL     1      51.681  -1.555  37.290  0.00  0.00    +0.248 C 
ATOM     30  O   UNL     1      51.186  -2.429  37.986  0.00  0.00    -0.270 OA
ATOM     31  H   UNL     1      51.479   0.155  36.178  0.00  0.00    +0.155 HD
BRANCH  14  15
ATOM     15  C   UNL     1      53.174  -1.485  37.260  0.00  0.00    +0.037 A 
ATOM     16  C   UNL     1      53.875  -0.584  36.342  0.00  0.00    +0.013 A 
ATOM     17  C   UNL     1      55.316  -0.550  36.322  0.00  0.00    +0.005 A 
ATOM     18  C   UNL     1      56.066  -1.419  37.225  0.00  0.00    -0.033 A 
ATOM     28  C   UNL     1      55.345  -2.299  38.130  0.00  0.00    +0.005 A 
ATOM     29  C   UNL     1      53.933  -2.337  38.152  0.00  0.00    +0.013 A 
BRANCH  18  19
ATOM     19  C   UNL     1      57.605  -1.464  37.257  0.00  0.00    +0.119 C 
BRANCH  19  20
ATOM     20  N   UNL     1      58.242  -2.690  37.823  0.00  0.00    -0.302 NA
ATOM     21  C   UNL     1      58.837  -2.439  39.212  0.00  0.00    +0.066 C 
ATOM     22  C   UNL     1      59.480  -3.738  39.799  0.00  0.00    -0.064 C 
ATOM     23  N   UNL     1      60.550  -4.254  38.835  0.00  0.00    +0.379 N 
ATOM     24  C   UNL     1      61.196  -5.443  39.412  0.00  0.00    -0.096 C 
ATOM     25  H   UNL     1      61.327  -3.461  38.737  0.00  0.00    -0.082 HD
ATOM     26  C   UNL     1      59.967  -4.504  37.452  0.00  0.00    -0.064 C 
ATOM     27  C   UNL     1      59.305  -3.215  36.890  0.00  0.00    +0.066 C 
ENDBRANCH  19  20
ENDBRANCH  18  19
ENDBRANCH  14  15
ENDBRANCH  12  13
TORSDOF 6
ENDMDL
MODEL 2
REMARK VINA RESULT:      -8.3      1.289      1.858
REMARK  Name = C:\Users\Docking\Desktop\test protocol\1iep_ligandH.pdb
REMARK  8 active torsions:
REMARK  status: ('A' for Active; 'I' for Inactive)
REMARK    1  A    between atoms: _5  and  _11
REMARK    2  A    between atoms: _19  and  _21
REMARK    3  A    between atoms: _22  and  _66
REMARK    4  A    between atoms: _27  and  _30
REMARK    5  A    between atoms: _32  and  _33
REMARK    6  A    between atoms: _38  and  _43
REMARK    7  A    between atoms: _43  and  _46
REMARK    8  A    between atoms: _53  and  _55
REMARK                            x       y       z     vdW  Elec       q    Type
REMARK                         _______ _______ _______ _____ _____    ______ ____
ROOT
ATOM     10  C   UNL     1      46.411  -0.066  37.201  0.00  0.00    +0.038 A 
ATOM     11  C   UNL     1      47.807  -0.003  37.441  0.00  0.00    +0.047 A 
ATOM     12  C   UNL     1      48.757  -0.611  36.522  0.00  0.00    +0.035 A 
ATOM     32  C   UNL     1      48.249  -1.272  35.366  0.00  0.00    +0.024 A 
ATOM     33  C   UNL     1      46.832  -1.347  35.107  0.00  0.00    +0.007 A 
ATOM     34  C   UNL     1      45.891  -0.751  36.012  0.00  0.00    -0.029 A 
ATOM     35  C   UNL     1      44.383  -0.867  35.687  0.00  0.00    +0.045 C 
ENDROOT
BRANCH  10   9
ATOM      4  C   UNL     1      43.611   3.563  38.626  0.00  0.00    +0.077 A 
ATOM      5  C   UNL     1      43.921   4.338  37.459  0.00  0.00    +0.048 A 
ATOM      6  C   UNL     1      44.811   3.770  36.520  0.00  0.00    +0.116 A 
ATOM      7  N   UNL     1      45.345   2.519  36.742  0.00  0.00    -0.223 NA
ATOM      8  C   UNL     1      45.026   1.799  37.878  0.00  0.00    +0.220 A 
ATOM      9  N   UNL     1      45.544   0.535  38.117  0.00  0.00    -0.283 N 
ATOM     36  H   UNL     1      45.290   0.039  38.971  0.00  0.00    +0.155 HD
ATOM     37  N   UNL     1      44.179   2.320  38.790  0.00  0.00    -0.214 NA
BRANCH   4   3
ATOM      1  C   UNL     1      42.034   4.298  42.129  0.00  0.00    +0.020 A 
ATOM      2  C   UNL     1      42.962   3.832  41.125  0.00  0.00    +0.013 A 
ATOM      3  C   UNL     1      42.684   4.025  39.707  0.00  0.00    +0.019 A 
ATOM     38  C   UNL     1      41.449   4.700  39.336  0.00  0.00    +0.120 A 
ATOM     39  N   UNL     1      40.574   5.137  40.326  0.00  0.00    -0.263 NA
ATOM     40  C   UNL     1      40.830   4.955  41.693  0.00  0.00    +0.111 A 
ENDBRANCH   4   3
ENDBRANCH  10   9
BRANCH  12  13
ATOM     13  N   UNL     1      50.185  -0.586  36.717  0.00  0.00    -0.281 N 
ATOM     14  C   UNL     1      50.987  -1.575  37.262  0.00  0.00    +0.248 C 
ATOM     30  O   UNL     1      50.567  -2.552  37.864  0.00  0.00    -0.270 OA
ATOM     31  H   UNL     1      50.663   0.264  36.417  0.00  0.00    +0.155 HD
BRANCH  14  15
ATOM     15  C   UNL     1      52.471  -1.454  37.132  0.00  0.00    +0.037 A 
ATOM     16  C   UNL     1      53.078  -0.624  36.088  0.00  0.00    +0.013 A 
ATOM     17  C   UNL     1      54.512  -0.538  35.975  0.00  0.00    +0.005 A 
ATOM     18  C   UNL     1      55.351  -1.284  36.910  0.00  0.00    -0.033 A 
ATOM     28  C   UNL     1      54.723  -2.096  37.940  0.00  0.00    +0.005 A 
ATOM     29  C   UNL     1      53.317  -2.183  38.053  0.00  0.00    +0.013 A 
BRANCH  18  19
ATOM     19  C   UNL     1      56.890  -1.268  36.850  0.00  0.00    +0.119 C 
BRANCH  19  20
ATOM     20  N   UNL     1      57.616  -2.301  37.648  0.00  0.00    -0.302 NA
ATOM     21  C   UNL     1      58.179  -1.728  38.951  0.00  0.00    +0.066 C 
ATOM     22  C   UNL     1      58.916  -2.827  39.784  0.00  0.00    -0.064 C 
ATOM     23  N   UNL     1      60.031  -3.443  38.937  0.00  0.00    +0.379 N 
ATOM     24  C   UNL     1      60.763  -4.436  39.737  0.00  0.00    -0.096 C 
ATOM     25  H   UNL     1      60.745  -2.628  38.673  0.00  0.00    -0.082 HD
ATOM     26  C   UNL     1      59.480  -4.013  37.637  0.00  0.00    -0.064 C 
ATOM     27  C   UNL     1      58.724  -2.920  36.832  0.00  0.00    +0.066 C 
ENDBRANCH  19  20
ENDBRANCH  18  19
ENDBRANCH  14  15
ENDBRANCH  12  13
TORSDOF 6
ENDMDL
MODEL 3
REMARK VINA RESULT:      -8.3      4.672     12.306
REMARK  Name = C:\Users\Docking\Desktop\test protocol\1iep_ligandH.pdb
REMARK  8 active torsions:
REMARK  status: ('A' for Active; 'I' for Inactive)
REMARK    1  A    between atoms: _5  and  _11
REMARK    2  A    between atoms: _19  and  _21
REMARK    3  A    between atoms: _22  and  _66
REMARK    4  A    between atoms: _27  and  _30
REMARK    5  A    between atoms: _32  and  _33
REMARK    6  A    between atoms: _38  and  _43
REMARK    7  A    between atoms: _43  and  _46
REMARK    8  A    between atoms: _53  and  _55
REMARK                            x       y       z     vdW  Elec       q    Type
REMARK                         _______ _______ _______ _____ _____    ______ ____
ROOT
ATOM     10  C   UNL     1      56.127  -0.332  39.604  0.00  0.00    +0.038 A 
ATOM     11  C   UNL     1      54.811  -0.117  39.120  0.00  0.00    +0.047 A 
ATOM     12  C   UNL     1      54.223  -0.997  38.122  0.00  0.00    +0.035 A 
ATOM     32  C   UNL     1      55.004  -2.088  37.640  0.00  0.00    +0.024 A 
ATOM     33  C   UNL     1      56.343  -2.321  38.120  0.00  0.00    +0.007 A 
ATOM     34  C   UNL     1      56.929  -1.455  39.102  0.00  0.00    -0.029 A 
ATOM     35  C   UNL     1      58.372  -1.748  39.576  0.00  0.00    +0.045 C 
ENDROOT
BRANCH  10   9
ATOM      4  C   UNL     1      58.151   3.827  40.884  0.00  0.00    +0.077 A 
ATOM      5  C   UNL     1      58.213   4.283  39.525  0.00  0.00    +0.048 A 
ATOM      6  C   UNL     1      57.721   3.414  38.526  0.00  0.00    +0.116 A 
ATOM      7  N   UNL     1      57.206   2.184  38.871  0.00  0.00    -0.223 NA
ATOM      8  C   UNL     1      57.162   1.774  40.191  0.00  0.00    +0.220 A 
ATOM      9  N   UNL     1      56.641   0.544  40.562  0.00  0.00    -0.283 N 
ATOM     36  H   UNL     1      56.634   0.275  41.546  0.00  0.00    +0.155 HD
ATOM     37  N   UNL     1      57.628   2.585  41.164  0.00  0.00    -0.214 NA
BRANCH   4   3
ATOM      1  C   UNL     1      60.302   5.171  43.862  0.00  0.00    +0.020 A 
ATOM      2  C   UNL     1      59.886   4.363  42.739  0.00  0.00    +0.013 A 
ATOM      3  C   UNL     1      58.629   4.633  42.052  0.00  0.00    +0.019 A 
ATOM     38  C   UNL     1      57.811   5.737  42.529  0.00  0.00    +0.120 A 
ATOM     39  N   UNL     1      58.236   6.498  43.614  0.00  0.00    -0.263 NA
ATOM     40  C   UNL     1      59.443   6.246  44.284  0.00  0.00    +0.111 A 
ENDBRANCH   4   3
ENDBRANCH  10   9
BRANCH  12  13
ATOM     13  N   UNL     1      52.895  -0.824  37.588  0.00  0.00    -0.281 N 
ATOM     14  C   UNL     1      51.787  -1.633  37.782  0.00  0.00    +0.248 C 
ATOM     30  O   UNL     1      51.825  -2.750  38.274  0.00  0.00    -0.270 OA
ATOM     31  H   UNL     1      52.755  -0.006  36.994  0.00  0.00    +0.155 HD
BRANCH  14  15
ATOM     15  C   UNL     1      50.445  -1.133  37.354  0.00  0.00    +0.037 A 
ATOM     16  C   UNL     1      49.984  -1.283  35.971  0.00  0.00    +0.013 A 
ATOM     17  C   UNL     1      48.692  -0.777  35.580  0.00  0.00    +0.005 A 
ATOM     18  C   UNL     1      47.851  -0.117  36.576  0.00  0.00    -0.033 A 
ATOM     28  C   UNL     1      48.331   0.013  37.942  0.00  0.00    +0.005 A 
ATOM     29  C   UNL     1      49.597  -0.480  38.328  0.00  0.00    +0.013 A 
BRANCH  18  19
ATOM     19  C   UNL     1      46.467   0.471  36.243  0.00  0.00    +0.119 C 
BRANCH  19  20
ATOM     20  N   UNL     1      45.650  -0.240  35.216  0.00  0.00    -0.302 NA
ATOM     21  C   UNL     1      45.812   0.377  33.824  0.00  0.00    +0.066 C 
ATOM     22  C   UNL     1      44.969  -0.394  32.757  0.00  0.00    -0.064 C 
ATOM     23  N   UNL     1      43.498  -0.398  33.180  0.00  0.00    +0.379 N 
ATOM     24  C   UNL     1      42.694  -1.072  32.150  0.00  0.00    -0.096 C 
ATOM     25  H   UNL     1      43.159   0.663  33.234  0.00  0.00    -0.082 HD
ATOM     26  C   UNL     1      43.328  -1.008  34.564  0.00  0.00    -0.064 C 
ATOM     27  C   UNL     1      44.194  -0.253  35.611  0.00  0.00    +0.066 C 
ENDBRANCH  19  20
ENDBRANCH  18  19
ENDBRANCH  14  15
ENDBRANCH  12  13
TORSDOF 6
ENDMDL
MODEL 4
REMARK VINA RESULT:      -8.3      2.207      3.131
REMARK  Name = C:\Users\Docking\Desktop\test protocol\1iep_ligandH.pdb
REMARK  8 active torsions:
REMARK  status: ('A' for Active; 'I' for Inactive)
REMARK    1  A    between atoms: _5  and  _11
REMARK    2  A    between atoms: _19  and  _21
REMARK    3  A    between atoms: _22  and  _66
REMARK    4  A    between atoms: _27  and  _30
REMARK    5  A    between atoms: _32  and  _33
REMARK    6  A    between atoms: _38  and  _43
REMARK    7  A    between atoms: _43  and  _46
REMARK    8  A    between atoms: _53  and  _55
REMARK                            x       y       z     vdW  Elec       q    Type
REMARK                         _______ _______ _______ _____ _____    ______ ____
ROOT
ATOM     10  C   UNL     1      46.054   0.262  37.222  0.00  0.00    +0.038 A 
ATOM     11  C   UNL     1      47.438   0.223  37.530  0.00  0.00    +0.047 A 
ATOM     12  C   UNL     1      48.399  -0.353  36.603  0.00  0.00    +0.035 A 
ATOM     32  C   UNL     1      47.916  -0.879  35.369  0.00  0.00    +0.024 A 
ATOM     33  C   UNL     1      46.513  -0.849  35.040  0.00  0.00    +0.007 A 
ATOM     34  C   UNL     1      45.559  -0.284  35.952  0.00  0.00    -0.029 A 
ATOM     35  C   UNL     1      44.066  -0.285  35.551  0.00  0.00    +0.045 C 
ENDROOT
BRANCH  10   9
ATOM      4  C   UNL     1      43.289   3.860  38.785  0.00  0.00    +0.077 A 
ATOM      5  C   UNL     1      43.646   4.695  37.674  0.00  0.00    +0.048 A 
ATOM      6  C   UNL     1      44.549   4.164  36.727  0.00  0.00    +0.116 A 
ATOM      7  N   UNL     1      45.052   2.891  36.888  0.00  0.00    -0.223 NA
ATOM      8  C   UNL     1      44.688   2.112  37.971  0.00  0.00    +0.220 A 
ATOM      9  N   UNL     1      45.175   0.827  38.149  0.00  0.00    -0.283 N 
ATOM     36  H   UNL     1      44.888   0.287  38.966  0.00  0.00    +0.155 HD
ATOM     37  N   UNL     1      43.828   2.598  38.891  0.00  0.00    -0.214 NA
BRANCH   4   3
ATOM      1  C   UNL     1      41.715   4.590  42.290  0.00  0.00    +0.020 A 
ATOM      2  C   UNL     1      42.664   4.171  41.285  0.00  0.00    +0.013 A 
ATOM      3  C   UNL     1      42.343   4.279  39.867  0.00  0.00    +0.019 A 
ATOM     38  C   UNL     1      41.043   4.819  39.498  0.00  0.00    +0.120 A 
ATOM     39  N   UNL     1      40.149   5.213  40.488  0.00  0.00    -0.263 NA
ATOM     40  C   UNL     1      40.446   5.113  41.856  0.00  0.00    +0.111 A 
ENDBRANCH   4   3
ENDBRANCH  10   9
BRANCH  12  13
ATOM     13  N   UNL     1      49.815  -0.427  36.864  0.00  0.00    -0.281 N 
ATOM     14  C   UNL     1      50.553  -1.534  37.251  0.00  0.00    +0.248 C 
ATOM     30  O   UNL     1      50.068  -2.586  37.640  0.00  0.00    -0.270 OA
ATOM     31  H   UNL     1      50.337   0.442  36.750  0.00  0.00    +0.155 HD
BRANCH  14  15
ATOM     15  C   UNL     1      52.045  -1.456  37.214  0.00  0.00    +0.037 A 
ATOM     16  C   UNL     1      52.740  -0.686  36.180  0.00  0.00    +0.013 A 
ATOM     17  C   UNL     1      54.181  -0.641  36.157  0.00  0.00    +0.005 A 
ATOM     18  C   UNL     1      54.936  -1.369  37.174  0.00  0.00    -0.033 A 
ATOM     28  C   UNL     1      54.221  -2.120  38.192  0.00  0.00    +0.005 A 
ATOM     29  C   UNL     1      52.809  -2.167  38.217  0.00  0.00    +0.013 A 
BRANCH  18  19
ATOM     19  C   UNL     1      56.476  -1.394  37.214  0.00  0.00    +0.119 C 
BRANCH  19  20
ATOM     20  N   UNL     1      57.146  -0.569  38.263  0.00  0.00    -0.302 NA
ATOM     21  C   UNL     1      57.206  -1.292  39.612  0.00  0.00    +0.066 C 
ATOM     22  C   UNL     1      57.931  -0.423  40.691  0.00  0.00    -0.064 C 
ATOM     23  N   UNL     1      57.211   0.920  40.828  0.00  0.00    +0.379 N 
ATOM     24  C   UNL     1      57.855   1.716  41.883  0.00  0.00    -0.096 C 
ATOM     25  H   UNL     1      56.165   0.711  41.152  0.00  0.00    -0.082 HD
ATOM     26  C   UNL     1      57.145   1.644  39.491  0.00  0.00    -0.064 C 
ATOM     27  C   UNL     1      56.449   0.760  38.418  0.00  0.00    +0.066 C 
ENDBRANCH  19  20
ENDBRANCH  18  19
ENDBRANCH  14  15
ENDBRANCH  12  13
TORSDOF 6
ENDMDL
MODEL 5
REMARK VINA RESULT:      -8.2      4.552     12.414
REMARK  Name = C:\Users\Docking\Desktop\test protocol\1iep_ligandH.pdb
REMARK  8 active torsions:
REMARK  status: ('A' for Active; 'I' for Inactive)
REMARK    1  A    between atoms: _5  and  _11
REMARK    2  A    between atoms: _19  and  _21
REMARK    3  A    between atoms: _22  and  _66
REMARK    4  A    between atoms: _27  and  _30
REMARK    5  A    between atoms: _32  and  _33
REMARK    6  A    between atoms: _38  and  _43
REMARK    7  A    between atoms: _43  and  _46
REMARK    8  A    between atoms: _53  and  _55
REMARK                            x       y       z     vdW  Elec       q    Type
REMARK                         _______ _______ _______ _____ _____    ______ ____
ROOT
ATOM     10  C   UNL     1      55.982  -0.273  39.557  0.00  0.00    +0.038 A 
ATOM     11  C   UNL     1      54.647  -0.035  39.141  0.00  0.00    +0.047 A 
ATOM     12  C   UNL     1      54.011  -0.875  38.138  0.00  0.00    +0.035 A 
ATOM     32  C   UNL     1      54.762  -1.950  37.582  0.00  0.00    +0.024 A 
ATOM     33  C   UNL     1      56.120  -2.206  37.992  0.00  0.00    +0.007 A 
ATOM     34  C   UNL     1      56.754  -1.380  38.979  0.00  0.00    -0.029 A 
ATOM     35  C   UNL     1      58.215  -1.697  39.377  0.00  0.00    +0.045 C 
ENDROOT
BRANCH  10   9
ATOM      4  C   UNL     1      58.187   3.779  40.881  0.00  0.00    +0.077 A 
ATOM      5  C   UNL     1      58.249   4.257  39.530  0.00  0.00    +0.048 A 
ATOM      6  C   UNL     1      57.708   3.426  38.522  0.00  0.00    +0.116 A 
ATOM      7  N   UNL     1      57.150   2.211  38.854  0.00  0.00    -0.223 NA
ATOM      8  C   UNL     1      57.108   1.779  40.167  0.00  0.00    +0.220 A 
ATOM      9  N   UNL     1      56.544   0.564  40.523  0.00  0.00    -0.283 N 
ATOM     36  H   UNL     1      56.539   0.278  41.502  0.00  0.00    +0.155 HD
ATOM     37  N   UNL     1      57.619   2.553  41.147  0.00  0.00    -0.214 NA
BRANCH   4   3
ATOM      1  C   UNL     1      58.568   6.392  43.767  0.00  0.00    +0.020 A 
ATOM      2  C   UNL     1      58.018   5.689  42.631  0.00  0.00    +0.013 A 
ATOM      3  C   UNL     1      58.713   4.544  42.056  0.00  0.00    +0.019 A 
ATOM     38  C   UNL     1      59.972   4.133  42.658  0.00  0.00    +0.120 A 
ATOM     39  N   UNL     1      60.478   4.830  43.751  0.00  0.00    -0.263 NA
ATOM     40  C   UNL     1      59.819   5.935  44.312  0.00  0.00    +0.111 A 
ENDBRANCH   4   3
ENDBRANCH  10   9
BRANCH  12  13
ATOM     13  N   UNL     1      52.661  -0.676  37.670  0.00  0.00    -0.281 N 
ATOM     14  C   UNL     1      51.586  -1.543  37.777  0.00  0.00    +0.248 C 
ATOM     30  O   UNL     1      51.675  -2.717  38.105  0.00  0.00    -0.270 OA
ATOM     31  H   UNL     1      52.476   0.212  37.203  0.00  0.00    +0.155 HD
BRANCH  14  15
ATOM     15  C   UNL     1      50.216  -1.037  37.461  0.00  0.00    +0.037 A 
ATOM     16  C   UNL     1      49.323  -0.552  38.517  0.00  0.00    +0.013 A 
ATOM     17  C   UNL     1      48.000  -0.085  38.186  0.00  0.00    +0.005 A 
ATOM     18  C   UNL     1      47.562  -0.100  36.793  0.00  0.00    -0.033 A 
ATOM     28  C   UNL     1      48.471  -0.581  35.765  0.00  0.00    +0.005 A 
ATOM     29  C   UNL     1      49.768  -1.041  36.085  0.00  0.00    +0.013 A 
BRANCH  18  19
ATOM     19  C   UNL     1      46.160   0.360  36.351  0.00  0.00    +0.119 C 
BRANCH  19  20
ATOM     20  N   UNL     1      45.713   1.714  36.794  0.00  0.00    -0.302 NA
ATOM     21  C   UNL     1      45.073   1.681  38.185  0.00  0.00    +0.066 C 
ATOM     22  C   UNL     1      44.632   3.110  38.642  0.00  0.00    -0.064 C 
ATOM     23  N   UNL     1      43.663   3.696  37.613  0.00  0.00    +0.379 N 
ATOM     24  C   UNL     1      43.202   5.015  38.069  0.00  0.00    -0.096 C 
ATOM     25  H   UNL     1      42.775   3.024  37.565  0.00  0.00    -0.082 HD
ATOM     26  C   UNL     1      44.292   3.729  36.227  0.00  0.00    -0.064 C 
ATOM     27  C   UNL     1      44.753   2.310  35.795  0.00  0.00    +0.066 C 
ENDBRANCH  19  20
ENDBRANCH  18  19
ENDBRANCH  14  15
ENDBRANCH  12  13
TORSDOF 6
ENDMDL
