MODEL 1
REMARK VINA RESULT:      -8.6      0.000      0.000
REMARK  Name = C:\Users\Docking\Desktop\test protocol\1iep_ligandH.pdb
REMARK  8 active torsions:
REMARK  status: ('A' for Active; 'I' for Inactive)
REMARK    1  A    between atoms: _5  and  _11
REMARK    2  A    between atoms: _19  and  _21
REMARK    3  A    between atoms: _22  and  _66
REMARK    4  A    between atoms: _27  and  _30
REMARK    5  A    between atoms: _32  and  _33
REMARK    6  A    between atoms: _38  and  _43
REMARK    7  A    between atoms: _43  and  _46
REMARK    8  A    between atoms: _53  and  _55
REMARK                            x       y       z     vdW  Elec       q    Type
REMARK                         _______ _______ _______ _____ _____    ______ ____
ROOT
ATOM     10  C   UNL     1      45.661   0.696  37.231  0.00  0.00    +0.038 A 
ATOM     11  C   UNL     1      47.036   0.595  37.562  0.00  0.00    +0.047 A 
ATOM     12  C   UNL     1      47.990  -0.005  36.642  0.00  0.00    +0.035 A 
ATOM     32  C   UNL     1      47.508  -0.489  35.391  0.00  0.00    +0.024 A 
ATOM     33  C   UNL     1      46.113  -0.395  35.038  0.00  0.00    +0.007 A 
ATOM     34  C   UNL     1      45.167   0.193  35.943  0.00  0.00    -0.029 A 
ATOM     35  C   UNL     1      43.683   0.261  35.516  0.00  0.00    +0.045 C 
ENDROOT
BRANCH  10   9
ATOM      4  C   UNL     1      43.012   4.377  38.805  0.00  0.00    +0.077 A 
ATOM      5  C   UNL     1      43.421   5.214  37.714  0.00  0.00    +0.048 A 
ATOM      6  C   UNL     1      44.319   4.662  36.773  0.00  0.00    +0.116 A 
ATOM      7  N   UNL     1      44.768   3.368  36.922  0.00  0.00    -0.223 NA
ATOM      8  C   UNL     1      44.356   2.588  37.987  0.00  0.00    +0.220 A 
ATOM      9  N   UNL     1      44.789   1.281  38.152  0.00  0.00    -0.283 N 
ATOM     36  H   UNL     1      44.468   0.741  38.955  0.00  0.00    +0.155 HD
ATOM     37  N   UNL     1      43.500   3.092  38.900  0.00  0.00    -0.214 NA
BRANCH   4   3
ATOM      1  C   UNL     1      41.496   5.347  42.278  0.00  0.00    +0.020 A 
ATOM      2  C   UNL     1      42.449   4.917  41.280  0.00  0.00    +0.013 A 
ATOM      3  C   UNL     1      42.065   4.816  39.878  0.00  0.00    +0.019 A 
ATOM     38  C   UNL     1      40.699   5.160  39.515  0.00  0.00    +0.120 A 
ATOM     39  N   UNL     1      39.802   5.569  40.497  0.00  0.00    -0.263 NA
ATOM     40  C   UNL     1      40.160   5.669  41.850  0.00  0.00    +0.111 A 
ENDBRANCH   4   3
ENDBRANCH  10   9
BRANCH  12  13
ATOM     13  N   UNL     1      49.396  -0.142  36.927  0.00  0.00    -0.281 N 
ATOM     14  C   UNL     1      50.081  -1.284  37.307  0.00  0.00    +0.248 C 
ATOM     30  O   UNL     1      49.546  -2.322  37.668  0.00  0.00    -0.270 OA
ATOM     31  H   UNL     1      49.955   0.707  36.838  0.00  0.00    +0.155 HD
BRANCH  14  15
ATOM     15  C   UNL     1      51.575  -1.268  37.297  0.00  0.00    +0.037 A 
ATOM     16  C   UNL     1      52.350  -2.056  38.259  0.00  0.00    +0.013 A 
ATOM     17  C   UNL     1      53.791  -2.008  38.240  0.00  0.00    +0.005 A 
ATOM     18  C   UNL     1      54.466  -1.169  37.252  0.00  0.00    -0.033 A 
ATOM     28  C   UNL     1      53.673  -0.402  36.306  0.00  0.00    +0.005 A 
ATOM     29  C   UNL     1      52.261  -0.445  36.323  0.00  0.00    +0.013 A 
BRANCH  18  19
ATOM     19  C   UNL     1      55.999  -1.041  37.172  0.00  0.00    +0.119 C 
BRANCH  19  20
ATOM     20  N   UNL     1      56.683  -0.312  38.281  0.00  0.00    -0.302 NA
ATOM     21  C   UNL     1      56.757  -1.150  39.560  0.00  0.00    +0.066 C 
ATOM     22  C   UNL     1      57.495  -0.381  40.703  0.00  0.00    -0.064 C 
ATOM     23  N   UNL     1      56.781   0.946  40.965  0.00  0.00    +0.379 N 
ATOM     24  C   UNL     1      57.439   1.646  42.079  0.00  0.00    -0.096 C 
ATOM     25  H   UNL     1      55.738   0.712  41.282  0.00  0.00    -0.082 HD
ATOM     26  C   UNL     1      56.702   1.785  39.697  0.00  0.00    -0.064 C 
ATOM     27  C   UNL     1      55.992   1.000  38.559  0.00  0.00    +0.066 C 
ENDBRANCH  19  20
ENDBRANCH  18  19
ENDBRANCH  14  15
ENDBRANCH  12  13
TORSDOF 6
ENDMDL
MODEL 2
REMARK VINA RESULT:      -8.6      1.637      2.427
REMARK  Name = C:\Users\Docking\Desktop\test protocol\1iep_ligandH.pdb
REMARK  8 active torsions:
REMARK  status: ('A' for Active; 'I' for Inactive)
REMARK    1  A    between atoms: _5  and  _11
REMARK    2  A    between atoms: _19  and  _21
REMARK    3  A    between atoms: _22  and  _66
REMARK    4  A    between atoms: _27  and  _30
REMARK    5  A    between atoms: _32  and  _33
REMARK    6  A    between atoms: _38  and  _43
REMARK    7  A    between atoms: _43  and  _46
REMARK    8  A    between atoms: _53  and  _55
REMARK                            x       y       z     vdW  Elec       q    Type
REMARK                         _______ _______ _______ _____ _____    ______ ____
ROOT
ATOM     10  C   UNL     1      46.157   0.427  37.317  0.00  0.00    +0.038 A 
ATOM     11  C   UNL     1      47.554   0.446  37.563  0.00  0.00    +0.047 A 
ATOM     12  C   UNL     1      48.491  -0.167  36.635  0.00  0.00    +0.035 A 
ATOM     32  C   UNL     1      47.971  -0.789  35.462  0.00  0.00    +0.024 A 
ATOM     33  C   UNL     1      46.554  -0.819  35.196  0.00  0.00    +0.007 A 
ATOM     34  C   UNL     1      45.625  -0.218  36.110  0.00  0.00    -0.029 A 
ATOM     35  C   UNL     1      44.116  -0.286  35.777  0.00  0.00    +0.045 C 
ENDROOT
BRANCH  10   9
ATOM      4  C   UNL     1      43.300   4.017  38.724  0.00  0.00    +0.077 A 
ATOM      5  C   UNL     1      43.552   4.766  37.526  0.00  0.00    +0.048 A 
ATOM      6  C   UNL     1      44.428   4.195  36.576  0.00  0.00    +0.116 A 
ATOM      7  N   UNL     1      45.004   2.966  36.817  0.00  0.00    -0.223 NA
ATOM      8  C   UNL     1      44.741   2.271  37.983  0.00  0.00    +0.220 A 
ATOM      9  N   UNL     1      45.303   1.031  38.242  0.00  0.00    -0.283 N 
ATOM     36  H   UNL     1      45.090   0.554  39.118  0.00  0.00    +0.155 HD
ATOM     37  N   UNL     1      43.909   2.796  38.907  0.00  0.00    -0.214 NA
BRANCH   4   3
ATOM      1  C   UNL     1      40.342   5.683  40.668  0.00  0.00    +0.020 A 
ATOM      2  C   UNL     1      41.182   5.254  39.573  0.00  0.00    +0.013 A 
ATOM      3  C   UNL     1      42.395   4.486  39.821  0.00  0.00    +0.019 A 
ATOM     38  C   UNL     1      42.733   4.165  41.199  0.00  0.00    +0.120 A 
ATOM     39  N   UNL     1      41.906   4.592  42.233  0.00  0.00    -0.263 NA
ATOM     40  C   UNL     1      40.737   5.333  42.007  0.00  0.00    +0.111 A 
ENDBRANCH   4   3
ENDBRANCH  10   9
BRANCH  12  13
ATOM     13  N   UNL     1      49.919  -0.185  36.836  0.00  0.00    -0.281 N 
ATOM     14  C   UNL     1      50.694  -1.217  37.338  0.00  0.00    +0.248 C 
ATOM     30  O   UNL     1      50.248  -2.210  37.893  0.00  0.00    -0.270 OA
ATOM     31  H   UNL     1      50.418   0.666  36.578  0.00  0.00    +0.155 HD
BRANCH  14  15
ATOM     15  C   UNL     1      52.182  -1.126  37.220  0.00  0.00    +0.037 A 
ATOM     16  C   UNL     1      52.813  -0.379  36.129  0.00  0.00    +0.013 A 
ATOM     17  C   UNL     1      54.250  -0.321  36.028  0.00  0.00    +0.005 A 
ATOM     18  C   UNL     1      55.065  -1.011  37.025  0.00  0.00    -0.033 A 
ATOM     28  C   UNL     1      54.413  -1.740  38.100  0.00  0.00    +0.005 A 
ATOM     29  C   UNL     1      53.005  -1.800  38.201  0.00  0.00    +0.013 A 
BRANCH  18  19
ATOM     19  C   UNL     1      56.605  -1.021  36.984  0.00  0.00    +0.119 C 
BRANCH  19  20
ATOM     20  N   UNL     1      57.302  -2.109  37.732  0.00  0.00    -0.302 NA
ATOM     21  C   UNL     1      57.835  -1.627  39.084  0.00  0.00    +0.066 C 
ATOM     22  C   UNL     1      58.542  -2.783  39.863  0.00  0.00    -0.064 C 
ATOM     23  N   UNL     1      59.674  -3.353  39.007  0.00  0.00    +0.379 N 
ATOM     24  C   UNL     1      60.378  -4.402  39.759  0.00  0.00    -0.096 C 
ATOM     25  H   UNL     1      60.400  -2.529  38.815  0.00  0.00    -0.082 HD
ATOM     26  C   UNL     1      59.154  -3.833  37.659  0.00  0.00    -0.064 C 
ATOM     27  C   UNL     1      58.427  -2.683  36.906  0.00  0.00    +0.066 C 
ENDBRANCH  19  20
ENDBRANCH  18  19
ENDBRANCH  14  15
ENDBRANCH  12  13
TORSDOF 6
ENDMDL
MODEL 3
REMARK VINA RESULT:      -8.6      2.420     12.174
REMARK  Name = C:\Users\Docking\Desktop\test protocol\1iep_ligandH.pdb
REMARK  8 active torsions:
REMARK  status: ('A' for Active; 'I' for Inactive)
REMARK    1  A    between atoms: _5  and  _11
REMARK    2  A    between atoms: _19  and  _21
REMARK    3  A    between atoms: _22  and  _66
REMARK    4  A    between atoms: _27  and  _30
REMARK    5  A    between atoms: _32  and  _33
REMARK    6  A    between atoms: _38  and  _43
REMARK    7  A    between atoms: _43  and  _46
REMARK    8  A    between atoms: _53  and  _55
REMARK                            x       y       z     vdW  Elec       q    Type
REMARK                         _______ _______ _______ _____ _____    ______ ____
ROOT
ATOM     10  C   UNL     1      55.736  -0.054  39.612  0.00  0.00    +0.038 A 
ATOM     11  C   UNL     1      54.404   0.202  39.196  0.00  0.00    +0.047 A 
ATOM     12  C   UNL     1      53.752  -0.635  38.202  0.00  0.00    +0.035 A 
ATOM     32  C   UNL     1      54.485  -1.727  37.652  0.00  0.00    +0.024 A 
ATOM     33  C   UNL     1      55.840  -2.001  38.063  0.00  0.00    +0.007 A 
ATOM     34  C   UNL     1      56.489  -1.177  39.042  0.00  0.00    -0.029 A 
ATOM     35  C   UNL     1      57.945  -1.514  39.439  0.00  0.00    +0.045 C 
ENDROOT
BRANCH  10   9
ATOM      4  C   UNL     1      57.921   4.016  40.914  0.00  0.00    +0.077 A 
ATOM      5  C   UNL     1      57.939   4.507  39.566  0.00  0.00    +0.048 A 
ATOM      6  C   UNL     1      57.382   3.679  38.566  0.00  0.00    +0.116 A 
ATOM      7  N   UNL     1      56.850   2.453  38.901  0.00  0.00    -0.223 NA
ATOM      8  C   UNL     1      56.850   2.008  40.210  0.00  0.00    +0.220 A 
ATOM      9  N   UNL     1      56.313   0.782  40.571  0.00  0.00    -0.283 N 
ATOM     36  H   UNL     1      56.339   0.487  41.546  0.00  0.00    +0.155 HD
ATOM     37  N   UNL     1      57.377   2.780  41.183  0.00  0.00    -0.214 NA
BRANCH   4   3
ATOM      1  C   UNL     1      58.395   6.665  43.753  0.00  0.00    +0.020 A 
ATOM      2  C   UNL     1      57.825   5.967  42.623  0.00  0.00    +0.013 A 
ATOM      3  C   UNL     1      58.469   4.777  42.081  0.00  0.00    +0.019 A 
ATOM     38  C   UNL     1      59.697   4.315  42.710  0.00  0.00    +0.120 A 
ATOM     39  N   UNL     1      60.223   5.008  43.796  0.00  0.00    -0.263 NA
ATOM     40  C   UNL     1      59.614   6.156  44.325  0.00  0.00    +0.111 A 
ENDBRANCH   4   3
ENDBRANCH  10   9
BRANCH  12  13
ATOM     13  N   UNL     1      52.405  -0.419  37.735  0.00  0.00    -0.281 N 
ATOM     14  C   UNL     1      51.325  -1.281  37.822  0.00  0.00    +0.248 C 
ATOM     30  O   UNL     1      51.406  -2.462  38.125  0.00  0.00    -0.270 OA
ATOM     31  H   UNL     1      52.226   0.480  37.286  0.00  0.00    +0.155 HD
BRANCH  14  15
ATOM     15  C   UNL     1      49.958  -0.761  37.513  0.00  0.00    +0.037 A 
ATOM     16  C   UNL     1      49.045  -0.344  38.580  0.00  0.00    +0.013 A 
ATOM     17  C   UNL     1      47.726   0.139  38.255  0.00  0.00    +0.005 A 
ATOM     18  C   UNL     1      47.313   0.208  36.855  0.00  0.00    -0.033 A 
ATOM     28  C   UNL     1      48.241  -0.207  35.817  0.00  0.00    +0.005 A 
ATOM     29  C   UNL     1      49.534  -0.681  36.131  0.00  0.00    +0.013 A 
BRANCH  18  19
ATOM     19  C   UNL     1      45.917   0.690  36.418  0.00  0.00    +0.119 C 
BRANCH  19  20
ATOM     20  N   UNL     1      45.441   1.994  36.968  0.00  0.00    -0.302 NA
ATOM     21  C   UNL     1      44.627   1.813  38.253  0.00  0.00    +0.066 C 
ATOM     22  C   UNL     1      44.156   3.189  38.827  0.00  0.00    -0.064 C 
ATOM     23  N   UNL     1      43.336   3.927  37.767  0.00  0.00    +0.379 N 
ATOM     24  C   UNL     1      42.843   5.195  38.323  0.00  0.00    -0.096 C 
ATOM     25  H   UNL     1      42.450   3.295  37.525  0.00  0.00    -0.082 HD
ATOM     26  C   UNL     1      44.137   4.109  36.485  0.00  0.00    -0.064 C 
ATOM     27  C   UNL     1      44.625   2.738  35.939  0.00  0.00    +0.066 C 
ENDBRANCH  19  20
ENDBRANCH  18  19
ENDBRANCH  14  15
ENDBRANCH  12  13
TORSDOF 6
ENDMDL
MODEL 4
REMARK VINA RESULT:      -8.4      2.065      2.970
REMARK  Name = C:\Users\Docking\Desktop\test protocol\1iep_ligandH.pdb
REMARK  8 active torsions:
REMARK  status: ('A' for Active; 'I' for Inactive)
REMARK    1  A    between atoms: _5  and  _11
REMARK    2  A    between atoms: _19  and  _21
REMARK    3  A    between atoms: _22  and  _66
REMARK    4  A    between atoms: _27  and  _30
REMARK    5  A    between atoms: _32  and  _33
REMARK    6  A    between atoms: _38  and  _43
REMARK    7  A    between atoms: _43  and  _46
REMARK    8  A    between atoms: _53  and  _55
REMARK                            x       y       z     vdW  Elec       q    Type
REMARK                         _______ _______ _______ _____ _____    ______ ____
ROOT
ATOM     10  C   UNL     1      46.497   0.617  36.749  0.00  0.00    +0.038 A 
ATOM     11  C   UNL     1      47.889   0.677  37.015  0.00  0.00    +0.047 A 
ATOM     12  C   UNL     1      48.800  -0.328  36.490  0.00  0.00    +0.035 A 
ATOM     32  C   UNL     1      48.259  -1.381  35.696  0.00  0.00    +0.024 A 
ATOM     33  C   UNL     1      46.847  -1.458  35.417  0.00  0.00    +0.007 A 
ATOM     34  C   UNL     1      45.943  -0.471  35.934  0.00  0.00    -0.029 A 
ATOM     35  C   UNL     1      44.438  -0.607  35.608  0.00  0.00    +0.045 C 
ENDROOT
BRANCH  10   9
ATOM      4  C   UNL     1      44.050   2.600  40.371  0.00  0.00    +0.077 A 
ATOM      5  C   UNL     1      44.433   1.558  41.278  0.00  0.00    +0.048 A 
ATOM      6  C   UNL     1      45.254   0.525  40.772  0.00  0.00    +0.116 A 
ATOM      7  N   UNL     1      45.657   0.545  39.454  0.00  0.00    -0.223 NA
ATOM      8  C   UNL     1      45.269   1.565  38.605  0.00  0.00    +0.220 A 
ATOM      9  N   UNL     1      45.669   1.609  37.278  0.00  0.00    -0.283 N 
ATOM     36  H   UNL     1      45.355   2.374  36.682  0.00  0.00    +0.155 HD
ATOM     37  N   UNL     1      44.483   2.561  39.064  0.00  0.00    -0.214 NA
BRANCH   4   3
ATOM      1  C   UNL     1      42.297   5.427  42.430  0.00  0.00    +0.020 A 
ATOM      2  C   UNL     1      43.147   4.303  42.109  0.00  0.00    +0.013 A 
ATOM      3  C   UNL     1      43.187   3.761  40.757  0.00  0.00    +0.019 A 
ATOM     38  C   UNL     1      42.349   4.385  39.744  0.00  0.00    +0.120 A 
ATOM     39  N   UNL     1      41.540   5.465  40.082  0.00  0.00    -0.263 NA
ATOM     40  C   UNL     1      41.491   5.993  41.381  0.00  0.00    +0.111 A 
ENDBRANCH   4   3
ENDBRANCH  10   9
BRANCH  12  13
ATOM     13  N   UNL     1      50.221  -0.323  36.733  0.00  0.00    -0.281 N 
ATOM     14  C   UNL     1      50.979  -1.288  37.376  0.00  0.00    +0.248 C 
ATOM     30  O   UNL     1      50.513  -2.209  38.031  0.00  0.00    -0.270 OA
ATOM     31  H   UNL     1      50.731   0.491  36.390  0.00  0.00    +0.155 HD
BRANCH  14  15
ATOM     15  C   UNL     1      52.469  -1.212  37.291  0.00  0.00    +0.037 A 
ATOM     16  C   UNL     1      53.131  -0.388  36.275  0.00  0.00    +0.013 A 
ATOM     17  C   UNL     1      54.570  -0.346  36.204  0.00  0.00    +0.005 A 
ATOM     18  C   UNL     1      55.357  -1.130  37.153  0.00  0.00    -0.033 A 
ATOM     28  C   UNL     1      54.675  -1.934  38.153  0.00  0.00    +0.005 A 
ATOM     29  C   UNL     1      53.265  -1.979  38.225  0.00  0.00    +0.013 A 
BRANCH  18  19
ATOM     19  C   UNL     1      56.897  -1.161  37.137  0.00  0.00    +0.119 C 
BRANCH  19  20
ATOM     20  N   UNL     1      57.565  -2.306  37.824  0.00  0.00    -0.302 NA
ATOM     21  C   UNL     1      58.190  -1.890  39.158  0.00  0.00    +0.066 C 
ATOM     22  C   UNL     1      58.865  -3.105  39.874  0.00  0.00    -0.064 C 
ATOM     23  N   UNL     1      59.919  -3.717  38.950  0.00  0.00    +0.379 N 
ATOM     24  C   UNL     1      60.595  -4.824  39.642  0.00  0.00    -0.096 C 
ATOM     25  H   UNL     1      60.682  -2.932  38.741  0.00  0.00    -0.082 HD
ATOM     26  C   UNL     1      59.306  -4.131  37.620  0.00  0.00    -0.064 C 
ATOM     27  C   UNL     1      58.613  -2.923  36.930  0.00  0.00    +0.066 C 
ENDBRANCH  19  20
ENDBRANCH  18  19
ENDBRANCH  14  15
ENDBRANCH  12  13
TORSDOF 6
ENDMDL
MODEL 5
REMARK VINA RESULT:      -8.4      3.896      6.750
REMARK  Name = C:\Users\Docking\Desktop\test protocol\1iep_ligandH.pdb
REMARK  8 active torsions:
REMARK  status: ('A' for Active; 'I' for Inactive)
REMARK    1  A    between atoms: _5  and  _11
REMARK    2  A    between atoms: _19  and  _21
REMARK    3  A    between atoms: _22  and  _66
REMARK    4  A    between atoms: _27  and  _30
REMARK    5  A    between atoms: _32  and  _33
REMARK    6  A    between atoms: _38  and  _43
REMARK    7  A    between atoms: _43  and  _46
REMARK    8  A    between atoms: _53  and  _55
REMARK                            x       y       z     vdW  Elec       q    Type
REMARK                         _______ _______ _______ _____ _____    ______ ____
ROOT
ATOM     10  C   UNL     1      46.322   0.224  35.546  0.00  0.00    +0.038 A 
ATOM     11  C   UNL     1      47.526  -0.475  35.820  0.00  0.00    +0.047 A 
ATOM     12  C   UNL     1      48.278  -0.228  37.040  0.00  0.00    +0.035 A 
ATOM     32  C   UNL     1      47.775   0.736  37.961  0.00  0.00    +0.024 A 
ATOM     33  C   UNL     1      46.554   1.457  37.697  0.00  0.00    +0.007 A 
ATOM     34  C   UNL     1      45.809   1.219  36.494  0.00  0.00    -0.029 A 
ATOM     35  C   UNL     1      44.510   2.025  36.261  0.00  0.00    +0.045 C 
ENDROOT
BRANCH  10   9
ATOM      4  C   UNL     1      42.817  -1.944  33.086  0.00  0.00    +0.077 A 
ATOM      5  C   UNL     1      42.319  -2.601  34.259  0.00  0.00    +0.048 A 
ATOM      6  C   UNL     1      42.998  -2.360  35.475  0.00  0.00    +0.116 A 
ATOM      7  N   UNL     1      44.091  -1.523  35.503  0.00  0.00    -0.223 NA
ATOM      8  C   UNL     1      44.547  -0.906  34.352  0.00  0.00    +0.220 A 
ATOM      9  N   UNL     1      45.640  -0.053  34.359  0.00  0.00    -0.283 N 
ATOM     36  H   UNL     1      45.950   0.376  33.487  0.00  0.00    +0.155 HD
ATOM     37  N   UNL     1      43.917  -1.121  33.179  0.00  0.00    -0.214 NA
BRANCH   4   3
ATOM      1  C   UNL     1      42.277  -1.923  29.211  0.00  0.00    +0.020 A 
ATOM      2  C   UNL     1      42.913  -1.758  30.498  0.00  0.00    +0.013 A 
ATOM      3  C   UNL     1      42.206  -2.095  31.727  0.00  0.00    +0.019 A 
ATOM     38  C   UNL     1      40.846  -2.602  31.619  0.00  0.00    +0.120 A 
ATOM     39  N   UNL     1      40.259  -2.749  30.366  0.00  0.00    -0.263 NA
ATOM     40  C   UNL     1      40.929  -2.426  29.177  0.00  0.00    +0.111 A 
ENDBRANCH   4   3
ENDBRANCH  10   9
BRANCH  12  13
ATOM     13  N   UNL     1      49.511  -0.901  37.368  0.00  0.00    -0.281 N 
ATOM     14  C   UNL     1      50.730  -0.812  36.716  0.00  0.00    +0.248 C 
ATOM     30  O   UNL     1      50.891  -0.300  35.618  0.00  0.00    -0.270 OA
ATOM     31  H   UNL     1      49.480  -1.519  38.179  0.00  0.00    +0.155 HD
BRANCH  14  15
ATOM     15  C   UNL     1      51.943  -1.386  37.373  0.00  0.00    +0.037 A 
ATOM     16  C   UNL     1      51.835  -2.458  38.366  0.00  0.00    +0.013 A 
ATOM     17  C   UNL     1      53.020  -2.982  38.997  0.00  0.00    +0.005 A 
ATOM     18  C   UNL     1      54.326  -2.436  38.635  0.00  0.00    -0.033 A 
ATOM     28  C   UNL     1      54.405  -1.376  37.643  0.00  0.00    +0.005 A 
ATOM     29  C   UNL     1      53.245  -0.859  37.023  0.00  0.00    +0.013 A 
BRANCH  18  19
ATOM     19  C   UNL     1      55.641  -2.920  39.273  0.00  0.00    +0.119 C 
BRANCH  19  20
ATOM     20  N   UNL     1      56.575  -3.699  38.406  0.00  0.00    -0.302 NA
ATOM     21  C   UNL     1      56.495  -5.203  38.681  0.00  0.00    +0.066 C 
ATOM     22  C   UNL     1      57.462  -6.005  37.750  0.00  0.00    -0.064 C 
ATOM     23  N   UNL     1      58.891  -5.494  37.943  0.00  0.00    +0.379 N 
ATOM     24  C   UNL     1      59.810  -6.285  37.112  0.00  0.00    -0.096 C 
ATOM     25  H   UNL     1      59.168  -5.663  39.010  0.00  0.00    -0.082 HD
ATOM     26  C   UNL     1      58.979  -3.999  37.674  0.00  0.00    -0.064 C 
ATOM     27  C   UNL     1      57.993  -3.214  38.584  0.00  0.00    +0.066 C 
ENDBRANCH  19  20
ENDBRANCH  18  19
ENDBRANCH  14  15
ENDBRANCH  12  13
TORSDOF 6
ENDMDL
