MODEL 1
REMARK VINA RESULT:      -9.7      0.000      0.000
REMARK  Name = C:\Users\Docking\Desktop\test protocol\1iep_ligandH.pdb
REMARK  8 active torsions:
REMARK  status: ('A' for Active; 'I' for Inactive)
REMARK    1  A    between atoms: _5  and  _11
REMARK    2  A    between atoms: _19  and  _21
REMARK    3  A    between atoms: _22  and  _66
REMARK    4  A    between atoms: _27  and  _30
REMARK    5  A    between atoms: _32  and  _33
REMARK    6  A    between atoms: _38  and  _43
REMARK    7  A    between atoms: _43  and  _46
REMARK    8  A    between atoms: _53  and  _55
REMARK                            x       y       z     vdW  Elec       q    Type
REMARK                         _______ _______ _______ _____ _____    ______ ____
ROOT
ATOM     10  C   UNL     1       8.268   3.589  12.986  0.00  0.00    +0.038 A 
ATOM     11  C   UNL     1       9.431   4.391  12.860  0.00  0.00    +0.047 A 
ATOM     12  C   UNL     1       9.423   5.607  12.061  0.00  0.00    +0.035 A 
ATOM     32  C   UNL     1       8.213   5.977  11.406  0.00  0.00    +0.024 A 
ATOM     33  C   UNL     1       7.022   5.173  11.523  0.00  0.00    +0.007 A 
ATOM     34  C   UNL     1       7.024   3.972  12.308  0.00  0.00    -0.029 A 
ATOM     35  C   UNL     1       5.720   3.145  12.392  0.00  0.00    +0.045 C 
ENDROOT
BRANCH  10   9
ATOM      4  C   UNL     1       9.333  -1.051  13.595  0.00  0.00    +0.077 A 
ATOM      5  C   UNL     1       9.775  -1.189  12.237  0.00  0.00    +0.048 A 
ATOM      6  C   UNL     1       9.705  -0.044  11.413  0.00  0.00    +0.116 A 
ATOM      7  N   UNL     1       9.228   1.146  11.919  0.00  0.00    -0.223 NA
ATOM      8  C   UNL     1       8.808   1.244  13.233  0.00  0.00    +0.220 A 
ATOM      9  N   UNL     1       8.331   2.432  13.766  0.00  0.00    -0.283 N 
ATOM     36  H   UNL     1       8.024   2.461  14.738  0.00  0.00    +0.155 HD
ATOM     37  N   UNL     1       8.863   0.164  14.040  0.00  0.00    -0.214 NA
BRANCH   4   3
ATOM      1  C   UNL     1      10.537  -3.818  16.083  0.00  0.00    +0.020 A 
ATOM      2  C   UNL     1      10.578  -2.739  15.124  0.00  0.00    +0.013 A 
ATOM      3  C   UNL     1       9.347  -2.170  14.590  0.00  0.00    +0.019 A 
ATOM     38  C   UNL     1       8.082  -2.720  15.051  0.00  0.00    +0.120 A 
ATOM     39  N   UNL     1       8.073  -3.761  15.975  0.00  0.00    -0.263 NA
ATOM     40  C   UNL     1       9.252  -4.317  16.494  0.00  0.00    +0.111 A 
ENDBRANCH   4   3
ENDBRANCH  10   9
BRANCH  12  13
ATOM     13  N   UNL     1      10.576   6.456  11.890  0.00  0.00    -0.281 N 
ATOM     14  C   UNL     1      10.602   7.831  11.721  0.00  0.00    +0.248 C 
ATOM     30  O   UNL     1       9.621   8.517  11.478  0.00  0.00    -0.270 OA
ATOM     31  H   UNL     1      11.482   5.987  11.893  0.00  0.00    +0.155 HD
BRANCH  14  15
ATOM     15  C   UNL     1      11.911   8.546  11.824  0.00  0.00    +0.037 A 
ATOM     16  C   UNL     1      12.793   8.355  12.979  0.00  0.00    +0.013 A 
ATOM     17  C   UNL     1      14.042   9.070  13.061  0.00  0.00    +0.005 A 
ATOM     18  C   UNL     1      14.417   9.982  11.983  0.00  0.00    -0.033 A 
ATOM     28  C   UNL     1      13.527  10.148  10.847  0.00  0.00    +0.005 A 
ATOM     29  C   UNL     1      12.301   9.450  10.763  0.00  0.00    +0.013 A 
BRANCH  18  19
ATOM     19  C   UNL     1      15.721  10.801  11.998  0.00  0.00    +0.119 C 
BRANCH  19  20
ATOM     20  N   UNL     1      16.659  10.614  10.851  0.00  0.00    -0.302 NA
ATOM     21  C   UNL     1      17.169   9.174  10.755  0.00  0.00    +0.066 C 
ATOM     22  C   UNL     1      18.131   8.991   9.536  0.00  0.00    -0.064 C 
ATOM     23  N   UNL     1      19.299   9.972   9.659  0.00  0.00    +0.379 N 
ATOM     24  C   UNL     1      20.235   9.763   8.545  0.00  0.00    -0.096 C 
ATOM     25  H   UNL     1      19.839   9.736  10.605  0.00  0.00    -0.082 HD
ATOM     26  C   UNL     1      18.800  11.407   9.758  0.00  0.00    -0.064 C 
ATOM     27  C   UNL     1      17.822  11.571  10.955  0.00  0.00    +0.066 C 
ENDBRANCH  19  20
ENDBRANCH  18  19
ENDBRANCH  14  15
ENDBRANCH  12  13
TORSDOF 6
ENDMDL
MODEL 2
REMARK VINA RESULT:      -9.0      0.989      1.602
REMARK  Name = C:\Users\Docking\Desktop\test protocol\1iep_ligandH.pdb
REMARK  8 active torsions:
REMARK  status: ('A' for Active; 'I' for Inactive)
REMARK    1  A    between atoms: _5  and  _11
REMARK    2  A    between atoms: _19  and  _21
REMARK    3  A    between atoms: _22  and  _66
REMARK    4  A    between atoms: _27  and  _30
REMARK    5  A    between atoms: _32  and  _33
REMARK    6  A    between atoms: _38  and  _43
REMARK    7  A    between atoms: _43  and  _46
REMARK    8  A    between atoms: _53  and  _55
REMARK                            x       y       z     vdW  Elec       q    Type
REMARK                         _______ _______ _______ _____ _____    ______ ____
ROOT
ATOM     10  C   UNL     1       8.269   3.589  12.991  0.00  0.00    +0.038 A 
ATOM     11  C   UNL     1       9.429   4.394  12.860  0.00  0.00    +0.047 A 
ATOM     12  C   UNL     1       9.415   5.610  12.061  0.00  0.00    +0.035 A 
ATOM     32  C   UNL     1       8.201   5.977  11.411  0.00  0.00    +0.024 A 
ATOM     33  C   UNL     1       7.013   5.169  11.533  0.00  0.00    +0.007 A 
ATOM     34  C   UNL     1       7.021   3.968  12.317  0.00  0.00    -0.029 A 
ATOM     35  C   UNL     1       5.720   3.138  12.407  0.00  0.00    +0.045 C 
ENDROOT
BRANCH  10   9
ATOM      4  C   UNL     1       9.303  -1.060  13.583  0.00  0.00    +0.077 A 
ATOM      5  C   UNL     1       9.714  -1.204  12.216  0.00  0.00    +0.048 A 
ATOM      6  C   UNL     1       9.637  -0.059  11.392  0.00  0.00    +0.116 A 
ATOM      7  N   UNL     1       9.182   1.136  11.907  0.00  0.00    -0.223 NA
ATOM      8  C   UNL     1       8.792   1.239  13.230  0.00  0.00    +0.220 A 
ATOM      9  N   UNL     1       8.339   2.432  13.771  0.00  0.00    -0.283 N 
ATOM     36  H   UNL     1       8.054   2.466  14.749  0.00  0.00    +0.155 HD
ATOM     37  N   UNL     1       8.855   0.160  14.037  0.00  0.00    -0.214 NA
BRANCH   4   3
ATOM      1  C   UNL     1      10.537  -3.808  16.079  0.00  0.00    +0.020 A 
ATOM      2  C   UNL     1      10.566  -2.729  15.119  0.00  0.00    +0.013 A 
ATOM      3  C   UNL     1       9.330  -2.178  14.579  0.00  0.00    +0.019 A 
ATOM     38  C   UNL     1       8.070  -2.745  15.036  0.00  0.00    +0.120 A 
ATOM     39  N   UNL     1       8.072  -3.785  15.960  0.00  0.00    -0.263 NA
ATOM     40  C   UNL     1       9.256  -4.325  16.485  0.00  0.00    +0.111 A 
ENDBRANCH   4   3
ENDBRANCH  10   9
BRANCH  12  13
ATOM     13  N   UNL     1      10.564   6.463  11.885  0.00  0.00    -0.281 N 
ATOM     14  C   UNL     1      10.587   7.839  11.726  0.00  0.00    +0.248 C 
ATOM     30  O   UNL     1       9.602   8.524  11.496  0.00  0.00    -0.270 OA
ATOM     31  H   UNL     1      11.471   5.995  11.876  0.00  0.00    +0.155 HD
BRANCH  14  15
ATOM     15  C   UNL     1      11.896   8.555  11.822  0.00  0.00    +0.037 A 
ATOM     16  C   UNL     1      12.347   9.459  10.760  0.00  0.00    +0.013 A 
ATOM     17  C   UNL     1      13.621  10.124  10.870  0.00  0.00    +0.005 A 
ATOM     18  C   UNL     1      14.453   9.889  12.047  0.00  0.00    -0.033 A 
ATOM     28  C   UNL     1      13.979   8.991  13.088  0.00  0.00    +0.005 A 
ATOM     29  C   UNL     1      12.731   8.336  12.983  0.00  0.00    +0.013 A 
BRANCH  18  19
ATOM     19  C   UNL     1      15.836  10.539  12.238  0.00  0.00    +0.119 C 
BRANCH  19  20
ATOM     20  N   UNL     1      16.331  11.426  11.143  0.00  0.00    -0.302 NA
ATOM     21  C   UNL     1      17.801  11.160  10.809  0.00  0.00    +0.066 C 
ATOM     22  C   UNL     1      18.297  12.080   9.647  0.00  0.00    -0.064 C 
ATOM     23  N   UNL     1      18.086  13.545  10.034  0.00  0.00    +0.379 N 
ATOM     24  C   UNL     1      18.603  14.414   8.968  0.00  0.00    -0.096 C 
ATOM     25  H   UNL     1      18.686  13.742  10.953  0.00  0.00    -0.082 HD
ATOM     26  C   UNL     1      16.626  13.818  10.370  0.00  0.00    -0.064 C 
ATOM     27  C   UNL     1      16.136  12.877  11.506  0.00  0.00    +0.066 C 
ENDBRANCH  19  20
ENDBRANCH  18  19
ENDBRANCH  14  15
ENDBRANCH  12  13
TORSDOF 6
ENDMDL
MODEL 3
REMARK VINA RESULT:      -8.9      1.416      1.724
REMARK  Name = C:\Users\Docking\Desktop\test protocol\1iep_ligandH.pdb
REMARK  8 active torsions:
REMARK  status: ('A' for Active; 'I' for Inactive)
REMARK    1  A    between atoms: _5  and  _11
REMARK    2  A    between atoms: _19  and  _21
REMARK    3  A    between atoms: _22  and  _66
REMARK    4  A    between atoms: _27  and  _30
REMARK    5  A    between atoms: _32  and  _33
REMARK    6  A    between atoms: _38  and  _43
REMARK    7  A    between atoms: _43  and  _46
REMARK    8  A    between atoms: _53  and  _55
REMARK                            x       y       z     vdW  Elec       q    Type
REMARK                         _______ _______ _______ _____ _____    ______ ____
ROOT
ATOM     10  C   UNL     1       7.817   2.781  12.062  0.00  0.00    +0.038 A 
ATOM     11  C   UNL     1       8.719   3.869  12.176  0.00  0.00    +0.047 A 
ATOM     12  C   UNL     1       8.540   5.081  11.392  0.00  0.00    +0.035 A 
ATOM     32  C   UNL     1       7.427   5.152  10.503  0.00  0.00    +0.024 A 
ATOM     33  C   UNL     1       6.501   4.055  10.374  0.00  0.00    +0.007 A 
ATOM     34  C   UNL     1       6.675   2.856  11.143  0.00  0.00    -0.029 A 
ATOM     35  C   UNL     1       5.654   1.709  10.959  0.00  0.00    +0.045 C 
ENDROOT
BRANCH  10   9
ATOM      4  C   UNL     1       9.852  -1.501  12.813  0.00  0.00    +0.077 A 
ATOM      5  C   UNL     1      10.510  -1.478  11.538  0.00  0.00    +0.048 A 
ATOM      6  C   UNL     1      10.293  -0.349  10.716  0.00  0.00    +0.116 A 
ATOM      7  N   UNL     1       9.477   0.674  11.147  0.00  0.00    -0.223 NA
ATOM      8  C   UNL     1       8.856   0.620  12.382  0.00  0.00    +0.220 A 
ATOM      9  N   UNL     1       8.038   1.641  12.839  0.00  0.00    -0.283 N 
ATOM     36  H   UNL     1       7.592   1.560  13.752  0.00  0.00    +0.155 HD
ATOM     37  N   UNL     1       9.046  -0.448  13.184  0.00  0.00    -0.214 NA
BRANCH   4   3
ATOM      1  C   UNL     1      10.694  -3.573  16.021  0.00  0.00    +0.020 A 
ATOM      2  C   UNL     1      10.590  -2.457  15.110  0.00  0.00    +0.013 A 
ATOM      3  C   UNL     1       9.985  -2.623  13.795  0.00  0.00    +0.019 A 
ATOM     38  C   UNL     1       9.489  -3.942  13.430  0.00  0.00    +0.120 A 
ATOM     39  N   UNL     1       9.604  -4.999  14.328  0.00  0.00    -0.263 NA
ATOM     40  C   UNL     1      10.186  -4.851  15.595  0.00  0.00    +0.111 A 
ENDBRANCH   4   3
ENDBRANCH  10   9
BRANCH  12  13
ATOM     13  N   UNL     1       9.428   6.215  11.459  0.00  0.00    -0.281 N 
ATOM     14  C   UNL     1      10.538   6.380  12.271  0.00  0.00    +0.248 C 
ATOM     30  O   UNL     1      10.814   5.661  13.220  0.00  0.00    -0.270 OA
ATOM     31  H   UNL     1       9.211   6.990  10.833  0.00  0.00    +0.155 HD
BRANCH  14  15
ATOM     15  C   UNL     1      11.470   7.516  11.998  0.00  0.00    +0.037 A 
ATOM     16  C   UNL     1      11.353   8.318  10.777  0.00  0.00    +0.013 A 
ATOM     17  C   UNL     1      12.276   9.397  10.530  0.00  0.00    +0.005 A 
ATOM     18  C   UNL     1      13.323   9.683  11.508  0.00  0.00    -0.033 A 
ATOM     28  C   UNL     1      13.413   8.875  12.713  0.00  0.00    +0.005 A 
ATOM     29  C   UNL     1      12.511   7.815  12.958  0.00  0.00    +0.013 A 
BRANCH  18  19
ATOM     19  C   UNL     1      14.364  10.802  11.317  0.00  0.00    +0.119 C 
BRANCH  19  20
ATOM     20  N   UNL     1      15.618  10.452  10.585  0.00  0.00    -0.302 NA
ATOM     21  C   UNL     1      16.828  10.380  11.521  0.00  0.00    +0.066 C 
ATOM     22  C   UNL     1      18.127   9.990  10.743  0.00  0.00    -0.064 C 
ATOM     23  N   UNL     1      18.369  11.002   9.622  0.00  0.00    +0.379 N 
ATOM     24  C   UNL     1      19.621  10.672   8.925  0.00  0.00    -0.096 C 
ATOM     25  H   UNL     1      18.498  12.004  10.093  0.00  0.00    -0.082 HD
ATOM     26  C   UNL     1      17.170  11.082   8.688  0.00  0.00    -0.064 C 
ATOM     27  C   UNL     1      15.879  11.440   9.476  0.00  0.00    +0.066 C 
ENDBRANCH  19  20
ENDBRANCH  18  19
ENDBRANCH  14  15
ENDBRANCH  12  13
TORSDOF 6
ENDMDL
MODEL 4
REMARK VINA RESULT:      -8.7     11.226     13.715
REMARK  Name = C:\Users\Docking\Desktop\test protocol\1iep_ligandH.pdb
REMARK  8 active torsions:
REMARK  status: ('A' for Active; 'I' for Inactive)
REMARK    1  A    between atoms: _5  and  _11
REMARK    2  A    between atoms: _19  and  _21
REMARK    3  A    between atoms: _22  and  _66
REMARK    4  A    between atoms: _27  and  _30
REMARK    5  A    between atoms: _32  and  _33
REMARK    6  A    between atoms: _38  and  _43
REMARK    7  A    between atoms: _43  and  _46
REMARK    8  A    between atoms: _53  and  _55
REMARK                            x       y       z     vdW  Elec       q    Type
REMARK                         _______ _______ _______ _____ _____    ______ ____
ROOT
ATOM     10  C   UNL     1       4.604   5.953  19.564  0.00  0.00    +0.038 A 
ATOM     11  C   UNL     1       5.673   6.422  20.370  0.00  0.00    +0.047 A 
ATOM     12  C   UNL     1       5.422   7.088  21.639  0.00  0.00    +0.035 A 
ATOM     32  C   UNL     1       4.070   7.257  22.058  0.00  0.00    +0.024 A 
ATOM     33  C   UNL     1       2.972   6.787  21.251  0.00  0.00    +0.007 A 
ATOM     34  C   UNL     1       3.213   6.132  19.997  0.00  0.00    -0.029 A 
ATOM     35  C   UNL     1       1.997   5.654  19.169  0.00  0.00    +0.045 C 
ENDROOT
BRANCH  10   9
ATOM      4  C   UNL     1       5.552   6.046  14.860  0.00  0.00    +0.077 A 
ATOM      5  C   UNL     1       5.416   7.473  14.801  0.00  0.00    +0.048 A 
ATOM      6  C   UNL     1       5.094   8.145  16.002  0.00  0.00    +0.116 A 
ATOM      7  N   UNL     1       4.924   7.432  17.169  0.00  0.00    -0.223 NA
ATOM      8  C   UNL     1       5.061   6.056  17.191  0.00  0.00    +0.220 A 
ATOM      9  N   UNL     1       4.903   5.321  18.355  0.00  0.00    -0.283 N 
ATOM     36  H   UNL     1       5.005   4.306  18.329  0.00  0.00    +0.155 HD
ATOM     37  N   UNL     1       5.367   5.392  16.057  0.00  0.00    -0.214 NA
BRANCH   4   3
ATOM      1  C   UNL     1       5.336   3.449  11.944  0.00  0.00    +0.020 A 
ATOM      2  C   UNL     1       4.957   4.246  13.087  0.00  0.00    +0.013 A 
ATOM      3  C   UNL     1       5.893   5.196  13.676  0.00  0.00    +0.019 A 
ATOM     38  C   UNL     1       7.215   5.316  13.079  0.00  0.00    +0.120 A 
ATOM     39  N   UNL     1       7.552   4.534  11.979  0.00  0.00    -0.263 NA
ATOM     40  C   UNL     1       6.660   3.615  11.404  0.00  0.00    +0.111 A 
ENDBRANCH   4   3
ENDBRANCH  10   9
BRANCH  12  13
ATOM     13  N   UNL     1       6.466   7.593  22.496  0.00  0.00    -0.281 N 
ATOM     14  C   UNL     1       6.338   8.429  23.593  0.00  0.00    +0.248 C 
ATOM     30  O   UNL     1       5.322   9.046  23.876  0.00  0.00    -0.270 OA
ATOM     31  H   UNL     1       7.415   7.297  22.267  0.00  0.00    +0.155 HD
BRANCH  14  15
ATOM     15  C   UNL     1       7.512   8.620  24.497  0.00  0.00    +0.037 A 
ATOM     16  C   UNL     1       7.774   9.909  25.142  0.00  0.00    +0.013 A 
ATOM     17  C   UNL     1       8.923  10.071  25.996  0.00  0.00    +0.005 A 
ATOM     18  C   UNL     1       9.821   8.938  26.211  0.00  0.00    -0.033 A 
ATOM     28  C   UNL     1       9.535   7.669  25.563  0.00  0.00    +0.005 A 
ATOM     29  C   UNL     1       8.409   7.507  24.724  0.00  0.00    +0.013 A 
BRANCH  18  19
ATOM     19  C   UNL     1      11.083   9.026  27.090  0.00  0.00    +0.119 C 
BRANCH  19  20
ATOM     20  N   UNL     1      10.897   9.432  28.515  0.00  0.00    -0.302 NA
ATOM     21  C   UNL     1      12.028   8.919  29.410  0.00  0.00    +0.066 C 
ATOM     22  C   UNL     1      11.830   9.371  30.894  0.00  0.00    -0.064 C 
ATOM     23  N   UNL     1      10.473   8.876  31.398  0.00  0.00    +0.379 N 
ATOM     24  C   UNL     1      10.308   9.250  32.810  0.00  0.00    -0.096 C 
ATOM     25  H   UNL     1      10.477   7.763  31.341  0.00  0.00    -0.082 HD
ATOM     26  C   UNL     1       9.342   9.380  30.511  0.00  0.00    -0.064 C 
ATOM     27  C   UNL     1       9.565   8.950  29.035  0.00  0.00    +0.066 C 
ENDBRANCH  19  20
ENDBRANCH  18  19
ENDBRANCH  14  15
ENDBRANCH  12  13
TORSDOF 6
ENDMDL
MODEL 5
REMARK VINA RESULT:      -8.7      4.218      6.176
REMARK  Name = C:\Users\Docking\Desktop\test protocol\1iep_ligandH.pdb
REMARK  8 active torsions:
REMARK  status: ('A' for Active; 'I' for Inactive)
REMARK    1  A    between atoms: _5  and  _11
REMARK    2  A    between atoms: _19  and  _21
REMARK    3  A    between atoms: _22  and  _66
REMARK    4  A    between atoms: _27  and  _30
REMARK    5  A    between atoms: _32  and  _33
REMARK    6  A    between atoms: _38  and  _43
REMARK    7  A    between atoms: _43  and  _46
REMARK    8  A    between atoms: _53  and  _55
REMARK                            x       y       z     vdW  Elec       q    Type
REMARK                         _______ _______ _______ _____ _____    ______ ____
ROOT
ATOM     10  C   UNL     1       6.890   4.091  14.003  0.00  0.00    +0.038 A 
ATOM     11  C   UNL     1       8.022   4.930  13.841  0.00  0.00    +0.047 A 
ATOM     12  C   UNL     1       8.819   4.890  12.625  0.00  0.00    +0.035 A 
ATOM     32  C   UNL     1       8.433   3.986  11.593  0.00  0.00    +0.024 A 
ATOM     33  C   UNL     1       7.286   3.125  11.742  0.00  0.00    +0.007 A 
ATOM     34  C   UNL     1       6.497   3.158  12.940  0.00  0.00    -0.029 A 
ATOM     35  C   UNL     1       5.282   2.208  13.048  0.00  0.00    +0.045 C 
ENDROOT
BRANCH  10   9
ATOM      4  C   UNL     1       4.254   6.517  17.197  0.00  0.00    +0.077 A 
ATOM      5  C   UNL     1       4.362   7.736  16.449  0.00  0.00    +0.048 A 
ATOM      6  C   UNL     1       5.111   7.698  15.251  0.00  0.00    +0.116 A 
ATOM      7  N   UNL     1       5.703   6.523  14.842  0.00  0.00    -0.223 NA
ATOM      8  C   UNL     1       5.580   5.365  15.588  0.00  0.00    +0.220 A 
ATOM      9  N   UNL     1       6.160   4.170  15.191  0.00  0.00    -0.283 N 
ATOM     36  H   UNL     1       6.053   3.340  15.774  0.00  0.00    +0.155 HD
ATOM     37  N   UNL     1       4.871   5.376  16.736  0.00  0.00    -0.214 NA
BRANCH   4   3
ATOM      1  C   UNL     1       2.864   7.195  20.790  0.00  0.00    +0.020 A 
ATOM      2  C   UNL     1       3.621   7.357  19.571  0.00  0.00    +0.013 A 
ATOM      3  C   UNL     1       3.494   6.397  18.481  0.00  0.00    +0.019 A 
ATOM     38  C   UNL     1       2.583   5.275  18.659  0.00  0.00    +0.120 A 
ATOM     39  N   UNL     1       1.868   5.144  19.845  0.00  0.00    -0.263 NA
ATOM     40  C   UNL     1       1.984   6.061  20.901  0.00  0.00    +0.111 A 
ENDBRANCH   4   3
ENDBRANCH  10   9
BRANCH  12  13
ATOM     13  N   UNL     1       9.983   5.712  12.406  0.00  0.00    -0.281 N 
ATOM     14  C   UNL     1      10.067   6.899  11.697  0.00  0.00    +0.248 C 
ATOM     30  O   UNL     1       9.192   7.326  10.958  0.00  0.00    -0.270 OA
ATOM     31  H   UNL     1      10.851   5.379  12.825  0.00  0.00    +0.155 HD
BRANCH  14  15
ATOM     15  C   UNL     1      11.308   7.724  11.813  0.00  0.00    +0.037 A 
ATOM     16  C   UNL     1      12.213   7.578  12.956  0.00  0.00    +0.013 A 
ATOM     17  C   UNL     1      13.395   8.398  13.052  0.00  0.00    +0.005 A 
ATOM     18  C   UNL     1      13.678   9.372  12.000  0.00  0.00    -0.033 A 
ATOM     28  C   UNL     1      12.766   9.492  10.875  0.00  0.00    +0.005 A 
ATOM     29  C   UNL     1      11.606   8.691  10.778  0.00  0.00    +0.013 A 
BRANCH  18  19
ATOM     19  C   UNL     1      14.904  10.304  12.031  0.00  0.00    +0.119 C 
BRANCH  19  20
ATOM     20  N   UNL     1      15.929  10.121  10.961  0.00  0.00    -0.302 NA
ATOM     21  C   UNL     1      16.839   8.920  11.235  0.00  0.00    +0.066 C 
ATOM     22  C   UNL     1      17.891   8.730  10.094  0.00  0.00    -0.064 C 
ATOM     23  N   UNL     1      18.714  10.011   9.945  0.00  0.00    +0.379 N 
ATOM     24  C   UNL     1      19.742   9.815   8.912  0.00  0.00    -0.096 C 
ATOM     25  H   UNL     1      19.237  10.191  10.913  0.00  0.00    -0.082 HD
ATOM     26  C   UNL     1      17.817  11.210   9.674  0.00  0.00    -0.064 C 
ATOM     27  C   UNL     1      16.756  11.372  10.799  0.00  0.00    +0.066 C 
ENDBRANCH  19  20
ENDBRANCH  18  19
ENDBRANCH  14  15
ENDBRANCH  12  13
TORSDOF 6
ENDMDL
