MODEL 1
REMARK VINA RESULT:      -8.8      0.000      0.000
REMARK  Name = C:\Users\Docking\Desktop\test protocol\1iep_ligandH.pdb
REMARK  8 active torsions:
REMARK  status: ('A' for Active; 'I' for Inactive)
REMARK    1  A    between atoms: _5  and  _11
REMARK    2  A    between atoms: _19  and  _21
REMARK    3  A    between atoms: _22  and  _66
REMARK    4  A    between atoms: _27  and  _30
REMARK    5  A    between atoms: _32  and  _33
REMARK    6  A    between atoms: _38  and  _43
REMARK    7  A    between atoms: _43  and  _46
REMARK    8  A    between atoms: _53  and  _55
REMARK                            x       y       z     vdW  Elec       q    Type
REMARK                         _______ _______ _______ _____ _____    ______ ____
ROOT
ATOM     10  C   UNL     1       4.347   4.743  18.544  0.00  0.00    +0.038 A 
ATOM     11  C   UNL     1       5.224   5.331  19.492  0.00  0.00    +0.047 A 
ATOM     12  C   UNL     1       4.768   6.383  20.387  0.00  0.00    +0.035 A 
ATOM     32  C   UNL     1       3.412   6.811  20.291  0.00  0.00    +0.024 A 
ATOM     33  C   UNL     1       2.508   6.225  19.333  0.00  0.00    +0.007 A 
ATOM     34  C   UNL     1       2.952   5.189  18.445  0.00  0.00    -0.029 A 
ATOM     35  C   UNL     1       1.941   4.602  17.433  0.00  0.00    +0.045 C 
ENDROOT
BRANCH  10   9
ATOM      4  C   UNL     1       5.916   3.160  14.293  0.00  0.00    +0.077 A 
ATOM      5  C   UNL     1       5.717   4.440  13.676  0.00  0.00    +0.048 A 
ATOM      6  C   UNL     1       5.202   5.477  14.486  0.00  0.00    +0.116 A 
ATOM      7  N   UNL     1       4.912   5.241  15.812  0.00  0.00    -0.223 NA
ATOM      8  C   UNL     1       5.115   3.994  16.375  0.00  0.00    +0.220 A 
ATOM      9  N   UNL     1       4.838   3.736  17.709  0.00  0.00    -0.283 N 
ATOM     36  H   UNL     1       4.994   2.802  18.085  0.00  0.00    +0.155 HD
ATOM     37  N   UNL     1       5.604   2.987  15.623  0.00  0.00    -0.214 NA
BRANCH   4   3
ATOM      1  C   UNL     1       7.874   0.885  11.785  0.00  0.00    +0.020 A 
ATOM      2  C   UNL     1       7.381   2.070  12.448  0.00  0.00    +0.013 A 
ATOM      3  C   UNL     1       6.456   1.965  13.570  0.00  0.00    +0.019 A 
ATOM     38  C   UNL     1       6.047   0.637  13.999  0.00  0.00    +0.120 A 
ATOM     39  N   UNL     1       6.536  -0.487  13.340  0.00  0.00    -0.263 NA
ATOM     40  C   UNL     1       7.425  -0.398  12.258  0.00  0.00    +0.111 A 
ENDBRANCH   4   3
ENDBRANCH  10   9
BRANCH  12  13
ATOM     13  N   UNL     1       5.614   7.022  21.364  0.00  0.00    -0.281 N 
ATOM     14  C   UNL     1       5.508   6.974  22.744  0.00  0.00    +0.248 C 
ATOM     30  O   UNL     1       4.536   6.545  23.348  0.00  0.00    -0.270 OA
ATOM     31  H   UNL     1       6.385   7.577  20.992  0.00  0.00    +0.155 HD
BRANCH  14  15
ATOM     15  C   UNL     1       6.639   7.490  23.574  0.00  0.00    +0.037 A 
ATOM     16  C   UNL     1       7.050   8.895  23.508  0.00  0.00    +0.013 A 
ATOM     17  C   UNL     1       8.156   9.363  24.306  0.00  0.00    +0.005 A 
ATOM     18  C   UNL     1       8.857   8.425  25.179  0.00  0.00    -0.033 A 
ATOM     28  C   UNL     1       8.425   7.038  25.228  0.00  0.00    +0.005 A 
ATOM     29  C   UNL     1       7.343   6.575  24.446  0.00  0.00    +0.013 A 
BRANCH  18  19
ATOM     19  C   UNL     1      10.061   8.832  26.049  0.00  0.00    +0.119 C 
BRANCH  19  20
ATOM     20  N   UNL     1       9.838   8.924  27.523  0.00  0.00    -0.302 NA
ATOM     21  C   UNL     1       8.696   9.882  27.873  0.00  0.00    +0.066 C 
ATOM     22  C   UNL     1       8.463   9.949  29.418  0.00  0.00    -0.064 C 
ATOM     23  N   UNL     1       9.759  10.375  30.109  0.00  0.00    +0.379 N 
ATOM     24  C   UNL     1       9.527  10.495  31.556  0.00  0.00    -0.096 C 
ATOM     25  H   UNL     1      10.030  11.386  29.725  0.00  0.00    -0.082 HD
ATOM     26  C   UNL     1      10.900   9.429  29.764  0.00  0.00    -0.064 C 
ATOM     27  C   UNL     1      11.105   9.347  28.225  0.00  0.00    +0.066 C 
ENDBRANCH  19  20
ENDBRANCH  18  19
ENDBRANCH  14  15
ENDBRANCH  12  13
TORSDOF 6
ENDMDL
MODEL 2
REMARK VINA RESULT:      -8.7      1.433      2.051
REMARK  Name = C:\Users\Docking\Desktop\test protocol\1iep_ligandH.pdb
REMARK  8 active torsions:
REMARK  status: ('A' for Active; 'I' for Inactive)
REMARK    1  A    between atoms: _5  and  _11
REMARK    2  A    between atoms: _19  and  _21
REMARK    3  A    between atoms: _22  and  _66
REMARK    4  A    between atoms: _27  and  _30
REMARK    5  A    between atoms: _32  and  _33
REMARK    6  A    between atoms: _38  and  _43
REMARK    7  A    between atoms: _43  and  _46
REMARK    8  A    between atoms: _53  and  _55
REMARK                            x       y       z     vdW  Elec       q    Type
REMARK                         _______ _______ _______ _____ _____    ______ ____
ROOT
ATOM     10  C   UNL     1       4.271   4.815  20.056  0.00  0.00    +0.038 A 
ATOM     11  C   UNL     1       5.378   5.362  20.753  0.00  0.00    +0.047 A 
ATOM     12  C   UNL     1       5.190   6.174  21.945  0.00  0.00    +0.035 A 
ATOM     32  C   UNL     1       3.860   6.407  22.401  0.00  0.00    +0.024 A 
ATOM     33  C   UNL     1       2.723   5.859  21.704  0.00  0.00    +0.007 A 
ATOM     34  C   UNL     1       2.902   5.059  20.527  0.00  0.00    -0.029 A 
ATOM     35  C   UNL     1       1.646   4.503  19.816  0.00  0.00    +0.045 C 
ENDROOT
BRANCH  10   9
ATOM      4  C   UNL     1       5.175   4.357  15.365  0.00  0.00    +0.077 A 
ATOM      5  C   UNL     1       5.144   5.776  15.160  0.00  0.00    +0.048 A 
ATOM      6  C   UNL     1       4.885   6.589  16.286  0.00  0.00    +0.116 A 
ATOM      7  N   UNL     1       4.675   6.014  17.521  0.00  0.00    -0.223 NA
ATOM      8  C   UNL     1       4.710   4.641  17.684  0.00  0.00    +0.220 A 
ATOM      9  N   UNL     1       4.509   4.042  18.917  0.00  0.00    -0.283 N 
ATOM     36  H   UNL     1       4.535   3.025  18.994  0.00  0.00    +0.155 HD
ATOM     37  N   UNL     1       4.954   3.843  16.623  0.00  0.00    -0.214 NA
BRANCH   4   3
ATOM      1  C   UNL     1       6.343   2.725  12.007  0.00  0.00    +0.020 A 
ATOM      2  C   UNL     1       6.111   3.720  13.029  0.00  0.00    +0.013 A 
ATOM      3  C   UNL     1       5.440   3.367  14.273  0.00  0.00    +0.019 A 
ATOM     38  C   UNL     1       5.013   1.987  14.454  0.00  0.00    +0.120 A 
ATOM     39  N   UNL     1       5.248   1.052  13.452  0.00  0.00    -0.263 NA
ATOM     40  C   UNL     1       5.892   1.380  12.249  0.00  0.00    +0.111 A 
ENDBRANCH   4   3
ENDBRANCH  10   9
BRANCH  12  13
ATOM     13  N   UNL     1       6.276   6.763  22.689  0.00  0.00    -0.281 N 
ATOM     14  C   UNL     1       6.204   7.727  23.681  0.00  0.00    +0.248 C 
ATOM     30  O   UNL     1       5.207   8.388  23.932  0.00  0.00    -0.270 OA
ATOM     31  H   UNL     1       7.211   6.429  22.456  0.00  0.00    +0.155 HD
BRANCH  14  15
ATOM     15  C   UNL     1       7.419   8.008  24.505  0.00  0.00    +0.037 A 
ATOM     16  C   UNL     1       8.353   6.939  24.870  0.00  0.00    +0.013 A 
ATOM     17  C   UNL     1       9.509   7.234  25.680  0.00  0.00    +0.005 A 
ATOM     18  C   UNL     1       9.738   8.606  26.128  0.00  0.00    -0.033 A 
ATOM     28  C   UNL     1       8.798   9.647  25.746  0.00  0.00    +0.005 A 
ATOM     29  C   UNL     1       7.664   9.362  24.954  0.00  0.00    +0.013 A 
BRANCH  18  19
ATOM     19  C   UNL     1      10.933   9.008  27.012  0.00  0.00    +0.119 C 
BRANCH  19  20
ATOM     20  N   UNL     1      10.626   9.611  28.343  0.00  0.00    -0.302 NA
ATOM     21  C   UNL     1      11.798   9.475  29.320  0.00  0.00    +0.066 C 
ATOM     22  C   UNL     1      11.469  10.132  30.700  0.00  0.00    -0.064 C 
ATOM     23  N   UNL     1      10.206   9.491  31.277  0.00  0.00    +0.379 N 
ATOM     24  C   UNL     1       9.926  10.065  32.602  0.00  0.00    -0.096 C 
ATOM     25  H   UNL     1      10.411   8.404  31.416  0.00  0.00    -0.082 HD
ATOM     26  C   UNL     1       9.036   9.619  30.312  0.00  0.00    -0.064 C 
ATOM     27  C   UNL     1       9.385   8.990  28.934  0.00  0.00    +0.066 C 
ENDBRANCH  19  20
ENDBRANCH  18  19
ENDBRANCH  14  15
ENDBRANCH  12  13
TORSDOF 6
ENDMDL
MODEL 3
REMARK VINA RESULT:      -8.5      2.648      3.407
REMARK  Name = C:\Users\Docking\Desktop\test protocol\1iep_ligandH.pdb
REMARK  8 active torsions:
REMARK  status: ('A' for Active; 'I' for Inactive)
REMARK    1  A    between atoms: _5  and  _11
REMARK    2  A    between atoms: _19  and  _21
REMARK    3  A    between atoms: _22  and  _66
REMARK    4  A    between atoms: _27  and  _30
REMARK    5  A    between atoms: _32  and  _33
REMARK    6  A    between atoms: _38  and  _43
REMARK    7  A    between atoms: _43  and  _46
REMARK    8  A    between atoms: _53  and  _55
REMARK                            x       y       z     vdW  Elec       q    Type
REMARK                         _______ _______ _______ _____ _____    ______ ____
ROOT
ATOM     10  C   UNL     1       4.143   5.800  19.694  0.00  0.00    +0.038 A 
ATOM     11  C   UNL     1       5.251   6.299  20.425  0.00  0.00    +0.047 A 
ATOM     12  C   UNL     1       5.140   6.614  21.840  0.00  0.00    +0.035 A 
ATOM     32  C   UNL     1       3.884   6.405  22.482  0.00  0.00    +0.024 A 
ATOM     33  C   UNL     1       2.746   5.900  21.754  0.00  0.00    +0.007 A 
ATOM     34  C   UNL     1       2.850   5.590  20.357  0.00  0.00    -0.029 A 
ATOM     35  C   UNL     1       1.596   5.057  19.626  0.00  0.00    +0.045 C 
ENDROOT
BRANCH  10   9
ATOM      4  C   UNL     1       4.179   7.093  15.072  0.00  0.00    +0.077 A 
ATOM      5  C   UNL     1       3.816   8.445  15.386  0.00  0.00    +0.048 A 
ATOM      6  C   UNL     1       3.621   8.765  16.748  0.00  0.00    +0.116 A 
ATOM      7  N   UNL     1       3.782   7.797  17.716  0.00  0.00    -0.223 NA
ATOM      8  C   UNL     1       4.132   6.502  17.379  0.00  0.00    +0.220 A 
ATOM      9  N   UNL     1       4.306   5.515  18.337  0.00  0.00    -0.283 N 
ATOM     36  H   UNL     1       4.557   4.570  18.047  0.00  0.00    +0.155 HD
ATOM     37  N   UNL     1       4.321   6.171  16.085  0.00  0.00    -0.214 NA
BRANCH   4   3
ATOM      1  C   UNL     1       5.839   5.478  11.919  0.00  0.00    +0.020 A 
ATOM      2  C   UNL     1       5.654   5.934  13.278  0.00  0.00    +0.013 A 
ATOM      3  C   UNL     1       4.422   6.601  13.679  0.00  0.00    +0.019 A 
ATOM     38  C   UNL     1       3.388   6.793  12.673  0.00  0.00    +0.120 A 
ATOM     39  N   UNL     1       3.594   6.344  11.372  0.00  0.00    -0.263 NA
ATOM     40  C   UNL     1       4.776   5.702  10.975  0.00  0.00    +0.111 A 
ENDBRANCH   4   3
ENDBRANCH  10   9
BRANCH  12  13
ATOM     13  N   UNL     1       6.228   7.131  22.632  0.00  0.00    -0.281 N 
ATOM     14  C   UNL     1       6.156   7.941  23.754  0.00  0.00    +0.248 C 
ATOM     30  O   UNL     1       5.147   8.522  24.123  0.00  0.00    -0.270 OA
ATOM     31  H   UNL     1       7.166   6.868  22.328  0.00  0.00    +0.155 HD
BRANCH  14  15
ATOM     15  C   UNL     1       7.387   8.147  24.576  0.00  0.00    +0.037 A 
ATOM     16  C   UNL     1       8.282   7.032  24.897  0.00  0.00    +0.013 A 
ATOM     17  C   UNL     1       9.454   7.255  25.706  0.00  0.00    +0.005 A 
ATOM     18  C   UNL     1       9.738   8.600  26.199  0.00  0.00    -0.033 A 
ATOM     28  C   UNL     1       8.837   9.689  25.861  0.00  0.00    +0.005 A 
ATOM     29  C   UNL     1       7.687   9.474  25.069  0.00  0.00    +0.013 A 
BRANCH  18  19
ATOM     19  C   UNL     1      10.954   8.926  27.086  0.00  0.00    +0.119 C 
BRANCH  19  20
ATOM     20  N   UNL     1      10.679   9.435  28.463  0.00  0.00    -0.302 NA
ATOM     21  C   UNL     1      11.769   9.021  29.457  0.00  0.00    +0.066 C 
ATOM     22  C   UNL     1      11.477   9.581  30.887  0.00  0.00    -0.064 C 
ATOM     23  N   UNL     1      10.105   9.090  31.353  0.00  0.00    +0.379 N 
ATOM     24  C   UNL     1       9.853   9.567  32.721  0.00  0.00    -0.096 C 
ATOM     25  H   UNL     1      10.137   7.977  31.383  0.00  0.00    -0.082 HD
ATOM     26  C   UNL     1       9.016   9.495  30.370  0.00  0.00    -0.064 C 
ATOM     27  C   UNL     1       9.331   8.959  28.945  0.00  0.00    +0.066 C 
ENDBRANCH  19  20
ENDBRANCH  18  19
ENDBRANCH  14  15
ENDBRANCH  12  13
TORSDOF 6
ENDMDL
MODEL 4
REMARK VINA RESULT:      -8.5     12.782     18.336
REMARK  Name = C:\Users\Docking\Desktop\test protocol\1iep_ligandH.pdb
REMARK  8 active torsions:
REMARK  status: ('A' for Active; 'I' for Inactive)
REMARK    1  A    between atoms: _5  and  _11
REMARK    2  A    between atoms: _19  and  _21
REMARK    3  A    between atoms: _22  and  _66
REMARK    4  A    between atoms: _27  and  _30
REMARK    5  A    between atoms: _32  and  _33
REMARK    6  A    between atoms: _38  and  _43
REMARK    7  A    between atoms: _43  and  _46
REMARK    8  A    between atoms: _53  and  _55
REMARK                            x       y       z     vdW  Elec       q    Type
REMARK                         _______ _______ _______ _____ _____    ______ ____
ROOT
ATOM     10  C   UNL     1       8.886  -5.143  15.061  0.00  0.00    +0.038 A 
ATOM     11  C   UNL     1       9.056  -6.516  15.373  0.00  0.00    +0.047 A 
ATOM     12  C   UNL     1       9.461  -6.942  16.703  0.00  0.00    +0.035 A 
ATOM     32  C   UNL     1       9.682  -5.941  17.694  0.00  0.00    +0.024 A 
ATOM     33  C   UNL     1       9.516  -4.541  17.395  0.00  0.00    +0.007 A 
ATOM     34  C   UNL     1       9.119  -4.115  16.083  0.00  0.00    -0.029 A 
ATOM     35  C   UNL     1       8.961  -2.600  15.817  0.00  0.00    +0.045 C 
ENDROOT
BRANCH  10   9
ATOM      4  C   UNL     1       9.845  -3.542  10.639  0.00  0.00    +0.077 A 
ATOM      5  C   UNL     1      11.237  -3.367  10.940  0.00  0.00    +0.048 A 
ATOM      6  C   UNL     1      11.664  -3.694  12.247  0.00  0.00    +0.116 A 
ATOM      7  N   UNL     1      10.759  -4.161  13.175  0.00  0.00    -0.223 NA
ATOM      8  C   UNL     1       9.423  -4.316  12.852  0.00  0.00    +0.220 A 
ATOM      9  N   UNL     1       8.496  -4.791  13.767  0.00  0.00    -0.283 N 
ATOM     36  H   UNL     1       7.519  -4.885  13.492  0.00  0.00    +0.155 HD
ATOM     37  N   UNL     1       8.990  -4.010  11.612  0.00  0.00    -0.214 NA
BRANCH   4   3
ATOM      1  C   UNL     1       8.925  -3.697   6.840  0.00  0.00    +0.020 A 
ATOM      2  C   UNL     1       9.535  -4.027   8.108  0.00  0.00    +0.013 A 
ATOM      3  C   UNL     1       9.242  -3.244   9.302  0.00  0.00    +0.019 A 
ATOM     38  C   UNL     1       8.320  -2.125   9.178  0.00  0.00    +0.120 A 
ATOM     39  N   UNL     1       7.749  -1.830   7.944  0.00  0.00    -0.263 NA
ATOM     40  C   UNL     1       8.024  -2.575   6.788  0.00  0.00    +0.111 A 
ENDBRANCH   4   3
ENDBRANCH  10   9
BRANCH  12  13
ATOM     13  N   UNL     1       9.657  -8.321  17.076  0.00  0.00    -0.281 N 
ATOM     14  C   UNL     1       8.697  -9.310  17.215  0.00  0.00    +0.248 C 
ATOM     30  O   UNL     1       7.493  -9.105  17.248  0.00  0.00    -0.270 OA
ATOM     31  H   UNL     1      10.620  -8.602  17.259  0.00  0.00    +0.155 HD
BRANCH  14  15
ATOM     15  C   UNL     1       9.139 -10.731  17.352  0.00  0.00    +0.037 A 
ATOM     16  C   UNL     1      10.023 -11.150  18.442  0.00  0.00    +0.013 A 
ATOM     17  C   UNL     1      10.449 -12.524  18.541  0.00  0.00    +0.005 A 
ATOM     18  C   UNL     1       9.988 -13.490  17.546  0.00  0.00    -0.033 A 
ATOM     28  C   UNL     1       9.107 -13.048  16.478  0.00  0.00    +0.005 A 
ATOM     29  C   UNL     1       8.689 -11.702  16.377  0.00  0.00    +0.013 A 
BRANCH  18  19
ATOM     19  C   UNL     1      10.408 -14.971  17.562  0.00  0.00    +0.119 C 
BRANCH  19  20
ATOM     20  N   UNL     1      11.721 -15.316  16.938  0.00  0.00    -0.302 NA
ATOM     21  C   UNL     1      11.569 -16.344  15.813  0.00  0.00    +0.066 C 
ATOM     22  C   UNL     1      12.949 -16.677  15.156  0.00  0.00    -0.064 C 
ATOM     23  N   UNL     1      13.912 -17.187  16.230  0.00  0.00    +0.379 N 
ATOM     24  C   UNL     1      15.191 -17.555  15.606  0.00  0.00    -0.096 C 
ATOM     25  H   UNL     1      13.470 -18.112  16.668  0.00  0.00    -0.082 HD
ATOM     26  C   UNL     1      14.066 -16.172  17.354  0.00  0.00    -0.064 C 
ATOM     27  C   UNL     1      12.686 -15.826  17.980  0.00  0.00    +0.066 C 
ENDBRANCH  19  20
ENDBRANCH  18  19
ENDBRANCH  14  15
ENDBRANCH  12  13
TORSDOF 6
ENDMDL
MODEL 5
REMARK VINA RESULT:      -8.4      1.954      2.704
REMARK  Name = C:\Users\Docking\Desktop\test protocol\1iep_ligandH.pdb
REMARK  8 active torsions:
REMARK  status: ('A' for Active; 'I' for Inactive)
REMARK    1  A    between atoms: _5  and  _11
REMARK    2  A    between atoms: _19  and  _21
REMARK    3  A    between atoms: _22  and  _66
REMARK    4  A    between atoms: _27  and  _30
REMARK    5  A    between atoms: _32  and  _33
REMARK    6  A    between atoms: _38  and  _43
REMARK    7  A    between atoms: _43  and  _46
REMARK    8  A    between atoms: _53  and  _55
REMARK                            x       y       z     vdW  Elec       q    Type
REMARK                         _______ _______ _______ _____ _____    ______ ____
ROOT
ATOM     10  C   UNL     1       3.847   5.241  19.787  0.00  0.00    +0.038 A 
ATOM     11  C   UNL     1       4.710   5.850  20.734  0.00  0.00    +0.047 A 
ATOM     12  C   UNL     1       4.206   6.326  22.013  0.00  0.00    +0.035 A 
ATOM     32  C   UNL     1       2.819   6.162  22.296  0.00  0.00    +0.024 A 
ATOM     33  C   UNL     1       1.928   5.546  21.344  0.00  0.00    +0.007 A 
ATOM     34  C   UNL     1       2.418   5.077  20.080  0.00  0.00    -0.029 A 
ATOM     35  C   UNL     1       1.416   4.430  19.096  0.00  0.00    +0.045 C 
ENDROOT
BRANCH  10   9
ATOM      4  C   UNL     1       4.970   5.905  15.168  0.00  0.00    +0.077 A 
ATOM      5  C   UNL     1       4.416   7.229  15.162  0.00  0.00    +0.048 A 
ATOM      6  C   UNL     1       3.845   7.698  16.367  0.00  0.00    +0.116 A 
ATOM      7  N   UNL     1       3.835   6.896  17.487  0.00  0.00    -0.223 NA
ATOM      8  C   UNL     1       4.376   5.623  17.457  0.00  0.00    +0.220 A 
ATOM      9  N   UNL     1       4.384   4.802  18.574  0.00  0.00    -0.283 N 
ATOM     36  H   UNL     1       4.786   3.867  18.510  0.00  0.00    +0.155 HD
ATOM     37  N   UNL     1       4.926   5.151  16.319  0.00  0.00    -0.214 NA
BRANCH   4   3
ATOM      1  C   UNL     1       6.973   5.362  11.852  0.00  0.00    +0.020 A 
ATOM      2  C   UNL     1       6.373   6.025  12.987  0.00  0.00    +0.013 A 
ATOM      3  C   UNL     1       5.611   5.269  13.973  0.00  0.00    +0.019 A 
ATOM     38  C   UNL     1       5.474   3.834  13.780  0.00  0.00    +0.120 A 
ATOM     39  N   UNL     1       6.061   3.223  12.677  0.00  0.00    -0.263 NA
ATOM     40  C   UNL     1       6.795   3.940  11.720  0.00  0.00    +0.111 A 
ENDBRANCH   4   3
ENDBRANCH  10   9
BRANCH  12  13
ATOM     13  N   UNL     1       5.033   6.959  23.010  0.00  0.00    -0.281 N 
ATOM     14  C   UNL     1       6.342   6.659  23.347  0.00  0.00    +0.248 C 
ATOM     30  O   UNL     1       6.935   5.653  22.987  0.00  0.00    -0.270 OA
ATOM     31  H   UNL     1       4.600   7.722  23.531  0.00  0.00    +0.155 HD
BRANCH  14  15
ATOM     15  C   UNL     1       7.098   7.606  24.223  0.00  0.00    +0.037 A 
ATOM     16  C   UNL     1       6.754   9.029  24.278  0.00  0.00    +0.013 A 
ATOM     17  C   UNL     1       7.510   9.924  25.117  0.00  0.00    +0.005 A 
ATOM     18  C   UNL     1       8.618   9.397  25.911  0.00  0.00    -0.033 A 
ATOM     28  C   UNL     1       8.934   7.980  25.842  0.00  0.00    +0.005 A 
ATOM     29  C   UNL     1       8.196   7.100  25.019  0.00  0.00    +0.013 A 
BRANCH  18  19
ATOM     19  C   UNL     1       9.492  10.282  26.819  0.00  0.00    +0.119 C 
BRANCH  19  20
ATOM     20  N   UNL     1      10.791   9.711  27.285  0.00  0.00    -0.302 NA
ATOM     21  C   UNL     1      10.764   9.366  28.777  0.00  0.00    +0.066 C 
ATOM     22  C   UNL     1      12.123   8.749  29.242  0.00  0.00    -0.064 C 
ATOM     23  N   UNL     1      13.257   9.728  28.934  0.00  0.00    +0.379 N 
ATOM     24  C   UNL     1      14.528   9.176  29.423  0.00  0.00    -0.096 C 
ATOM     25  H   UNL     1      13.055  10.667  29.500  0.00  0.00    -0.082 HD
ATOM     26  C   UNL     1      13.289  10.079  27.453  0.00  0.00    -0.064 C 
ATOM     27  C   UNL     1      11.924  10.664  26.994  0.00  0.00    +0.066 C 
ENDBRANCH  19  20
ENDBRANCH  18  19
ENDBRANCH  14  15
ENDBRANCH  12  13
TORSDOF 6
ENDMDL
