MODEL 1
REMARK VINA RESULT:      -8.0      0.000      0.000
REMARK  Name = C:\Users\Docking\Desktop\test protocol\1iep_ligandH.pdb
REMARK  8 active torsions:
REMARK  status: ('A' for Active; 'I' for Inactive)
REMARK    1  A    between atoms: _5  and  _11
REMARK    2  A    between atoms: _19  and  _21
REMARK    3  A    between atoms: _22  and  _66
REMARK    4  A    between atoms: _27  and  _30
REMARK    5  A    between atoms: _32  and  _33
REMARK    6  A    between atoms: _38  and  _43
REMARK    7  A    between atoms: _43  and  _46
REMARK    8  A    between atoms: _53  and  _55
REMARK                            x       y       z     vdW  Elec       q    Type
REMARK                         _______ _______ _______ _____ _____    ______ ____
ROOT
ATOM     10  C   UNL     1      -0.175   8.176  42.720  0.00  0.00    +0.038 A 
ATOM     11  C   UNL     1       0.854   8.951  43.314  0.00  0.00    +0.047 A 
ATOM     12  C   UNL     1       1.748   8.379  44.310  0.00  0.00    +0.035 A 
ATOM     32  C   UNL     1       1.567   7.013  44.675  0.00  0.00    +0.024 A 
ATOM     33  C   UNL     1       0.525   6.211  44.082  0.00  0.00    +0.007 A 
ATOM     34  C   UNL     1      -0.361   6.770  43.102  0.00  0.00    -0.029 A 
ATOM     35  C   UNL     1      -1.463   5.866  42.504  0.00  0.00    +0.045 C 
ENDROOT
BRANCH  10   9
ATOM      4  C   UNL     1      -1.429   9.105  38.182  0.00  0.00    +0.077 A 
ATOM      5  C   UNL     1      -0.324   8.355  37.660  0.00  0.00    +0.048 A 
ATOM      6  C   UNL     1       0.548   7.751  38.593  0.00  0.00    +0.116 A 
ATOM      7  N   UNL     1       0.322   7.893  39.945  0.00  0.00    -0.223 NA
ATOM      8  C   UNL     1      -0.753   8.626  40.415  0.00  0.00    +0.220 A 
ATOM      9  N   UNL     1      -1.004   8.776  41.770  0.00  0.00    -0.283 N 
ATOM     36  H   UNL     1      -1.803   9.330  42.076  0.00  0.00    +0.155 HD
ATOM     37  N   UNL     1      -1.599   9.213  39.544  0.00  0.00    -0.214 NA
BRANCH   4   3
ATOM      1  C   UNL     1      -4.379   9.801  35.709  0.00  0.00    +0.020 A 
ATOM      2  C   UNL     1      -3.424   9.083  36.521  0.00  0.00    +0.013 A 
ATOM      3  C   UNL     1      -2.440   9.799  37.323  0.00  0.00    +0.019 A 
ATOM     38  C   UNL     1      -2.450  11.254  37.281  0.00  0.00    +0.120 A 
ATOM     39  N   UNL     1      -3.381  11.918  36.488  0.00  0.00    -0.263 NA
ATOM     40  C   UNL     1      -4.331  11.239  35.711  0.00  0.00    +0.111 A 
ENDBRANCH   4   3
ENDBRANCH  10   9
BRANCH  12  13
ATOM     13  N   UNL     1       2.805   9.119  44.953  0.00  0.00    -0.281 N 
ATOM     14  C   UNL     1       2.766   9.773  46.173  0.00  0.00    +0.248 C 
ATOM     30  O   UNL     1       1.743  10.002  46.802  0.00  0.00    -0.270 OA
ATOM     31  H   UNL     1       3.689   9.166  44.447  0.00  0.00    +0.155 HD
BRANCH  14  15
ATOM     15  C   UNL     1       4.046  10.256  46.775  0.00  0.00    +0.037 A 
ATOM     16  C   UNL     1       4.829  11.321  46.144  0.00  0.00    +0.013 A 
ATOM     17  C   UNL     1       6.069  11.756  46.736  0.00  0.00    +0.005 A 
ATOM     18  C   UNL     1       6.533  11.125  47.969  0.00  0.00    -0.033 A 
ATOM     28  C   UNL     1       5.734  10.074  48.577  0.00  0.00    +0.005 A 
ATOM     29  C   UNL     1       4.519   9.644  47.999  0.00  0.00    +0.013 A 
BRANCH  18  19
ATOM     19  C   UNL     1       7.855  11.511  48.660  0.00  0.00    +0.119 C 
BRANCH  19  20
ATOM     20  N   UNL     1       8.773  10.399  49.049  0.00  0.00    -0.302 NA
ATOM     21  C   UNL     1      10.057  10.917  49.703  0.00  0.00    +0.066 C 
ATOM     22  C   UNL     1      10.996   9.739  50.124  0.00  0.00    -0.064 C 
ATOM     23  N   UNL     1      11.319   8.885  48.897  0.00  0.00    +0.379 N 
ATOM     24  C   UNL     1      12.248   7.811  49.279  0.00  0.00    -0.096 C 
ATOM     25  H   UNL     1      11.841   9.537  48.159  0.00  0.00    -0.082 HD
ATOM     26  C   UNL     1      10.047   8.368  48.239  0.00  0.00    -0.064 C 
ATOM     27  C   UNL     1       9.109   9.544  47.852  0.00  0.00    +0.066 C 
ENDBRANCH  19  20
ENDBRANCH  18  19
ENDBRANCH  14  15
ENDBRANCH  12  13
TORSDOF 6
ENDMDL
MODEL 2
REMARK VINA RESULT:      -7.7      7.148     12.988
REMARK  Name = C:\Users\Docking\Desktop\test protocol\1iep_ligandH.pdb
REMARK  8 active torsions:
REMARK  status: ('A' for Active; 'I' for Inactive)
REMARK    1  A    between atoms: _5  and  _11
REMARK    2  A    between atoms: _19  and  _21
REMARK    3  A    between atoms: _22  and  _66
REMARK    4  A    between atoms: _27  and  _30
REMARK    5  A    between atoms: _32  and  _33
REMARK    6  A    between atoms: _38  and  _43
REMARK    7  A    between atoms: _43  and  _46
REMARK    8  A    between atoms: _53  and  _55
REMARK                            x       y       z     vdW  Elec       q    Type
REMARK                         _______ _______ _______ _____ _____    ______ ____
ROOT
ATOM     10  C   UNL     1      -2.830   1.480  46.404  0.00  0.00    +0.038 A 
ATOM     11  C   UNL     1      -2.497   2.417  45.393  0.00  0.00    +0.047 A 
ATOM     12  C   UNL     1      -2.481   3.846  45.667  0.00  0.00    +0.035 A 
ATOM     32  C   UNL     1      -2.806   4.285  46.983  0.00  0.00    +0.024 A 
ATOM     33  C   UNL     1      -3.147   3.346  48.023  0.00  0.00    +0.007 A 
ATOM     34  C   UNL     1      -3.168   1.936  47.758  0.00  0.00    -0.029 A 
ATOM     35  C   UNL     1      -3.547   0.976  48.909  0.00  0.00    +0.045 C 
ENDROOT
BRANCH  10   9
ATOM      4  C   UNL     1      -5.002  -2.495  44.819  0.00  0.00    +0.077 A 
ATOM      5  C   UNL     1      -6.249  -1.811  44.633  0.00  0.00    +0.048 A 
ATOM      6  C   UNL     1      -6.292  -0.438  44.965  0.00  0.00    +0.116 A 
ATOM      7  N   UNL     1      -5.165   0.193  45.445  0.00  0.00    -0.223 NA
ATOM      8  C   UNL     1      -3.978  -0.497  45.613  0.00  0.00    +0.220 A 
ATOM      9  N   UNL     1      -2.830   0.120  46.086  0.00  0.00    -0.283 N 
ATOM     36  H   UNL     1      -1.976  -0.425  46.203  0.00  0.00    +0.155 HD
ATOM     37  N   UNL     1      -3.912  -1.809  45.305  0.00  0.00    -0.214 NA
BRANCH   4   3
ATOM      1  C   UNL     1      -4.305  -5.848  42.928  0.00  0.00    +0.020 A 
ATOM      2  C   UNL     1      -4.494  -4.437  43.172  0.00  0.00    +0.013 A 
ATOM      3  C   UNL     1      -4.798  -3.946  44.510  0.00  0.00    +0.019 A 
ATOM     38  C   UNL     1      -4.903  -4.918  45.588  0.00  0.00    +0.120 A 
ATOM     39  N   UNL     1      -4.718  -6.271  45.323  0.00  0.00    -0.263 NA
ATOM     40  C   UNL     1      -4.427  -6.755  44.039  0.00  0.00    +0.111 A 
ENDBRANCH   4   3
ENDBRANCH  10   9
BRANCH  12  13
ATOM     13  N   UNL     1      -2.159   4.845  44.678  0.00  0.00    -0.281 N 
ATOM     14  C   UNL     1      -0.904   5.268  44.273  0.00  0.00    +0.248 C 
ATOM     30  O   UNL     1       0.137   5.002  44.856  0.00  0.00    -0.270 OA
ATOM     31  H   UNL     1      -2.953   5.294  44.221  0.00  0.00    +0.155 HD
BRANCH  14  15
ATOM     15  C   UNL     1      -0.789   6.122  43.052  0.00  0.00    +0.037 A 
ATOM     16  C   UNL     1      -1.897   6.239  42.099  0.00  0.00    +0.013 A 
ATOM     17  C   UNL     1      -1.754   7.057  40.921  0.00  0.00    +0.005 A 
ATOM     18  C   UNL     1      -0.498   7.765  40.689  0.00  0.00    -0.033 A 
ATOM     28  C   UNL     1       0.583   7.636  41.652  0.00  0.00    +0.005 A 
ATOM     29  C   UNL     1       0.447   6.835  42.808  0.00  0.00    +0.013 A 
BRANCH  18  19
ATOM     19  C   UNL     1      -0.249   8.643  39.447  0.00  0.00    +0.119 C 
BRANCH  19  20
ATOM     20  N   UNL     1      -1.449   9.139  38.710  0.00  0.00    -0.302 NA
ATOM     21  C   UNL     1      -1.544   8.545  37.301  0.00  0.00    +0.066 C 
ATOM     22  C   UNL     1      -2.817   9.057  36.552  0.00  0.00    -0.064 C 
ATOM     23  N   UNL     1      -2.791  10.585  36.494  0.00  0.00    +0.379 N 
ATOM     24  C   UNL     1      -3.957  11.067  35.740  0.00  0.00    -0.096 C 
ATOM     25  H   UNL     1      -1.877  10.887  35.933  0.00  0.00    -0.082 HD
ATOM     26  C   UNL     1      -2.694  11.184  37.890  0.00  0.00    -0.064 C 
ATOM     27  C   UNL     1      -1.442  10.646  38.637  0.00  0.00    +0.066 C 
ENDBRANCH  19  20
ENDBRANCH  18  19
ENDBRANCH  14  15
ENDBRANCH  12  13
TORSDOF 6
ENDMDL
MODEL 3
REMARK VINA RESULT:      -7.6     22.076     26.366
REMARK  Name = C:\Users\Docking\Desktop\test protocol\1iep_ligandH.pdb
REMARK  8 active torsions:
REMARK  status: ('A' for Active; 'I' for Inactive)
REMARK    1  A    between atoms: _5  and  _11
REMARK    2  A    between atoms: _19  and  _21
REMARK    3  A    between atoms: _22  and  _66
REMARK    4  A    between atoms: _27  and  _30
REMARK    5  A    between atoms: _32  and  _33
REMARK    6  A    between atoms: _38  and  _43
REMARK    7  A    between atoms: _43  and  _46
REMARK    8  A    between atoms: _53  and  _55
REMARK                            x       y       z     vdW  Elec       q    Type
REMARK                         _______ _______ _______ _____ _____    ______ ____
ROOT
ATOM     10  C   UNL     1      15.061  -5.826  29.544  0.00  0.00    +0.038 A 
ATOM     11  C   UNL     1      13.880  -5.501  28.830  0.00  0.00    +0.047 A 
ATOM     12  C   UNL     1      12.639  -6.226  29.058  0.00  0.00    +0.035 A 
ATOM     32  C   UNL     1      12.638  -7.275  30.023  0.00  0.00    +0.024 A 
ATOM     33  C   UNL     1      13.830  -7.619  30.756  0.00  0.00    +0.007 A 
ATOM     34  C   UNL     1      15.057  -6.909  30.534  0.00  0.00    -0.029 A 
ATOM     35  C   UNL     1      16.307  -7.326  31.344  0.00  0.00    +0.045 C 
ENDROOT
BRANCH  10   9
ATOM      4  C   UNL     1      17.935  -2.048  30.255  0.00  0.00    +0.077 A 
ATOM      5  C   UNL     1      17.030  -1.463  31.203  0.00  0.00    +0.048 A 
ATOM      6  C   UNL     1      15.833  -2.163  31.474  0.00  0.00    +0.116 A 
ATOM      7  N   UNL     1      15.571  -3.358  30.839  0.00  0.00    -0.223 NA
ATOM      8  C   UNL     1      16.464  -3.893  29.929  0.00  0.00    +0.220 A 
ATOM      9  N   UNL     1      16.224  -5.097  29.285  0.00  0.00    -0.283 N 
ATOM     36  H   UNL     1      16.905  -5.454  28.615  0.00  0.00    +0.155 HD
ATOM     37  N   UNL     1      17.613  -3.243  29.652  0.00  0.00    -0.214 NA
BRANCH   4   3
ATOM      1  C   UNL     1      21.221   0.073  30.298  0.00  0.00    +0.020 A 
ATOM      2  C   UNL     1      19.962  -0.495  30.721  0.00  0.00    +0.013 A 
ATOM      3  C   UNL     1      19.242  -1.430  29.866  0.00  0.00    +0.019 A 
ATOM     38  C   UNL     1      19.828  -1.773  28.579  0.00  0.00    +0.120 A 
ATOM     39  N   UNL     1      21.042  -1.209  28.198  0.00  0.00    -0.263 NA
ATOM     40  C   UNL     1      21.743  -0.307  29.012  0.00  0.00    +0.111 A 
ENDBRANCH   4   3
ENDBRANCH  10   9
BRANCH  12  13
ATOM     13  N   UNL     1      11.410  -5.946  28.358  0.00  0.00    -0.281 N 
ATOM     14  C   UNL     1      11.172  -6.015  26.995  0.00  0.00    +0.248 C 
ATOM     30  O   UNL     1      12.043  -6.124  26.145  0.00  0.00    -0.270 OA
ATOM     31  H   UNL     1      10.620  -5.661  28.937  0.00  0.00    +0.155 HD
BRANCH  14  15
ATOM     15  C   UNL     1       9.762  -5.939  26.504  0.00  0.00    +0.037 A 
ATOM     16  C   UNL     1       8.742  -5.183  27.235  0.00  0.00    +0.013 A 
ATOM     17  C   UNL     1       7.386  -5.140  26.749  0.00  0.00    +0.005 A 
ATOM     18  C   UNL     1       7.042  -5.855  25.522  0.00  0.00    -0.033 A 
ATOM     28  C   UNL     1       8.075  -6.593  24.814  0.00  0.00    +0.005 A 
ATOM     29  C   UNL     1       9.405  -6.639  25.288  0.00  0.00    +0.013 A 
BRANCH  18  19
ATOM     19  C   UNL     1       5.616  -5.881  24.941  0.00  0.00    +0.119 C 
BRANCH  19  20
ATOM     20  N   UNL     1       4.548  -6.502  25.780  0.00  0.00    -0.302 NA
ATOM     21  C   UNL     1       5.010  -7.813  26.422  0.00  0.00    +0.066 C 
ATOM     22  C   UNL     1       3.888  -8.437  27.313  0.00  0.00    -0.064 C 
ATOM     23  N   UNL     1       2.633  -8.661  26.467  0.00  0.00    +0.379 N 
ATOM     24  C   UNL     1       1.595  -9.301  27.288  0.00  0.00    -0.096 C 
ATOM     25  H   UNL     1       2.900  -9.368  25.648  0.00  0.00    -0.082 HD
ATOM     26  C   UNL     1       2.168  -7.363  25.823  0.00  0.00    -0.064 C 
ATOM     27  C   UNL     1       3.301  -6.736  24.963  0.00  0.00    +0.066 C 
ENDBRANCH  19  20
ENDBRANCH  18  19
ENDBRANCH  14  15
ENDBRANCH  12  13
TORSDOF 6
ENDMDL
MODEL 4
REMARK VINA RESULT:      -7.6     11.065     18.547
REMARK  Name = C:\Users\Docking\Desktop\test protocol\1iep_ligandH.pdb
REMARK  8 active torsions:
REMARK  status: ('A' for Active; 'I' for Inactive)
REMARK    1  A    between atoms: _5  and  _11
REMARK    2  A    between atoms: _19  and  _21
REMARK    3  A    between atoms: _22  and  _66
REMARK    4  A    between atoms: _27  and  _30
REMARK    5  A    between atoms: _32  and  _33
REMARK    6  A    between atoms: _38  and  _43
REMARK    7  A    between atoms: _43  and  _46
REMARK    8  A    between atoms: _53  and  _55
REMARK                            x       y       z     vdW  Elec       q    Type
REMARK                         _______ _______ _______ _____ _____    ______ ____
ROOT
ATOM     10  C   UNL     1      16.743   5.461  49.285  0.00  0.00    +0.038 A 
ATOM     11  C   UNL     1      16.566   4.054  49.283  0.00  0.00    +0.047 A 
ATOM     12  C   UNL     1      17.643   3.159  49.675  0.00  0.00    +0.035 A 
ATOM     32  C   UNL     1      18.888   3.731  50.067  0.00  0.00    +0.024 A 
ATOM     33  C   UNL     1      19.086   5.160  50.074  0.00  0.00    +0.007 A 
ATOM     34  C   UNL     1      18.028   6.047  49.685  0.00  0.00    -0.029 A 
ATOM     35  C   UNL     1      18.299   7.570  49.706  0.00  0.00    +0.045 C 
ENDROOT
BRANCH  10   9
ATOM      4  C   UNL     1      12.357   7.289  49.959  0.00  0.00    +0.077 A 
ATOM      5  C   UNL     1      12.167   6.542  51.169  0.00  0.00    +0.048 A 
ATOM      6  C   UNL     1      13.220   5.694  51.579  0.00  0.00    +0.116 A 
ATOM      7  N   UNL     1      14.372   5.606  50.828  0.00  0.00    -0.223 NA
ATOM      8  C   UNL     1      14.522   6.339  49.665  0.00  0.00    +0.220 A 
ATOM      9  N   UNL     1      15.675   6.273  48.898  0.00  0.00    -0.283 N 
ATOM     36  H   UNL     1      15.744   6.824  48.043  0.00  0.00    +0.155 HD
ATOM     37  N   UNL     1      13.531   7.156  49.251  0.00  0.00    -0.214 NA
BRANCH   4   3
ATOM      1  C   UNL     1       9.365   8.768  47.918  0.00  0.00    +0.020 A 
ATOM      2  C   UNL     1      10.327   7.819  48.430  0.00  0.00    +0.013 A 
ATOM      3  C   UNL     1      11.338   8.231  49.396  0.00  0.00    +0.019 A 
ATOM     38  C   UNL     1      11.348   9.620  49.828  0.00  0.00    +0.120 A 
ATOM     39  N   UNL     1      10.410  10.512  49.317  0.00  0.00    -0.263 NA
ATOM     40  C   UNL     1       9.434  10.128  48.385  0.00  0.00    +0.111 A 
ENDBRANCH   4   3
ENDBRANCH  10   9
BRANCH  12  13
ATOM     13  N   UNL     1      17.524   1.722  49.685  0.00  0.00    -0.281 N 
ATOM     14  C   UNL     1      17.534   0.859  48.602  0.00  0.00    +0.248 C 
ATOM     30  O   UNL     1      17.433   1.212  47.436  0.00  0.00    -0.270 OA
ATOM     31  H   UNL     1      17.420   1.288  50.603  0.00  0.00    +0.155 HD
BRANCH  14  15
ATOM     15  C   UNL     1      17.661  -0.610  48.849  0.00  0.00    +0.037 A 
ATOM     16  C   UNL     1      18.568  -1.132  49.875  0.00  0.00    +0.013 A 
ATOM     17  C   UNL     1      18.684  -2.554  50.081  0.00  0.00    +0.005 A 
ATOM     18  C   UNL     1      17.889  -3.464  49.260  0.00  0.00    -0.033 A 
ATOM     28  C   UNL     1      16.994  -2.919  48.254  0.00  0.00    +0.005 A 
ATOM     29  C   UNL     1      16.878  -1.526  48.047  0.00  0.00    +0.013 A 
BRANCH  18  19
ATOM     19  C   UNL     1      17.965  -4.996  49.397  0.00  0.00    +0.119 C 
BRANCH  19  20
ATOM     20  N   UNL     1      18.842  -5.726  48.434  0.00  0.00    -0.302 NA
ATOM     21  C   UNL     1      18.210  -7.039  47.963  0.00  0.00    +0.066 C 
ATOM     22  C   UNL     1      19.130  -7.779  46.939  0.00  0.00    -0.064 C 
ATOM     23  N   UNL     1      20.497  -8.034  47.576  0.00  0.00    +0.379 N 
ATOM     24  C   UNL     1      21.345  -8.780  46.636  0.00  0.00    -0.096 C 
ATOM     25  H   UNL     1      20.337  -8.677  48.473  0.00  0.00    -0.082 HD
ATOM     26  C   UNL     1      21.131  -6.734  48.050  0.00  0.00    -0.064 C 
ATOM     27  C   UNL     1      20.195  -5.992  49.045  0.00  0.00    +0.066 C 
ENDBRANCH  19  20
ENDBRANCH  18  19
ENDBRANCH  14  15
ENDBRANCH  12  13
TORSDOF 6
ENDMDL
MODEL 5
REMARK VINA RESULT:      -7.5      5.637      9.357
REMARK  Name = C:\Users\Docking\Desktop\test protocol\1iep_ligandH.pdb
REMARK  8 active torsions:
REMARK  status: ('A' for Active; 'I' for Inactive)
REMARK    1  A    between atoms: _5  and  _11
REMARK    2  A    between atoms: _19  and  _21
REMARK    3  A    between atoms: _22  and  _66
REMARK    4  A    between atoms: _27  and  _30
REMARK    5  A    between atoms: _32  and  _33
REMARK    6  A    between atoms: _38  and  _43
REMARK    7  A    between atoms: _43  and  _46
REMARK    8  A    between atoms: _53  and  _55
REMARK                            x       y       z     vdW  Elec       q    Type
REMARK                         _______ _______ _______ _____ _____    ______ ____
ROOT
ATOM     10  C   UNL     1      -0.077   8.478  42.259  0.00  0.00    +0.038 A 
ATOM     11  C   UNL     1      -0.660   7.407  42.982  0.00  0.00    +0.047 A 
ATOM     12  C   UNL     1       0.117   6.633  43.938  0.00  0.00    +0.035 A 
ATOM     32  C   UNL     1       1.485   6.979  44.134  0.00  0.00    +0.024 A 
ATOM     33  C   UNL     1       2.095   8.064  43.407  0.00  0.00    +0.007 A 
ATOM     34  C   UNL     1       1.334   8.830  42.461  0.00  0.00    -0.029 A 
ATOM     35  C   UNL     1       2.041   9.978  41.704  0.00  0.00    +0.045 C 
ENDROOT
BRANCH  10   9
ATOM      4  C   UNL     1      -1.648   9.387  37.816  0.00  0.00    +0.077 A 
ATOM      5  C   UNL     1      -0.799   8.380  37.246  0.00  0.00    +0.048 A 
ATOM      6  C   UNL     1       0.032   7.656  38.130  0.00  0.00    +0.116 A 
ATOM      7  N   UNL     1       0.007   7.926  39.481  0.00  0.00    -0.223 NA
ATOM      8  C   UNL     1      -0.822   8.905  39.997  0.00  0.00    +0.220 A 
ATOM      9  N   UNL     1      -0.869   9.188  41.354  0.00  0.00    -0.283 N 
ATOM     36  H   UNL     1      -1.489   9.922  41.694  0.00  0.00    +0.155 HD
ATOM     37  N   UNL     1      -1.624   9.611  39.174  0.00  0.00    -0.214 NA
BRANCH   4   3
ATOM      1  C   UNL     1      -4.554  10.539  35.464  0.00  0.00    +0.020 A 
ATOM      2  C   UNL     1      -3.677   9.677  36.222  0.00  0.00    +0.013 A 
ATOM      3  C   UNL     1      -2.586  10.233  37.012  0.00  0.00    +0.019 A 
ATOM     38  C   UNL     1      -2.408  11.678  37.014  0.00  0.00    +0.120 A 
ATOM     39  N   UNL     1      -3.268  12.483  36.273  0.00  0.00    -0.263 NA
ATOM     40  C   UNL     1      -4.321  11.958  35.508  0.00  0.00    +0.111 A 
ENDBRANCH   4   3
ENDBRANCH  10   9
BRANCH  12  13
ATOM     13  N   UNL     1      -0.420   5.529  44.695  0.00  0.00    -0.281 N 
ATOM     14  C   UNL     1      -1.029   5.566  45.939  0.00  0.00    +0.248 C 
ATOM     30  O   UNL     1      -1.015   6.532  46.687  0.00  0.00    -0.270 OA
ATOM     31  H   UNL     1      -0.340   4.609  44.262  0.00  0.00    +0.155 HD
BRANCH  14  15
ATOM     15  C   UNL     1      -1.747   4.350  46.427  0.00  0.00    +0.037 A 
ATOM     16  C   UNL     1      -2.203   3.312  45.499  0.00  0.00    +0.013 A 
ATOM     17  C   UNL     1      -2.908   2.156  45.995  0.00  0.00    +0.005 A 
ATOM     18  C   UNL     1      -3.160   2.032  47.428  0.00  0.00    -0.033 A 
ATOM     28  C   UNL     1      -2.693   3.074  48.328  0.00  0.00    +0.005 A 
ATOM     29  C   UNL     1      -2.002   4.209  47.845  0.00  0.00    +0.013 A 
BRANCH  18  19
ATOM     19  C   UNL     1      -3.923   0.844  48.043  0.00  0.00    +0.119 C 
BRANCH  19  20
ATOM     20  N   UNL     1      -3.115  -0.200  48.741  0.00  0.00    -0.302 NA
ATOM     21  C   UNL     1      -2.931  -1.454  47.880  0.00  0.00    +0.066 C 
ATOM     22  C   UNL     1      -2.065  -2.527  48.616  0.00  0.00    -0.064 C 
ATOM     23  N   UNL     1      -2.720  -2.879  49.953  0.00  0.00    +0.379 N 
ATOM     24  C   UNL     1      -1.939  -3.930  50.621  0.00  0.00    -0.096 C 
ATOM     25  H   UNL     1      -3.731  -3.295  49.734  0.00  0.00    -0.082 HD
ATOM     26  C   UNL     1      -2.909  -1.637  50.813  0.00  0.00    -0.064 C 
ATOM     27  C   UNL     1      -3.747  -0.566  50.061  0.00  0.00    +0.066 C 
ENDBRANCH  19  20
ENDBRANCH  18  19
ENDBRANCH  14  15
ENDBRANCH  12  13
TORSDOF 6
ENDMDL
