MODEL 1
REMARK VINA RESULT:      -9.3      0.000      0.000
REMARK  Name = C:\Users\Docking\Desktop\test protocol\1iep_ligandH.pdb
REMARK  8 active torsions:
REMARK  status: ('A' for Active; 'I' for Inactive)
REMARK    1  A    between atoms: _5  and  _11
REMARK    2  A    between atoms: _19  and  _21
REMARK    3  A    between atoms: _22  and  _66
REMARK    4  A    between atoms: _27  and  _30
REMARK    5  A    between atoms: _32  and  _33
REMARK    6  A    between atoms: _38  and  _43
REMARK    7  A    between atoms: _43  and  _46
REMARK    8  A    between atoms: _53  and  _55
REMARK                            x       y       z     vdW  Elec       q    Type
REMARK                         _______ _______ _______ _____ _____    ______ ____
ROOT
ATOM     10  C   UNL     1      48.211  58.929  22.053  0.00  0.00    +0.038 A 
ATOM     11  C   UNL     1      47.325  58.431  21.063  0.00  0.00    +0.047 A 
ATOM     12  C   UNL     1      46.059  59.091  20.786  0.00  0.00    +0.035 A 
ATOM     32  C   UNL     1      45.728  60.259  21.533  0.00  0.00    +0.024 A 
ATOM     33  C   UNL     1      46.616  60.778  22.544  0.00  0.00    +0.007 A 
ATOM     34  C   UNL     1      47.865  60.129  22.823  0.00  0.00    -0.029 A 
ATOM     35  C   UNL     1      48.775  60.726  23.922  0.00  0.00    +0.045 C 
ENDROOT
BRANCH  10   9
ATOM      4  C   UNL     1      50.751  54.912  22.722  0.00  0.00    +0.077 A 
ATOM      5  C   UNL     1      49.579  54.087  22.644  0.00  0.00    +0.048 A 
ATOM      6  C   UNL     1      48.342  54.737  22.437  0.00  0.00    +0.116 A 
ATOM      7  N   UNL     1      48.291  56.109  22.319  0.00  0.00    -0.223 NA
ATOM      8  C   UNL     1      49.440  56.874  22.401  0.00  0.00    +0.220 A 
ATOM      9  N   UNL     1      49.413  58.255  22.278  0.00  0.00    -0.283 N 
ATOM     36  H   UNL     1      50.282  58.785  22.352  0.00  0.00    +0.155 HD
ATOM     37  N   UNL     1      50.634  56.278  22.600  0.00  0.00    -0.214 NA
BRANCH   4   3
ATOM      1  C   UNL     1      54.000  52.753  22.437  0.00  0.00    +0.020 A 
ATOM      2  C   UNL     1      52.659  53.233  22.195  0.00  0.00    +0.013 A 
ATOM      3  C   UNL     1      52.132  54.373  22.934  0.00  0.00    +0.019 A 
ATOM     38  C   UNL     1      52.993  55.010  23.919  0.00  0.00    +0.120 A 
ATOM     39  N   UNL     1      54.280  54.524  24.132  0.00  0.00    -0.263 NA
ATOM     40  C   UNL     1      54.798  53.427  23.427  0.00  0.00    +0.111 A 
ENDBRANCH   4   3
ENDBRANCH  10   9
BRANCH  12  13
ATOM     13  N   UNL     1      45.116  58.627  19.799  0.00  0.00    -0.281 N 
ATOM     14  C   UNL     1      44.944  59.086  18.503  0.00  0.00    +0.248 C 
ATOM     30  O   UNL     1      45.436  60.115  18.063  0.00  0.00    -0.270 OA
ATOM     31  H   UNL     1      44.499  57.869  20.091  0.00  0.00    +0.155 HD
BRANCH  14  15
ATOM     15  C   UNL     1      44.093  58.294  17.564  0.00  0.00    +0.037 A 
ATOM     16  C   UNL     1      44.686  57.510  16.477  0.00  0.00    +0.013 A 
ATOM     17  C   UNL     1      43.840  56.769  15.575  0.00  0.00    +0.005 A 
ATOM     18  C   UNL     1      42.391  56.808  15.757  0.00  0.00    -0.033 A 
ATOM     28  C   UNL     1      41.830  57.590  16.846  0.00  0.00    +0.005 A 
ATOM     29  C   UNL     1      42.655  58.318  17.731  0.00  0.00    +0.013 A 
BRANCH  18  19
ATOM     19  C   UNL     1      41.412  56.066  14.829  0.00  0.00    +0.119 C 
BRANCH  19  20
ATOM     20  N   UNL     1      41.307  54.585  14.990  0.00  0.00    -0.302 NA
ATOM     21  C   UNL     1      39.960  54.166  15.585  0.00  0.00    +0.066 C 
ATOM     22  C   UNL     1      39.858  52.612  15.726  0.00  0.00    -0.064 C 
ATOM     23  N   UNL     1      41.014  52.104  16.590  0.00  0.00    +0.379 N 
ATOM     24  C   UNL     1      40.888  50.651  16.773  0.00  0.00    -0.096 C 
ATOM     25  H   UNL     1      40.920  52.581  17.594  0.00  0.00    -0.082 HD
ATOM     26  C   UNL     1      42.357  52.519  16.007  0.00  0.00    -0.064 C 
ATOM     27  C   UNL     1      42.436  54.062  15.844  0.00  0.00    +0.066 C 
ENDBRANCH  19  20
ENDBRANCH  18  19
ENDBRANCH  14  15
ENDBRANCH  12  13
TORSDOF 6
ENDMDL
MODEL 2
REMARK VINA RESULT:      -8.9      7.318     13.369
REMARK  Name = C:\Users\Docking\Desktop\test protocol\1iep_ligandH.pdb
REMARK  8 active torsions:
REMARK  status: ('A' for Active; 'I' for Inactive)
REMARK    1  A    between atoms: _5  and  _11
REMARK    2  A    between atoms: _19  and  _21
REMARK    3  A    between atoms: _22  and  _66
REMARK    4  A    between atoms: _27  and  _30
REMARK    5  A    between atoms: _32  and  _33
REMARK    6  A    between atoms: _38  and  _43
REMARK    7  A    between atoms: _43  and  _46
REMARK    8  A    between atoms: _53  and  _55
REMARK                            x       y       z     vdW  Elec       q    Type
REMARK                         _______ _______ _______ _____ _____    ______ ____
ROOT
ATOM     10  C   UNL     1      37.125  53.221  17.566  0.00  0.00    +0.038 A 
ATOM     11  C   UNL     1      37.278  51.857  17.922  0.00  0.00    +0.047 A 
ATOM     12  C   UNL     1      36.187  50.909  17.759  0.00  0.00    +0.035 A 
ATOM     32  C   UNL     1      34.953  51.384  17.226  0.00  0.00    +0.024 A 
ATOM     33  C   UNL     1      34.779  52.768  16.860  0.00  0.00    +0.007 A 
ATOM     34  C   UNL     1      35.852  53.708  17.021  0.00  0.00    -0.029 A 
ATOM     35  C   UNL     1      35.607  55.181  16.618  0.00  0.00    +0.045 C 
ENDROOT
BRANCH  10   9
ATOM      4  C   UNL     1      40.987  55.560  15.938  0.00  0.00    +0.077 A 
ATOM      5  C   UNL     1      40.856  54.987  14.630  0.00  0.00    +0.048 A 
ATOM      6  C   UNL     1      39.785  54.090  14.419  0.00  0.00    +0.116 A 
ATOM      7  N   UNL     1      38.916  53.795  15.447  0.00  0.00    -0.223 NA
ATOM      8  C   UNL     1      39.072  54.363  16.698  0.00  0.00    +0.220 A 
ATOM      9  N   UNL     1      38.206  54.087  17.744  0.00  0.00    -0.283 N 
ATOM     36  H   UNL     1      38.359  54.521  18.654  0.00  0.00    +0.155 HD
ATOM     37  N   UNL     1      40.087  55.223  16.925  0.00  0.00    -0.214 NA
BRANCH   4   3
ATOM      1  C   UNL     1      44.469  57.290  16.364  0.00  0.00    +0.020 A 
ATOM      2  C   UNL     1      43.467  56.325  15.976  0.00  0.00    +0.013 A 
ATOM      3  C   UNL     1      42.065  56.528  16.316  0.00  0.00    +0.019 A 
ATOM     38  C   UNL     1      41.706  57.730  17.055  0.00  0.00    +0.120 A 
ATOM     39  N   UNL     1      42.693  58.641  17.417  0.00  0.00    -0.263 NA
ATOM     40  C   UNL     1      44.046  58.455  17.096  0.00  0.00    +0.111 A 
ENDBRANCH   4   3
ENDBRANCH  10   9
BRANCH  12  13
ATOM     13  N   UNL     1      36.281  49.514  18.110  0.00  0.00    -0.281 N 
ATOM     14  C   UNL     1      35.278  48.685  18.585  0.00  0.00    +0.248 C 
ATOM     30  O   UNL     1      34.191  49.075  18.984  0.00  0.00    -0.270 OA
ATOM     31  H   UNL     1      37.200  49.085  17.995  0.00  0.00    +0.155 HD
BRANCH  14  15
ATOM     15  C   UNL     1      35.522  47.212  18.638  0.00  0.00    +0.037 A 
ATOM     16  C   UNL     1      35.799  46.532  19.907  0.00  0.00    +0.013 A 
ATOM     17  C   UNL     1      36.048  45.113  19.928  0.00  0.00    +0.005 A 
ATOM     18  C   UNL     1      36.021  44.362  18.674  0.00  0.00    -0.033 A 
ATOM     28  C   UNL     1      35.739  45.061  17.431  0.00  0.00    +0.005 A 
ATOM     29  C   UNL     1      35.495  46.452  17.407  0.00  0.00    +0.013 A 
BRANCH  18  19
ATOM     19  C   UNL     1      36.296  42.849  18.600  0.00  0.00    +0.119 C 
BRANCH  19  20
ATOM     20  N   UNL     1      36.751  42.301  17.287  0.00  0.00    -0.302 NA
ATOM     21  C   UNL     1      35.711  41.364  16.665  0.00  0.00    +0.066 C 
ATOM     22  C   UNL     1      36.193  40.817  15.282  0.00  0.00    -0.064 C 
ATOM     23  N   UNL     1      37.532  40.099  15.459  0.00  0.00    +0.379 N 
ATOM     24  C   UNL     1      37.960  39.534  14.171  0.00  0.00    -0.096 C 
ATOM     25  H   UNL     1      37.371  39.251  16.164  0.00  0.00    -0.082 HD
ATOM     26  C   UNL     1      38.571  41.023  16.079  0.00  0.00    -0.064 C 
ATOM     27  C   UNL     1      38.070  41.584  17.439  0.00  0.00    +0.066 C 
ENDBRANCH  19  20
ENDBRANCH  18  19
ENDBRANCH  14  15
ENDBRANCH  12  13
TORSDOF 6
ENDMDL
MODEL 3
REMARK VINA RESULT:      -8.7      1.439      1.866
REMARK  Name = C:\Users\Docking\Desktop\test protocol\1iep_ligandH.pdb
REMARK  8 active torsions:
REMARK  status: ('A' for Active; 'I' for Inactive)
REMARK    1  A    between atoms: _5  and  _11
REMARK    2  A    between atoms: _19  and  _21
REMARK    3  A    between atoms: _22  and  _66
REMARK    4  A    between atoms: _27  and  _30
REMARK    5  A    between atoms: _32  and  _33
REMARK    6  A    between atoms: _38  and  _43
REMARK    7  A    between atoms: _43  and  _46
REMARK    8  A    between atoms: _53  and  _55
REMARK                            x       y       z     vdW  Elec       q    Type
REMARK                         _______ _______ _______ _____ _____    ______ ____
ROOT
ATOM     10  C   UNL     1      49.009  58.558  21.930  0.00  0.00    +0.038 A 
ATOM     11  C   UNL     1      47.958  58.176  21.057  0.00  0.00    +0.047 A 
ATOM     12  C   UNL     1      46.834  59.063  20.800  0.00  0.00    +0.035 A 
ATOM     32  C   UNL     1      46.814  60.333  21.446  0.00  0.00    +0.024 A 
ATOM     33  C   UNL     1      47.874  60.737  22.336  0.00  0.00    +0.007 A 
ATOM     34  C   UNL     1      48.984  59.865  22.596  0.00  0.00    -0.029 A 
ATOM     35  C   UNL     1      50.088  60.348  23.565  0.00  0.00    +0.045 C 
ENDROOT
BRANCH  10   9
ATOM      4  C   UNL     1      50.730  54.150  22.735  0.00  0.00    +0.077 A 
ATOM      5  C   UNL     1      49.415  53.577  22.764  0.00  0.00    +0.048 A 
ATOM      6  C   UNL     1      48.322  54.453  22.574  0.00  0.00    +0.116 A 
ATOM      7  N   UNL     1      48.540  55.798  22.371  0.00  0.00    -0.223 NA
ATOM      8  C   UNL     1      49.821  56.318  22.351  0.00  0.00    +0.220 A 
ATOM      9  N   UNL     1      50.064  57.667  22.141  0.00  0.00    -0.283 N 
ATOM     36  H   UNL     1      51.023  58.012  22.141  0.00  0.00    +0.155 HD
ATOM     37  N   UNL     1      50.881  55.503  22.531  0.00  0.00    -0.214 NA
BRANCH   4   3
ATOM      1  C   UNL     1      53.228  51.185  23.256  0.00  0.00    +0.020 A 
ATOM      2  C   UNL     1      51.988  51.906  23.085  0.00  0.00    +0.013 A 
ATOM      3  C   UNL     1      51.985  53.354  22.916  0.00  0.00    +0.019 A 
ATOM     38  C   UNL     1      53.264  54.047  22.924  0.00  0.00    +0.120 A 
ATOM     39  N   UNL     1      54.443  53.327  23.092  0.00  0.00    -0.263 NA
ATOM     40  C   UNL     1      54.458  51.934  23.257  0.00  0.00    +0.111 A 
ENDBRANCH   4   3
ENDBRANCH  10   9
BRANCH  12  13
ATOM     13  N   UNL     1      45.734  58.726  19.930  0.00  0.00    -0.281 N 
ATOM     14  C   UNL     1      45.459  59.233  18.671  0.00  0.00    +0.248 C 
ATOM     30  O   UNL     1      46.002  60.215  18.187  0.00  0.00    -0.270 OA
ATOM     31  H   UNL     1      45.080  58.030  20.286  0.00  0.00    +0.155 HD
BRANCH  14  15
ATOM     15  C   UNL     1      44.420  58.559  17.833  0.00  0.00    +0.037 A 
ATOM     16  C   UNL     1      44.792  57.648  16.748  0.00  0.00    +0.013 A 
ATOM     17  C   UNL     1      43.770  57.025  15.944  0.00  0.00    +0.005 A 
ATOM     18  C   UNL     1      42.365  57.311  16.225  0.00  0.00    -0.033 A 
ATOM     28  C   UNL     1      42.024  58.215  17.311  0.00  0.00    +0.005 A 
ATOM     29  C   UNL     1      43.023  58.828  18.100  0.00  0.00    +0.013 A 
BRANCH  18  19
ATOM     19  C   UNL     1      41.209  56.708  15.405  0.00  0.00    +0.119 C 
BRANCH  19  20
ATOM     20  N   UNL     1      40.194  55.901  16.146  0.00  0.00    -0.302 NA
ATOM     21  C   UNL     1      40.135  54.454  15.647  0.00  0.00    +0.066 C 
ATOM     22  C   UNL     1      39.084  53.619  16.448  0.00  0.00    -0.064 C 
ATOM     23  N   UNL     1      37.712  54.286  16.335  0.00  0.00    +0.379 N 
ATOM     24  C   UNL     1      36.711  53.472  17.039  0.00  0.00    -0.096 C 
ATOM     25  H   UNL     1      37.434  54.307  15.256  0.00  0.00    -0.082 HD
ATOM     26  C   UNL     1      37.763  55.726  16.827  0.00  0.00    -0.064 C 
ATOM     27  C   UNL     1      38.831  56.540  16.044  0.00  0.00    +0.066 C 
ENDBRANCH  19  20
ENDBRANCH  18  19
ENDBRANCH  14  15
ENDBRANCH  12  13
TORSDOF 6
ENDMDL
MODEL 4
REMARK VINA RESULT:      -8.6      1.339      1.893
REMARK  Name = C:\Users\Docking\Desktop\test protocol\1iep_ligandH.pdb
REMARK  8 active torsions:
REMARK  status: ('A' for Active; 'I' for Inactive)
REMARK    1  A    between atoms: _5  and  _11
REMARK    2  A    between atoms: _19  and  _21
REMARK    3  A    between atoms: _22  and  _66
REMARK    4  A    between atoms: _27  and  _30
REMARK    5  A    between atoms: _32  and  _33
REMARK    6  A    between atoms: _38  and  _43
REMARK    7  A    between atoms: _43  and  _46
REMARK    8  A    between atoms: _53  and  _55
REMARK                            x       y       z     vdW  Elec       q    Type
REMARK                         _______ _______ _______ _____ _____    ______ ____
ROOT
ATOM     10  C   UNL     1      46.851  58.384  22.805  0.00  0.00    +0.038 A 
ATOM     11  C   UNL     1      46.066  58.008  21.685  0.00  0.00    +0.047 A 
ATOM     12  C   UNL     1      45.019  58.878  21.173  0.00  0.00    +0.035 A 
ATOM     32  C   UNL     1      44.799  60.126  21.825  0.00  0.00    +0.024 A 
ATOM     33  C   UNL     1      45.586  60.524  22.966  0.00  0.00    +0.007 A 
ATOM     34  C   UNL     1      46.619  59.669  23.476  0.00  0.00    -0.029 A 
ATOM     35  C   UNL     1      47.428  60.144  24.706  0.00  0.00    +0.045 C 
ENDROOT
BRANCH  10   9
ATOM      4  C   UNL     1      51.394  56.840  22.922  0.00  0.00    +0.077 A 
ATOM      5  C   UNL     1      51.821  57.842  21.989  0.00  0.00    +0.048 A 
ATOM      6  C   UNL     1      50.839  58.731  21.497  0.00  0.00    +0.116 A 
ATOM      7  N   UNL     1      49.530  58.617  21.914  0.00  0.00    -0.223 NA
ATOM      8  C   UNL     1      49.152  57.638  22.814  0.00  0.00    +0.220 A 
ATOM      9  N   UNL     1      47.843  57.510  23.254  0.00  0.00    -0.283 N 
ATOM     36  H   UNL     1      47.603  56.770  23.912  0.00  0.00    +0.155 HD
ATOM     37  N   UNL     1      50.070  56.776  23.297  0.00  0.00    -0.214 NA
BRANCH   4   3
ATOM      1  C   UNL     1      53.364  53.538  23.641  0.00  0.00    +0.020 A 
ATOM      2  C   UNL     1      52.461  54.475  23.014  0.00  0.00    +0.013 A 
ATOM      3  C   UNL     1      52.314  55.829  23.533  0.00  0.00    +0.019 A 
ATOM     38  C   UNL     1      53.102  56.206  24.697  0.00  0.00    +0.120 A 
ATOM     39  N   UNL     1      53.962  55.282  25.281  0.00  0.00    -0.263 NA
ATOM     40  C   UNL     1      54.111  53.976  24.791  0.00  0.00    +0.111 A 
ENDBRANCH   4   3
ENDBRANCH  10   9
BRANCH  12  13
ATOM     13  N   UNL     1      44.185  58.545  20.045  0.00  0.00    -0.281 N 
ATOM     14  C   UNL     1      44.415  58.819  18.706  0.00  0.00    +0.248 C 
ATOM     30  O   UNL     1      45.275  59.583  18.295  0.00  0.00    -0.270 OA
ATOM     31  H   UNL     1      43.320  58.048  20.258  0.00  0.00    +0.155 HD
BRANCH  14  15
ATOM     15  C   UNL     1      43.556  58.159  17.676  0.00  0.00    +0.037 A 
ATOM     16  C   UNL     1      42.102  58.340  17.670  0.00  0.00    +0.013 A 
ATOM     17  C   UNL     1      41.295  57.678  16.676  0.00  0.00    +0.005 A 
ATOM     18  C   UNL     1      41.942  56.829  15.678  0.00  0.00    -0.033 A 
ATOM     28  C   UNL     1      43.387  56.671  15.704  0.00  0.00    +0.005 A 
ATOM     29  C   UNL     1      44.181  57.317  16.678  0.00  0.00    +0.013 A 
BRANCH  18  19
ATOM     19  C   UNL     1      41.158  56.067  14.593  0.00  0.00    +0.119 C 
BRANCH  19  20
ATOM     20  N   UNL     1      40.482  54.799  15.001  0.00  0.00    -0.302 NA
ATOM     21  C   UNL     1      39.331  55.050  15.979  0.00  0.00    +0.066 C 
ATOM     22  C   UNL     1      38.622  53.715  16.377  0.00  0.00    -0.064 C 
ATOM     23  N   UNL     1      39.648  52.756  16.983  0.00  0.00    +0.379 N 
ATOM     24  C   UNL     1      38.973  51.523  17.412  0.00  0.00    -0.096 C 
ATOM     25  H   UNL     1      40.071  53.244  17.892  0.00  0.00    -0.082 HD
ATOM     26  C   UNL     1      40.797  52.504  16.018  0.00  0.00    -0.064 C 
ATOM     27  C   UNL     1      41.477  53.839  15.605  0.00  0.00    +0.066 C 
ENDBRANCH  19  20
ENDBRANCH  18  19
ENDBRANCH  14  15
ENDBRANCH  12  13
TORSDOF 6
ENDMDL
MODEL 5
REMARK VINA RESULT:      -8.5      9.483     14.480
REMARK  Name = C:\Users\Docking\Desktop\test protocol\1iep_ligandH.pdb
REMARK  8 active torsions:
REMARK  status: ('A' for Active; 'I' for Inactive)
REMARK    1  A    between atoms: _5  and  _11
REMARK    2  A    between atoms: _19  and  _21
REMARK    3  A    between atoms: _22  and  _66
REMARK    4  A    between atoms: _27  and  _30
REMARK    5  A    between atoms: _32  and  _33
REMARK    6  A    between atoms: _38  and  _43
REMARK    7  A    between atoms: _43  and  _46
REMARK    8  A    between atoms: _53  and  _55
REMARK                            x       y       z     vdW  Elec       q    Type
REMARK                         _______ _______ _______ _____ _____    ______ ____
ROOT
ATOM     10  C   UNL     1      35.654  52.379  18.300  0.00  0.00    +0.038 A 
ATOM     11  C   UNL     1      35.702  50.998  17.978  0.00  0.00    +0.047 A 
ATOM     12  C   UNL     1      34.927  50.023  18.729  0.00  0.00    +0.035 A 
ATOM     32  C   UNL     1      34.110  50.490  19.800  0.00  0.00    +0.024 A 
ATOM     33  C   UNL     1      34.049  51.890  20.141  0.00  0.00    +0.007 A 
ATOM     34  C   UNL     1      34.814  52.856  19.405  0.00  0.00    -0.029 A 
ATOM     35  C   UNL     1      34.716  54.343  19.819  0.00  0.00    +0.045 C 
ENDROOT
BRANCH  10   9
ATOM      4  C   UNL     1      39.698  53.619  16.031  0.00  0.00    +0.077 A 
ATOM      5  C   UNL     1      40.351  52.397  16.403  0.00  0.00    +0.048 A 
ATOM      6  C   UNL     1      39.614  51.479  17.184  0.00  0.00    +0.116 A 
ATOM      7  N   UNL     1      38.320  51.771  17.560  0.00  0.00    -0.223 NA
ATOM      8  C   UNL     1      37.721  52.960  17.186  0.00  0.00    +0.220 A 
ATOM      9  N   UNL     1      36.419  53.271  17.545  0.00  0.00    -0.283 N 
ATOM     36  H   UNL     1      36.015  54.162  17.256  0.00  0.00    +0.155 HD
ATOM     37  N   UNL     1      38.404  53.854  16.441  0.00  0.00    -0.214 NA
BRANCH   4   3
ATOM      1  C   UNL     1      41.863  56.681  14.919  0.00  0.00    +0.020 A 
ATOM      2  C   UNL     1      41.265  55.670  15.761  0.00  0.00    +0.013 A 
ATOM      3  C   UNL     1      40.344  54.687  15.205  0.00  0.00    +0.019 A 
ATOM     38  C   UNL     1      40.047  54.754  13.782  0.00  0.00    +0.120 A 
ATOM     39  N   UNL     1      40.636  55.740  12.996  0.00  0.00    -0.263 NA
ATOM     40  C   UNL     1      41.523  56.692  13.520  0.00  0.00    +0.111 A 
ENDBRANCH   4   3
ENDBRANCH  10   9
BRANCH  12  13
ATOM     13  N   UNL     1      34.942  48.608  18.454  0.00  0.00    -0.281 N 
ATOM     14  C   UNL     1      35.826  47.906  17.651  0.00  0.00    +0.248 C 
ATOM     30  O   UNL     1      36.614  48.424  16.874  0.00  0.00    -0.270 OA
ATOM     31  H   UNL     1      34.213  48.057  18.906  0.00  0.00    +0.155 HD
BRANCH  14  15
ATOM     15  C   UNL     1      35.825  46.413  17.710  0.00  0.00    +0.037 A 
ATOM     16  C   UNL     1      35.628  45.702  18.976  0.00  0.00    +0.013 A 
ATOM     17  C   UNL     1      35.648  44.261  19.008  0.00  0.00    +0.005 A 
ATOM     18  C   UNL     1      35.867  43.521  17.768  0.00  0.00    -0.033 A 
ATOM     28  C   UNL     1      36.055  44.251  16.525  0.00  0.00    +0.005 A 
ATOM     29  C   UNL     1      36.036  45.663  16.490  0.00  0.00    +0.013 A 
BRANCH  18  19
ATOM     19  C   UNL     1      35.925  41.983  17.711  0.00  0.00    +0.119 C 
BRANCH  19  20
ATOM     20  N   UNL     1      36.008  41.351  16.361  0.00  0.00    -0.302 NA
ATOM     21  C   UNL     1      34.822  40.422  16.087  0.00  0.00    +0.066 C 
ATOM     22  C   UNL     1      34.913  39.788  14.661  0.00  0.00    -0.064 C 
ATOM     23  N   UNL     1      36.236  39.030  14.527  0.00  0.00    +0.379 N 
ATOM     24  C   UNL     1      36.299  38.384  13.208  0.00  0.00    -0.096 C 
ATOM     25  H   UNL     1      36.245  38.226  15.299  0.00  0.00    -0.082 HD
ATOM     26  C   UNL     1      37.421  39.946  14.800  0.00  0.00    -0.064 C 
ATOM     27  C   UNL     1      37.305  40.594  16.208  0.00  0.00    +0.066 C 
ENDBRANCH  19  20
ENDBRANCH  18  19
ENDBRANCH  14  15
ENDBRANCH  12  13
TORSDOF 6
ENDMDL
