MODEL 1
REMARK VINA RESULT:      -7.6      0.000      0.000
REMARK  Name = C:\Users\Docking\Desktop\test protocol\1iep_ligandH.pdb
REMARK  8 active torsions:
REMARK  status: ('A' for Active; 'I' for Inactive)
REMARK    1  A    between atoms: _5  and  _11
REMARK    2  A    between atoms: _19  and  _21
REMARK    3  A    between atoms: _22  and  _66
REMARK    4  A    between atoms: _27  and  _30
REMARK    5  A    between atoms: _32  and  _33
REMARK    6  A    between atoms: _38  and  _43
REMARK    7  A    between atoms: _43  and  _46
REMARK    8  A    between atoms: _53  and  _55
REMARK                            x       y       z     vdW  Elec       q    Type
REMARK                         _______ _______ _______ _____ _____    ______ ____
ROOT
ATOM     10  C   UNL     1      -7.927  -1.828 -61.810  0.00  0.00    +0.038 A 
ATOM     11  C   UNL     1      -7.854  -2.621 -60.636  0.00  0.00    +0.047 A 
ATOM     12  C   UNL     1      -7.257  -3.947 -60.659  0.00  0.00    +0.035 A 
ATOM     32  C   UNL     1      -6.742  -4.434 -61.896  0.00  0.00    +0.024 A 
ATOM     33  C   UNL     1      -6.808  -3.642 -63.099  0.00  0.00    +0.007 A 
ATOM     34  C   UNL     1      -7.398  -2.334 -63.082  0.00  0.00    -0.029 A 
ATOM     35  C   UNL     1      -7.448  -1.532 -64.403  0.00  0.00    +0.045 C 
ENDROOT
BRANCH  10   9
ATOM      4  C   UNL     1     -11.702   1.120 -62.122  0.00  0.00    +0.077 A 
ATOM      5  C   UNL     1     -12.580   0.051 -62.502  0.00  0.00    +0.048 A 
ATOM      6  C   UNL     1     -12.019  -1.241 -62.613  0.00  0.00    +0.116 A 
ATOM      7  N   UNL     1     -10.679  -1.438 -62.360  0.00  0.00    -0.223 NA
ATOM      8  C   UNL     1      -9.860  -0.385 -61.997  0.00  0.00    +0.220 A 
ATOM      9  N   UNL     1      -8.511  -0.562 -61.730  0.00  0.00    -0.283 N 
ATOM     36  H   UNL     1      -7.938   0.242 -61.472  0.00  0.00    +0.155 HD
ATOM     37  N   UNL     1     -10.371   0.859 -61.885  0.00  0.00    -0.214 NA
BRANCH   4   3
ATOM      1  C   UNL     1     -11.793   4.920 -61.201  0.00  0.00    +0.020 A 
ATOM      2  C   UNL     1     -11.317   3.563 -61.333  0.00  0.00    +0.013 A 
ATOM      3  C   UNL     1     -12.146   2.541 -61.959  0.00  0.00    +0.019 A 
ATOM     38  C   UNL     1     -13.461   2.928 -62.446  0.00  0.00    +0.120 A 
ATOM     39  N   UNL     1     -13.893   4.243 -62.304  0.00  0.00    -0.263 NA
ATOM     40  C   UNL     1     -13.105   5.235 -61.701  0.00  0.00    +0.111 A 
ENDBRANCH   4   3
ENDBRANCH  10   9
BRANCH  12  13
ATOM     13  N   UNL     1      -7.163  -4.801 -59.501  0.00  0.00    -0.281 N 
ATOM     14  C   UNL     1      -7.981  -5.865 -59.158  0.00  0.00    +0.248 C 
ATOM     30  O   UNL     1      -9.053  -6.112 -59.690  0.00  0.00    -0.270 OA
ATOM     31  H   UNL     1      -6.400  -4.596 -58.855  0.00  0.00    +0.155 HD
BRANCH  14  15
ATOM     15  C   UNL     1      -7.553  -6.779 -58.056  0.00  0.00    +0.037 A 
ATOM     16  C   UNL     1      -8.218  -6.759 -56.751  0.00  0.00    +0.013 A 
ATOM     17  C   UNL     1      -7.775  -7.639 -55.699  0.00  0.00    +0.005 A 
ATOM     18  C   UNL     1      -6.659  -8.549 -55.950  0.00  0.00    -0.033 A 
ATOM     28  C   UNL     1      -6.021  -8.552 -57.255  0.00  0.00    +0.005 A 
ATOM     29  C   UNL     1      -6.452  -7.690 -58.288  0.00  0.00    +0.013 A 
BRANCH  18  19
ATOM     19  C   UNL     1      -6.106  -9.508 -54.879  0.00  0.00    +0.119 C 
BRANCH  19  20
ATOM     20  N   UNL     1      -5.168  -8.936 -53.868  0.00  0.00    -0.302 NA
ATOM     21  C   UNL     1      -3.742  -9.467 -54.041  0.00  0.00    +0.066 C 
ATOM     22  C   UNL     1      -2.770  -8.841 -52.989  0.00  0.00    -0.064 C 
ATOM     23  N   UNL     1      -3.290  -9.134 -51.580  0.00  0.00    +0.379 N 
ATOM     24  C   UNL     1      -2.347  -8.596 -50.588  0.00  0.00    -0.096 C 
ATOM     25  H   UNL     1      -3.319 -10.241 -51.454  0.00  0.00    -0.082 HD
ATOM     26  C   UNL     1      -4.708  -8.611 -51.400  0.00  0.00    -0.064 C 
ATOM     27  C   UNL     1      -5.660  -9.217 -52.469  0.00  0.00    +0.066 C 
ENDBRANCH  19  20
ENDBRANCH  18  19
ENDBRANCH  14  15
ENDBRANCH  12  13
TORSDOF 6
ENDMDL
MODEL 2
REMARK VINA RESULT:      -7.5     16.961     21.697
REMARK  Name = C:\Users\Docking\Desktop\test protocol\1iep_ligandH.pdb
REMARK  8 active torsions:
REMARK  status: ('A' for Active; 'I' for Inactive)
REMARK    1  A    between atoms: _5  and  _11
REMARK    2  A    between atoms: _19  and  _21
REMARK    3  A    between atoms: _22  and  _66
REMARK    4  A    between atoms: _27  and  _30
REMARK    5  A    between atoms: _32  and  _33
REMARK    6  A    between atoms: _38  and  _43
REMARK    7  A    between atoms: _43  and  _46
REMARK    8  A    between atoms: _53  and  _55
REMARK                            x       y       z     vdW  Elec       q    Type
REMARK                         _______ _______ _______ _____ _____    ______ ____
ROOT
ATOM     10  C   UNL     1     -15.129 -13.294 -43.400  0.00  0.00    +0.038 A 
ATOM     11  C   UNL     1     -15.498 -12.018 -43.899  0.00  0.00    +0.047 A 
ATOM     12  C   UNL     1     -16.896 -11.636 -44.028  0.00  0.00    +0.035 A 
ATOM     32  C   UNL     1     -17.892 -12.577 -43.637  0.00  0.00    +0.024 A 
ATOM     33  C   UNL     1     -17.535 -13.878 -43.129  0.00  0.00    +0.007 A 
ATOM     34  C   UNL     1     -16.158 -14.262 -43.002  0.00  0.00    -0.029 A 
ATOM     35  C   UNL     1     -15.834 -15.673 -42.457  0.00  0.00    +0.045 C 
ENDROOT
BRANCH  10   9
ATOM      4  C   UNL     1     -10.969 -14.758 -45.293  0.00  0.00    +0.077 A 
ATOM      5  C   UNL     1     -11.554 -14.937 -46.590  0.00  0.00    +0.048 A 
ATOM      6  C   UNL     1     -12.930 -14.649 -46.727  0.00  0.00    +0.116 A 
ATOM      7  N   UNL     1     -13.657 -14.213 -45.640  0.00  0.00    -0.223 NA
ATOM      8  C   UNL     1     -13.062 -14.053 -44.402  0.00  0.00    +0.220 A 
ATOM      9  N   UNL     1     -13.772 -13.608 -43.297  0.00  0.00    -0.283 N 
ATOM     36  H   UNL     1     -13.299 -13.510 -42.400  0.00  0.00    +0.155 HD
ATOM     37  N   UNL     1     -11.750 -14.323 -44.246  0.00  0.00    -0.214 NA
BRANCH   4   3
ATOM      1  C   UNL     1      -7.440 -14.707 -43.607  0.00  0.00    +0.020 A 
ATOM      2  C   UNL     1      -8.834 -14.422 -43.854  0.00  0.00    +0.013 A 
ATOM      3  C   UNL     1      -9.526 -15.018 -44.991  0.00  0.00    +0.019 A 
ATOM     38  C   UNL     1      -8.771 -15.906 -45.863  0.00  0.00    +0.120 A 
ATOM     39  N   UNL     1      -7.429 -16.160 -45.601  0.00  0.00    -0.263 NA
ATOM     40  C   UNL     1      -6.753 -15.591 -44.511  0.00  0.00    +0.111 A 
ENDBRANCH   4   3
ENDBRANCH  10   9
BRANCH  12  13
ATOM     13  N   UNL     1     -17.330 -10.358 -44.535  0.00  0.00    -0.281 N 
ATOM     14  C   UNL     1     -18.375 -10.099 -45.407  0.00  0.00    +0.248 C 
ATOM     30  O   UNL     1     -18.963 -10.952 -46.054  0.00  0.00    -0.270 OA
ATOM     31  H   UNL     1     -16.804  -9.546 -44.212  0.00  0.00    +0.155 HD
BRANCH  14  15
ATOM     15  C   UNL     1     -18.821  -8.685 -45.599  0.00  0.00    +0.037 A 
ATOM     16  C   UNL     1     -20.149  -8.374 -46.133  0.00  0.00    +0.013 A 
ATOM     17  C   UNL     1     -20.549  -7.002 -46.324  0.00  0.00    +0.005 A 
ATOM     18  C   UNL     1     -19.617  -5.930 -45.979  0.00  0.00    -0.033 A 
ATOM     28  C   UNL     1     -18.308  -6.268 -45.446  0.00  0.00    +0.005 A 
ATOM     29  C   UNL     1     -17.913  -7.611 -45.258  0.00  0.00    +0.013 A 
BRANCH  18  19
ATOM     19  C   UNL     1     -19.951  -4.439 -46.170  0.00  0.00    +0.119 C 
BRANCH  19  20
ATOM     20  N   UNL     1     -20.954  -3.838 -45.241  0.00  0.00    -0.302 NA
ATOM     21  C   UNL     1     -20.905  -2.308 -45.254  0.00  0.00    +0.066 C 
ATOM     22  C   UNL     1     -21.976  -1.696 -44.293  0.00  0.00    -0.064 C 
ATOM     23  N   UNL     1     -21.755  -2.233 -42.879  0.00  0.00    +0.379 N 
ATOM     24  C   UNL     1     -22.724  -1.615 -41.962  0.00  0.00    -0.096 C 
ATOM     25  H   UNL     1     -20.735  -1.921 -42.554  0.00  0.00    -0.082 HD
ATOM     26  C   UNL     1     -21.800  -3.755 -42.857  0.00  0.00    -0.064 C 
ATOM     27  C   UNL     1     -20.752  -4.352 -43.837  0.00  0.00    +0.066 C 
ENDBRANCH  19  20
ENDBRANCH  18  19
ENDBRANCH  14  15
ENDBRANCH  12  13
TORSDOF 6
ENDMDL
MODEL 3
REMARK VINA RESULT:      -7.3     40.336     43.888
REMARK  Name = C:\Users\Docking\Desktop\test protocol\1iep_ligandH.pdb
REMARK  8 active torsions:
REMARK  status: ('A' for Active; 'I' for Inactive)
REMARK    1  A    between atoms: _5  and  _11
REMARK    2  A    between atoms: _19  and  _21
REMARK    3  A    between atoms: _22  and  _66
REMARK    4  A    between atoms: _27  and  _30
REMARK    5  A    between atoms: _32  and  _33
REMARK    6  A    between atoms: _38  and  _43
REMARK    7  A    between atoms: _43  and  _46
REMARK    8  A    between atoms: _53  and  _55
REMARK                            x       y       z     vdW  Elec       q    Type
REMARK                         _______ _______ _______ _____ _____    ______ ____
ROOT
ATOM     10  C   UNL     1      -6.683   6.544 -16.761  0.00  0.00    +0.038 A 
ATOM     11  C   UNL     1      -7.963   6.645 -17.362  0.00  0.00    +0.047 A 
ATOM     12  C   UNL     1      -8.931   7.633 -16.911  0.00  0.00    +0.035 A 
ATOM     32  C   UNL     1      -8.560   8.505 -15.847  0.00  0.00    +0.024 A 
ATOM     33  C   UNL     1      -7.263   8.416 -15.223  0.00  0.00    +0.007 A 
ATOM     34  C   UNL     1      -6.305   7.441 -15.662  0.00  0.00    -0.029 A 
ATOM     35  C   UNL     1      -4.932   7.386 -14.953  0.00  0.00    +0.045 C 
ENDROOT
BRANCH  10   9
ATOM      4  C   UNL     1      -4.958   2.066 -16.857  0.00  0.00    +0.077 A 
ATOM      5  C   UNL     1      -5.891   1.622 -15.862  0.00  0.00    +0.048 A 
ATOM      6  C   UNL     1      -6.793   2.579 -15.346  0.00  0.00    +0.116 A 
ATOM      7  N   UNL     1      -6.757   3.880 -15.798  0.00  0.00    -0.223 NA
ATOM      8  C   UNL     1      -5.843   4.275 -16.758  0.00  0.00    +0.220 A 
ATOM      9  N   UNL     1      -5.793   5.577 -17.233  0.00  0.00    -0.283 N 
ATOM     36  H   UNL     1      -5.099   5.831 -17.936  0.00  0.00    +0.155 HD
ATOM     37  N   UNL     1      -4.969   3.381 -17.265  0.00  0.00    -0.214 NA
BRANCH   4   3
ATOM      1  C   UNL     1      -3.251  -0.577 -19.181  0.00  0.00    +0.020 A 
ATOM      2  C   UNL     1      -4.268   0.265 -18.594  0.00  0.00    +0.013 A 
ATOM      3  C   UNL     1      -3.944   1.172 -17.501  0.00  0.00    +0.019 A 
ATOM     38  C   UNL     1      -2.570   1.205 -17.021  0.00  0.00    +0.120 A 
ATOM     39  N   UNL     1      -1.612   0.381 -17.605  0.00  0.00    -0.263 NA
ATOM     40  C   UNL     1      -1.913  -0.497 -18.656  0.00  0.00    +0.111 A 
ENDBRANCH   4   3
ENDBRANCH  10   9
BRANCH  12  13
ATOM     13  N   UNL     1     -10.249   7.777 -17.478  0.00  0.00    -0.281 N 
ATOM     14  C   UNL     1     -10.590   7.926 -18.812  0.00  0.00    +0.248 C 
ATOM     30  O   UNL     1      -9.794   8.175 -19.706  0.00  0.00    -0.270 OA
ATOM     31  H   UNL     1     -11.024   7.767 -16.816  0.00  0.00    +0.155 HD
BRANCH  14  15
ATOM     15  C   UNL     1     -12.025   7.795 -19.210  0.00  0.00    +0.037 A 
ATOM     16  C   UNL     1     -13.049   8.692 -18.667  0.00  0.00    +0.013 A 
ATOM     17  C   UNL     1     -14.428   8.533 -19.053  0.00  0.00    +0.005 A 
ATOM     18  C   UNL     1     -14.792   7.473 -19.990  0.00  0.00    -0.033 A 
ATOM     28  C   UNL     1     -13.755   6.601 -20.518  0.00  0.00    +0.005 A 
ATOM     29  C   UNL     1     -12.402   6.753 -20.140  0.00  0.00    +0.013 A 
BRANCH  18  19
ATOM     19  C   UNL     1     -16.242   7.217 -20.442  0.00  0.00    +0.119 C 
BRANCH  19  20
ATOM     20  N   UNL     1     -17.242   8.293 -20.173  0.00  0.00    -0.302 NA
ATOM     21  C   UNL     1     -18.151   7.950 -18.990  0.00  0.00    +0.066 C 
ATOM     22  C   UNL     1     -19.176   9.096 -18.708  0.00  0.00    -0.064 C 
ATOM     23  N   UNL     1     -20.003   9.358 -19.968  0.00  0.00    +0.379 N 
ATOM     24  C   UNL     1     -21.007  10.395 -19.690  0.00  0.00    -0.096 C 
ATOM     25  H   UNL     1     -20.548   8.417 -20.216  0.00  0.00    -0.082 HD
ATOM     26  C   UNL     1     -19.107   9.697 -21.151  0.00  0.00    -0.064 C 
ATOM     27  C   UNL     1     -18.072   8.564 -21.403  0.00  0.00    +0.066 C 
ENDBRANCH  19  20
ENDBRANCH  18  19
ENDBRANCH  14  15
ENDBRANCH  12  13
TORSDOF 6
ENDMDL
MODEL 4
REMARK VINA RESULT:      -7.2     20.674     23.036
REMARK  Name = C:\Users\Docking\Desktop\test protocol\1iep_ligandH.pdb
REMARK  8 active torsions:
REMARK  status: ('A' for Active; 'I' for Inactive)
REMARK    1  A    between atoms: _5  and  _11
REMARK    2  A    between atoms: _19  and  _21
REMARK    3  A    between atoms: _22  and  _66
REMARK    4  A    between atoms: _27  and  _30
REMARK    5  A    between atoms: _32  and  _33
REMARK    6  A    between atoms: _38  and  _43
REMARK    7  A    between atoms: _43  and  _46
REMARK    8  A    between atoms: _53  and  _55
REMARK                            x       y       z     vdW  Elec       q    Type
REMARK                         _______ _______ _______ _____ _____    ______ ____
ROOT
ATOM     10  C   UNL     1     -20.120   7.515 -44.927  0.00  0.00    +0.038 A 
ATOM     11  C   UNL     1     -20.535   6.610 -43.917  0.00  0.00    +0.047 A 
ATOM     12  C   UNL     1     -21.483   7.012 -42.889  0.00  0.00    +0.035 A 
ATOM     32  C   UNL     1     -21.990   8.343 -42.922  0.00  0.00    +0.024 A 
ATOM     33  C   UNL     1     -21.579   9.277 -43.941  0.00  0.00    +0.007 A 
ATOM     34  C   UNL     1     -20.642   8.887 -44.956  0.00  0.00    -0.029 A 
ATOM     35  C   UNL     1     -20.232   9.931 -46.020  0.00  0.00    +0.045 C 
ENDROOT
BRANCH  10   9
ATOM      4  C   UNL     1     -19.054   5.296 -49.047  0.00  0.00    +0.077 A 
ATOM      5  C   UNL     1     -20.427   4.960 -49.290  0.00  0.00    +0.048 A 
ATOM      6  C   UNL     1     -21.376   5.370 -48.327  0.00  0.00    +0.116 A 
ATOM      7  N   UNL     1     -20.970   6.065 -47.208  0.00  0.00    -0.223 NA
ATOM      8  C   UNL     1     -19.637   6.371 -47.003  0.00  0.00    +0.220 A 
ATOM      9  N   UNL     1     -19.208   7.076 -45.889  0.00  0.00    -0.283 N 
ATOM     36  H   UNL     1     -18.215   7.276 -45.771  0.00  0.00    +0.155 HD
ATOM     37  N   UNL     1     -18.712   5.989 -47.907  0.00  0.00    -0.214 NA
BRANCH   4   3
ATOM      1  C   UNL     1     -16.855   3.450 -51.703  0.00  0.00    +0.020 A 
ATOM      2  C   UNL     1     -17.962   3.753 -50.826  0.00  0.00    +0.013 A 
ATOM      3  C   UNL     1     -17.935   4.935 -49.974  0.00  0.00    +0.019 A 
ATOM     38  C   UNL     1     -16.764   5.797 -50.034  0.00  0.00    +0.120 A 
ATOM     39  N   UNL     1     -15.712   5.479 -50.888  0.00  0.00    -0.263 NA
ATOM     40  C   UNL     1     -15.726   4.343 -51.712  0.00  0.00    +0.111 A 
ENDBRANCH   4   3
ENDBRANCH  10   9
BRANCH  12  13
ATOM     13  N   UNL     1     -21.934   6.139 -41.834  0.00  0.00    -0.281 N 
ATOM     14  C   UNL     1     -22.839   5.094 -41.921  0.00  0.00    +0.248 C 
ATOM     30  O   UNL     1     -23.563   4.886 -42.884  0.00  0.00    -0.270 OA
ATOM     31  H   UNL     1     -21.538   6.313 -40.910  0.00  0.00    +0.155 HD
BRANCH  14  15
ATOM     15  C   UNL     1     -22.968   4.152 -40.768  0.00  0.00    +0.037 A 
ATOM     16  C   UNL     1     -21.884   3.234 -40.412  0.00  0.00    +0.013 A 
ATOM     17  C   UNL     1     -22.042   2.324 -39.305  0.00  0.00    +0.005 A 
ATOM     18  C   UNL     1     -23.290   2.329 -38.545  0.00  0.00    -0.033 A 
ATOM     28  C   UNL     1     -24.347   3.255 -38.917  0.00  0.00    +0.005 A 
ATOM     29  C   UNL     1     -24.197   4.147 -40.002  0.00  0.00    +0.013 A 
BRANCH  18  19
ATOM     19  C   UNL     1     -23.553   1.378 -37.362  0.00  0.00    +0.119 C 
BRANCH  19  20
ATOM     20  N   UNL     1     -24.450   0.210 -37.611  0.00  0.00    -0.302 NA
ATOM     21  C   UNL     1     -24.445  -0.214 -39.082  0.00  0.00    +0.066 C 
ATOM     22  C   UNL     1     -25.371  -1.452 -39.320  0.00  0.00    -0.064 C 
ATOM     23  N   UNL     1     -26.790  -1.120 -38.856  0.00  0.00    +0.379 N 
ATOM     24  C   UNL     1     -27.676  -2.261 -39.132  0.00  0.00    -0.096 C 
ATOM     25  H   UNL     1     -27.151  -0.257 -39.463  0.00  0.00    -0.082 HD
ATOM     26  C   UNL     1     -26.803  -0.695 -37.395  0.00  0.00    -0.064 C 
ATOM     27  C   UNL     1     -25.858   0.517 -37.164  0.00  0.00    +0.066 C 
ENDBRANCH  19  20
ENDBRANCH  18  19
ENDBRANCH  14  15
ENDBRANCH  12  13
TORSDOF 6
ENDMDL
MODEL 5
REMARK VINA RESULT:      -7.2      2.201     12.495
REMARK  Name = C:\Users\Docking\Desktop\test protocol\1iep_ligandH.pdb
REMARK  8 active torsions:
REMARK  status: ('A' for Active; 'I' for Inactive)
REMARK    1  A    between atoms: _5  and  _11
REMARK    2  A    between atoms: _19  and  _21
REMARK    3  A    between atoms: _22  and  _66
REMARK    4  A    between atoms: _27  and  _30
REMARK    5  A    between atoms: _32  and  _33
REMARK    6  A    between atoms: _38  and  _43
REMARK    7  A    between atoms: _43  and  _46
REMARK    8  A    between atoms: _53  and  _55
REMARK                            x       y       z     vdW  Elec       q    Type
REMARK                         _______ _______ _______ _____ _____    ______ ____
ROOT
ATOM     10  C   UNL     1      -7.194  -4.067 -60.704  0.00  0.00    +0.038 A 
ATOM     11  C   UNL     1      -8.019  -2.913 -60.722  0.00  0.00    +0.047 A 
ATOM     12  C   UNL     1      -8.297  -2.206 -61.963  0.00  0.00    +0.035 A 
ATOM     32  C   UNL     1      -7.721  -2.703 -63.168  0.00  0.00    +0.024 A 
ATOM     33  C   UNL     1      -6.879  -3.874 -63.168  0.00  0.00    +0.007 A 
ATOM     34  C   UNL     1      -6.599  -4.574 -61.947  0.00  0.00    -0.029 A 
ATOM     35  C   UNL     1      -5.685  -5.820 -62.005  0.00  0.00    +0.045 C 
ENDROOT
BRANCH  10   9
ATOM      4  C   UNL     1      -8.348  -7.256 -57.308  0.00  0.00    +0.077 A 
ATOM      5  C   UNL     1      -9.532  -7.663 -58.009  0.00  0.00    +0.048 A 
ATOM      6  C   UNL     1      -9.811  -7.022 -59.237  0.00  0.00    +0.116 A 
ATOM      7  N   UNL     1      -8.963  -6.048 -59.718  0.00  0.00    -0.223 NA
ATOM      8  C   UNL     1      -7.831  -5.678 -59.016  0.00  0.00    +0.220 A 
ATOM      9  N   UNL     1      -6.960  -4.707 -59.485  0.00  0.00    -0.283 N 
ATOM     36  H   UNL     1      -6.139  -4.457 -58.934  0.00  0.00    +0.155 HD
ATOM     37  N   UNL     1      -7.543  -6.274 -57.840  0.00  0.00    -0.214 NA
BRANCH   4   3
ATOM      1  C   UNL     1      -6.302  -9.132 -54.552  0.00  0.00    +0.020 A 
ATOM      2  C   UNL     1      -6.673  -8.586 -55.837  0.00  0.00    +0.013 A 
ATOM      3  C   UNL     1      -7.916  -7.842 -56.000  0.00  0.00    +0.019 A 
ATOM     38  C   UNL     1      -8.766  -7.665 -54.833  0.00  0.00    +0.120 A 
ATOM     39  N   UNL     1      -8.383  -8.202 -53.608  0.00  0.00    -0.263 NA
ATOM     40  C   UNL     1      -7.191  -8.922 -53.440  0.00  0.00    +0.111 A 
ENDBRANCH   4   3
ENDBRANCH  10   9
BRANCH  12  13
ATOM     13  N   UNL     1      -9.120  -1.025 -62.041  0.00  0.00    -0.281 N 
ATOM     14  C   UNL     1     -10.459  -0.941 -62.387  0.00  0.00    +0.248 C 
ATOM     30  O   UNL     1     -11.100  -1.851 -62.891  0.00  0.00    -0.270 OA
ATOM     31  H   UNL     1      -8.660  -0.143 -61.814  0.00  0.00    +0.155 HD
BRANCH  14  15
ATOM     15  C   UNL     1     -11.186   0.343 -62.152  0.00  0.00    +0.037 A 
ATOM     16  C   UNL     1     -10.564   1.445 -61.413  0.00  0.00    +0.013 A 
ATOM     17  C   UNL     1     -11.295   2.666 -61.185  0.00  0.00    +0.005 A 
ATOM     18  C   UNL     1     -12.656   2.793 -61.700  0.00  0.00    -0.033 A 
ATOM     28  C   UNL     1     -13.247   1.687 -62.434  0.00  0.00    +0.005 A 
ATOM     29  C   UNL     1     -12.535   0.487 -62.658  0.00  0.00    +0.013 A 
BRANCH  18  19
ATOM     19  C   UNL     1     -13.517   4.052 -61.486  0.00  0.00    +0.119 C 
BRANCH  19  20
ATOM     20  N   UNL     1     -12.986   5.094 -60.558  0.00  0.00    -0.302 NA
ATOM     21  C   UNL     1     -14.043   5.563 -59.554  0.00  0.00    +0.066 C 
ATOM     22  C   UNL     1     -13.464   6.636 -58.576  0.00  0.00    -0.064 C 
ATOM     23  N   UNL     1     -12.923   7.818 -59.383  0.00  0.00    +0.379 N 
ATOM     24  C   UNL     1     -12.430   8.855 -58.465  0.00  0.00    -0.096 C 
ATOM     25  H   UNL     1     -13.773   8.252 -59.959  0.00  0.00    -0.082 HD
ATOM     26  C   UNL     1     -11.873   7.361 -60.386  0.00  0.00    -0.064 C 
ATOM     27  C   UNL     1     -12.450   6.272 -61.334  0.00  0.00    +0.066 C 
ENDBRANCH  19  20
ENDBRANCH  18  19
ENDBRANCH  14  15
ENDBRANCH  12  13
TORSDOF 6
ENDMDL
