MODEL 1
REMARK VINA RESULT:      -8.4      0.000      0.000
REMARK  Name = C:\Users\Docking\Desktop\test protocol\1iep_ligandH.pdb
REMARK  8 active torsions:
REMARK  status: ('A' for Active; 'I' for Inactive)
REMARK    1  A    between atoms: _5  and  _11
REMARK    2  A    between atoms: _19  and  _21
REMARK    3  A    between atoms: _22  and  _66
REMARK    4  A    between atoms: _27  and  _30
REMARK    5  A    between atoms: _32  and  _33
REMARK    6  A    between atoms: _38  and  _43
REMARK    7  A    between atoms: _43  and  _46
REMARK    8  A    between atoms: _53  and  _55
REMARK                            x       y       z     vdW  Elec       q    Type
REMARK                         _______ _______ _______ _____ _____    ______ ____
ROOT
ATOM     10  C   UNL     1      -6.953  57.817  15.485  0.00  0.00    +0.038 A 
ATOM     11  C   UNL     1      -6.010  57.115  14.691  0.00  0.00    +0.047 A 
ATOM     12  C   UNL     1      -6.422  56.392  13.498  0.00  0.00    +0.035 A 
ATOM     32  C   UNL     1      -7.801  56.407  13.140  0.00  0.00    +0.024 A 
ATOM     33  C   UNL     1      -8.773  57.114  13.936  0.00  0.00    +0.007 A 
ATOM     34  C   UNL     1      -8.374  57.827  15.116  0.00  0.00    -0.029 A 
ATOM     35  C   UNL     1      -9.460  58.563  15.935  0.00  0.00    +0.045 C 
ENDROOT
BRANCH  10   9
ATOM      4  C   UNL     1      -6.311  58.165  20.229  0.00  0.00    +0.077 A 
ATOM      5  C   UNL     1      -6.950  56.903  20.468  0.00  0.00    +0.048 A 
ATOM      6  C   UNL     1      -7.436  56.199  19.343  0.00  0.00    +0.116 A 
ATOM      7  N   UNL     1      -7.289  56.727  18.079  0.00  0.00    -0.223 NA
ATOM      8  C   UNL     1      -6.669  57.948  17.884  0.00  0.00    +0.220 A 
ATOM      9  N   UNL     1      -6.503  58.494  16.620  0.00  0.00    -0.283 N 
ATOM     36  H   UNL     1      -6.047  59.401  16.519  0.00  0.00    +0.155 HD
ATOM     37  N   UNL     1      -6.198  58.640  18.941  0.00  0.00    -0.214 NA
BRANCH   4   3
ATOM      1  C   UNL     1      -5.532  59.736  23.725  0.00  0.00    +0.020 A 
ATOM      2  C   UNL     1      -6.110  58.879  22.716  0.00  0.00    +0.013 A 
ATOM      3  C   UNL     1      -5.742  59.026  21.314  0.00  0.00    +0.019 A 
ATOM     38  C   UNL     1      -4.778  60.057  20.963  0.00  0.00    +0.120 A 
ATOM     39  N   UNL     1      -4.238  60.869  21.956  0.00  0.00    -0.263 NA
ATOM     40  C   UNL     1      -4.586  60.737  23.309  0.00  0.00    +0.111 A 
ENDBRANCH   4   3
ENDBRANCH  10   9
BRANCH  12  13
ATOM     13  N   UNL     1      -5.511  55.654  12.657  0.00  0.00    -0.281 N 
ATOM     14  C   UNL     1      -4.652  56.152  11.691  0.00  0.00    +0.248 C 
ATOM     30  O   UNL     1      -4.691  57.291  11.252  0.00  0.00    -0.270 OA
ATOM     31  H   UNL     1      -5.498  54.643  12.791  0.00  0.00    +0.155 HD
BRANCH  14  15
ATOM     15  C   UNL     1      -3.607  55.248  11.120  0.00  0.00    +0.037 A 
ATOM     16  C   UNL     1      -3.683  54.780   9.733  0.00  0.00    +0.013 A 
ATOM     17  C   UNL     1      -2.671  53.896   9.212  0.00  0.00    +0.005 A 
ATOM     18  C   UNL     1      -1.573  53.474  10.079  0.00  0.00    -0.033 A 
ATOM     28  C   UNL     1      -1.520  53.957  11.449  0.00  0.00    +0.005 A 
ATOM     29  C   UNL     1      -2.510  54.824  11.963  0.00  0.00    +0.013 A 
BRANCH  18  19
ATOM     19  C   UNL     1      -0.461  52.515   9.614  0.00  0.00    +0.119 C 
BRANCH  19  20
ATOM     20  N   UNL     1       0.351  51.845  10.673  0.00  0.00    -0.302 NA
ATOM     21  C   UNL     1       1.768  52.418  10.760  0.00  0.00    +0.066 C 
ATOM     22  C   UNL     1       2.596  51.721  11.888  0.00  0.00    -0.064 C 
ATOM     23  N   UNL     1       2.637  50.214  11.629  0.00  0.00    +0.379 N 
ATOM     24  C   UNL     1       3.463  49.562  12.655  0.00  0.00    -0.096 C 
ATOM     25  H   UNL     1       3.133  50.054  10.643  0.00  0.00    -0.082 HD
ATOM     26  C   UNL     1       1.232  49.636  11.538  0.00  0.00    -0.064 C 
ATOM     27  C   UNL     1       0.408  50.356  10.434  0.00  0.00    +0.066 C 
ENDBRANCH  19  20
ENDBRANCH  18  19
ENDBRANCH  14  15
ENDBRANCH  12  13
TORSDOF 6
ENDMDL
MODEL 2
REMARK VINA RESULT:      -8.3      1.992     12.026
REMARK  Name = C:\Users\Docking\Desktop\test protocol\1iep_ligandH.pdb
REMARK  8 active torsions:
REMARK  status: ('A' for Active; 'I' for Inactive)
REMARK    1  A    between atoms: _5  and  _11
REMARK    2  A    between atoms: _19  and  _21
REMARK    3  A    between atoms: _22  and  _66
REMARK    4  A    between atoms: _27  and  _30
REMARK    5  A    between atoms: _32  and  _33
REMARK    6  A    between atoms: _38  and  _43
REMARK    7  A    between atoms: _43  and  _46
REMARK    8  A    between atoms: _53  and  _55
REMARK                            x       y       z     vdW  Elec       q    Type
REMARK                         _______ _______ _______ _____ _____    ______ ____
ROOT
ATOM     10  C   UNL     1      -0.004  53.042   9.939  0.00  0.00    +0.038 A 
ATOM     11  C   UNL     1      -0.863  53.795  10.781  0.00  0.00    +0.047 A 
ATOM     12  C   UNL     1      -2.259  54.008  10.434  0.00  0.00    +0.035 A 
ATOM     32  C   UNL     1      -2.749  53.438   9.223  0.00  0.00    +0.024 A 
ATOM     33  C   UNL     1      -1.891  52.671   8.355  0.00  0.00    +0.007 A 
ATOM     34  C   UNL     1      -0.511  52.460   8.691  0.00  0.00    -0.029 A 
ATOM     35  C   UNL     1       0.365  51.635   7.719  0.00  0.00    +0.045 C 
ENDROOT
BRANCH  10   9
ATOM      4  C   UNL     1       3.518  50.496  11.974  0.00  0.00    +0.077 A 
ATOM      5  C   UNL     1       2.624  49.433  12.331  0.00  0.00    +0.048 A 
ATOM      6  C   UNL     1       1.264  49.584  11.980  0.00  0.00    +0.116 A 
ATOM      7  N   UNL     1       0.841  50.717  11.319  0.00  0.00    -0.223 NA
ATOM      8  C   UNL     1       1.730  51.724  10.991  0.00  0.00    +0.220 A 
ATOM      9  N   UNL     1       1.328  52.869  10.321  0.00  0.00    -0.283 N 
ATOM     36  H   UNL     1       2.013  53.593  10.103  0.00  0.00    +0.155 HD
ATOM     37  N   UNL     1       3.033  51.605  11.318  0.00  0.00    -0.214 NA
BRANCH   4   3
ATOM      1  C   UNL     1       6.948  50.129  13.820  0.00  0.00    +0.020 A 
ATOM      2  C   UNL     1       5.523  50.127  13.582  0.00  0.00    +0.013 A 
ATOM      3  C   UNL     1       4.985  50.483  12.275  0.00  0.00    +0.019 A 
ATOM     38  C   UNL     1       5.924  50.838  11.221  0.00  0.00    +0.120 A 
ATOM     39  N   UNL     1       7.291  50.832  11.480  0.00  0.00    -0.263 NA
ATOM     40  C   UNL     1       7.820  50.493  12.734  0.00  0.00    +0.111 A 
ENDBRANCH   4   3
ENDBRANCH  10   9
BRANCH  12  13
ATOM     13  N   UNL     1      -3.176  54.769  11.246  0.00  0.00    -0.281 N 
ATOM     14  C   UNL     1      -3.704  56.024  10.986  0.00  0.00    +0.248 C 
ATOM     30  O   UNL     1      -3.299  56.776  10.112  0.00  0.00    -0.270 OA
ATOM     31  H   UNL     1      -3.472  54.331  12.118  0.00  0.00    +0.155 HD
BRANCH  14  15
ATOM     15  C   UNL     1      -4.836  56.519  11.826  0.00  0.00    +0.037 A 
ATOM     16  C   UNL     1      -5.873  55.609  12.317  0.00  0.00    +0.013 A 
ATOM     17  C   UNL     1      -6.964  56.116  13.112  0.00  0.00    +0.005 A 
ATOM     18  C   UNL     1      -7.021  57.542  13.422  0.00  0.00    -0.033 A 
ATOM     28  C   UNL     1      -5.976  58.422  12.927  0.00  0.00    +0.005 A 
ATOM     29  C   UNL     1      -4.906  57.929  12.147  0.00  0.00    +0.013 A 
BRANCH  18  19
ATOM     19  C   UNL     1      -8.159  58.174  14.246  0.00  0.00    +0.119 C 
BRANCH  19  20
ATOM     20  N   UNL     1      -7.903  58.409  15.698  0.00  0.00    -0.302 NA
ATOM     21  C   UNL     1      -7.302  59.793  15.959  0.00  0.00    +0.066 C 
ATOM     22  C   UNL     1      -7.062  60.031  17.486  0.00  0.00    -0.064 C 
ATOM     23  N   UNL     1      -6.148  58.932  18.032  0.00  0.00    +0.379 N 
ATOM     24  C   UNL     1      -5.873  59.185  19.454  0.00  0.00    -0.096 C 
ATOM     25  H   UNL     1      -5.180  58.995  17.484  0.00  0.00    -0.082 HD
ATOM     26  C   UNL     1      -6.736  57.552  17.774  0.00  0.00    -0.064 C 
ATOM     27  C   UNL     1      -6.999  57.338  16.258  0.00  0.00    +0.066 C 
ENDBRANCH  19  20
ENDBRANCH  18  19
ENDBRANCH  14  15
ENDBRANCH  12  13
TORSDOF 6
ENDMDL
MODEL 3
REMARK VINA RESULT:      -8.3     25.406     28.601
REMARK  Name = C:\Users\Docking\Desktop\test protocol\1iep_ligandH.pdb
REMARK  8 active torsions:
REMARK  status: ('A' for Active; 'I' for Inactive)
REMARK    1  A    between atoms: _5  and  _11
REMARK    2  A    between atoms: _19  and  _21
REMARK    3  A    between atoms: _22  and  _66
REMARK    4  A    between atoms: _27  and  _30
REMARK    5  A    between atoms: _32  and  _33
REMARK    6  A    between atoms: _38  and  _43
REMARK    7  A    between atoms: _43  and  _46
REMARK    8  A    between atoms: _53  and  _55
REMARK                            x       y       z     vdW  Elec       q    Type
REMARK                         _______ _______ _______ _____ _____    ______ ____
ROOT
ATOM     10  C   UNL     1     -14.606  30.168  19.455  0.00  0.00    +0.038 A 
ATOM     11  C   UNL     1     -15.131  31.158  18.586  0.00  0.00    +0.047 A 
ATOM     12  C   UNL     1     -16.566  31.355  18.449  0.00  0.00    +0.035 A 
ATOM     32  C   UNL     1     -17.437  30.528  19.215  0.00  0.00    +0.024 A 
ATOM     33  C   UNL     1     -16.921  29.516  20.104  0.00  0.00    +0.007 A 
ATOM     34  C   UNL     1     -15.507  29.316  20.241  0.00  0.00    -0.029 A 
ATOM     35  C   UNL     1     -15.009  28.212  21.203  0.00  0.00    +0.045 C 
ENDROOT
BRANCH  10   9
ATOM      4  C   UNL     1     -10.413  28.467  17.855  0.00  0.00    +0.077 A 
ATOM      5  C   UNL     1     -11.040  27.790  16.756  0.00  0.00    +0.048 A 
ATOM      6  C   UNL     1     -12.444  27.898  16.643  0.00  0.00    +0.116 A 
ATOM      7  N   UNL     1     -13.158  28.632  17.565  0.00  0.00    -0.223 NA
ATOM      8  C   UNL     1     -12.523  29.272  18.614  0.00  0.00    +0.220 A 
ATOM      9  N   UNL     1     -13.220  30.022  19.548  0.00  0.00    -0.283 N 
ATOM     36  H   UNL     1     -12.716  30.473  20.311  0.00  0.00    +0.155 HD
ATOM     37  N   UNL     1     -11.183  29.182  18.745  0.00  0.00    -0.214 NA
BRANCH   4   3
ATOM      1  C   UNL     1      -6.704  29.587  18.391  0.00  0.00    +0.020 A 
ATOM      2  C   UNL     1      -8.125  29.659  18.142  0.00  0.00    +0.013 A 
ATOM      3  C   UNL     1      -8.937  28.450  18.107  0.00  0.00    +0.019 A 
ATOM     38  C   UNL     1      -8.275  27.173  18.330  0.00  0.00    +0.120 A 
ATOM     39  N   UNL     1      -6.905  27.135  18.566  0.00  0.00    -0.263 NA
ATOM     40  C   UNL     1      -6.112  28.292  18.600  0.00  0.00    +0.111 A 
ENDBRANCH   4   3
ENDBRANCH  10   9
BRANCH  12  13
ATOM     13  N   UNL     1     -17.157  32.338  17.575  0.00  0.00    -0.281 N 
ATOM     14  C   UNL     1     -18.073  32.132  16.557  0.00  0.00    +0.248 C 
ATOM     30  O   UNL     1     -18.364  31.036  16.101  0.00  0.00    -0.270 OA
ATOM     31  H   UNL     1     -16.864  33.304  17.726  0.00  0.00    +0.155 HD
BRANCH  14  15
ATOM     15  C   UNL     1     -18.755  33.314  15.948  0.00  0.00    +0.037 A 
ATOM     16  C   UNL     1     -18.659  34.644  16.557  0.00  0.00    +0.013 A 
ATOM     17  C   UNL     1     -19.340  35.764  15.959  0.00  0.00    +0.005 A 
ATOM     18  C   UNL     1     -20.123  35.560  14.743  0.00  0.00    -0.033 A 
ATOM     28  C   UNL     1     -20.197  34.232  14.157  0.00  0.00    +0.005 A 
ATOM     29  C   UNL     1     -19.532  33.131  14.741  0.00  0.00    +0.013 A 
BRANCH  18  19
ATOM     19  C   UNL     1     -20.900  36.694  14.048  0.00  0.00    +0.119 C 
BRANCH  19  20
ATOM     20  N   UNL     1     -20.591  36.953  12.610  0.00  0.00    -0.302 NA
ATOM     21  C   UNL     1     -20.515  38.451  12.300  0.00  0.00    +0.066 C 
ATOM     22  C   UNL     1     -20.169  38.704  10.796  0.00  0.00    -0.064 C 
ATOM     23  N   UNL     1     -21.214  38.020   9.913  0.00  0.00    +0.379 N 
ATOM     24  C   UNL     1     -20.924  38.305   8.500  0.00  0.00    -0.096 C 
ATOM     25  H   UNL     1     -22.205  38.471  10.153  0.00  0.00    -0.082 HD
ATOM     26  C   UNL     1     -21.299  36.531  10.217  0.00  0.00    -0.064 C 
ATOM     27  C   UNL     1     -21.614  36.291  11.720  0.00  0.00    +0.066 C 
ENDBRANCH  19  20
ENDBRANCH  18  19
ENDBRANCH  14  15
ENDBRANCH  12  13
TORSDOF 6
ENDMDL
MODEL 4
REMARK VINA RESULT:      -8.2      2.106      2.941
REMARK  Name = C:\Users\Docking\Desktop\test protocol\1iep_ligandH.pdb
REMARK  8 active torsions:
REMARK  status: ('A' for Active; 'I' for Inactive)
REMARK    1  A    between atoms: _5  and  _11
REMARK    2  A    between atoms: _19  and  _21
REMARK    3  A    between atoms: _22  and  _66
REMARK    4  A    between atoms: _27  and  _30
REMARK    5  A    between atoms: _32  and  _33
REMARK    6  A    between atoms: _38  and  _43
REMARK    7  A    between atoms: _43  and  _46
REMARK    8  A    between atoms: _53  and  _55
REMARK                            x       y       z     vdW  Elec       q    Type
REMARK                         _______ _______ _______ _____ _____    ______ ____
ROOT
ATOM     10  C   UNL     1      -6.052  58.644  16.074  0.00  0.00    +0.038 A 
ATOM     11  C   UNL     1      -5.341  57.689  15.303  0.00  0.00    +0.047 A 
ATOM     12  C   UNL     1      -5.693  57.429  13.916  0.00  0.00    +0.035 A 
ATOM     32  C   UNL     1      -6.773  58.162  13.344  0.00  0.00    +0.024 A 
ATOM     33  C   UNL     1      -7.508  59.135  14.113  0.00  0.00    +0.007 A 
ATOM     34  C   UNL     1      -7.167  59.394  15.483  0.00  0.00    -0.029 A 
ATOM     35  C   UNL     1      -7.993  60.445  16.261  0.00  0.00    +0.045 C 
ENDROOT
BRANCH  10   9
ATOM      4  C   UNL     1      -6.246  57.583  20.751  0.00  0.00    +0.077 A 
ATOM      5  C   UNL     1      -7.207  56.540  20.535  0.00  0.00    +0.048 A 
ATOM      6  C   UNL     1      -7.631  56.313  19.206  0.00  0.00    +0.116 A 
ATOM      7  N   UNL     1      -7.124  57.078  18.178  0.00  0.00    -0.223 NA
ATOM      8  C   UNL     1      -6.200  58.078  18.421  0.00  0.00    +0.220 A 
ATOM      9  N   UNL     1      -5.672  58.854  17.401  0.00  0.00    -0.283 N 
ATOM     36  H   UNL     1      -4.998  59.586  17.623  0.00  0.00    +0.155 HD
ATOM     37  N   UNL     1      -5.781  58.315  19.681  0.00  0.00    -0.214 NA
BRANCH   4   3
ATOM      1  C   UNL     1      -4.613  59.543  23.717  0.00  0.00    +0.020 A 
ATOM      2  C   UNL     1      -5.128  59.248  22.399  0.00  0.00    +0.013 A 
ATOM      3  C   UNL     1      -5.699  57.941  22.098  0.00  0.00    +0.019 A 
ATOM     38  C   UNL     1      -5.735  56.947  23.160  0.00  0.00    +0.120 A 
ATOM     39  N   UNL     1      -5.230  57.259  24.419  0.00  0.00    -0.263 NA
ATOM     40  C   UNL     1      -4.677  58.513  24.720  0.00  0.00    +0.111 A 
ENDBRANCH   4   3
ENDBRANCH  10   9
BRANCH  12  13
ATOM     13  N   UNL     1      -5.012  56.465  13.087  0.00  0.00    -0.281 N 
ATOM     14  C   UNL     1      -4.333  56.691  11.901  0.00  0.00    +0.248 C 
ATOM     30  O   UNL     1      -4.391  57.729  11.258  0.00  0.00    -0.270 OA
ATOM     31  H   UNL     1      -5.033  55.499  13.415  0.00  0.00    +0.155 HD
BRANCH  14  15
ATOM     15  C   UNL     1      -3.478  55.602  11.339  0.00  0.00    +0.037 A 
ATOM     16  C   UNL     1      -3.724  55.055  10.002  0.00  0.00    +0.013 A 
ATOM     17  C   UNL     1      -2.895  53.992   9.491  0.00  0.00    +0.005 A 
ATOM     18  C   UNL     1      -1.810  53.470  10.318  0.00  0.00    -0.033 A 
ATOM     28  C   UNL     1      -1.585  54.034  11.639  0.00  0.00    +0.005 A 
ATOM     29  C   UNL     1      -2.396  55.075  12.143  0.00  0.00    +0.013 A 
BRANCH  18  19
ATOM     19  C   UNL     1      -0.889  52.323   9.863  0.00  0.00    +0.119 C 
BRANCH  19  20
ATOM     20  N   UNL     1      -0.968  51.911   8.430  0.00  0.00    -0.302 NA
ATOM     21  C   UNL     1      -2.221  51.081   8.139  0.00  0.00    +0.066 C 
ATOM     22  C   UNL     1      -2.300  50.677   6.631  0.00  0.00    -0.064 C 
ATOM     23  N   UNL     1      -1.037  49.904   6.246  0.00  0.00    +0.379 N 
ATOM     24  C   UNL     1      -1.133  49.473   4.844  0.00  0.00    -0.096 C 
ATOM     25  H   UNL     1      -0.996  48.988   6.880  0.00  0.00    -0.082 HD
ATOM     26  C   UNL     1       0.215  50.721   6.534  0.00  0.00    -0.064 C 
ATOM     27  C   UNL     1       0.268  51.142   8.030  0.00  0.00    +0.066 C 
ENDBRANCH  19  20
ENDBRANCH  18  19
ENDBRANCH  14  15
ENDBRANCH  12  13
TORSDOF 6
ENDMDL
MODEL 5
REMARK VINA RESULT:      -8.1      1.714      2.474
REMARK  Name = C:\Users\Docking\Desktop\test protocol\1iep_ligandH.pdb
REMARK  8 active torsions:
REMARK  status: ('A' for Active; 'I' for Inactive)
REMARK    1  A    between atoms: _5  and  _11
REMARK    2  A    between atoms: _19  and  _21
REMARK    3  A    between atoms: _22  and  _66
REMARK    4  A    between atoms: _27  and  _30
REMARK    5  A    between atoms: _32  and  _33
REMARK    6  A    between atoms: _38  and  _43
REMARK    7  A    between atoms: _43  and  _46
REMARK    8  A    between atoms: _53  and  _55
REMARK                            x       y       z     vdW  Elec       q    Type
REMARK                         _______ _______ _______ _____ _____    ______ ____
ROOT
ATOM     10  C   UNL     1      -6.920  57.848  15.445  0.00  0.00    +0.038 A 
ATOM     11  C   UNL     1      -5.976  57.133  14.664  0.00  0.00    +0.047 A 
ATOM     12  C   UNL     1      -6.389  56.375  13.493  0.00  0.00    +0.035 A 
ATOM     32  C   UNL     1      -7.771  56.369  13.145  0.00  0.00    +0.024 A 
ATOM     33  C   UNL     1      -8.744  57.090  13.928  0.00  0.00    +0.007 A 
ATOM     34  C   UNL     1      -8.343  57.837  15.086  0.00  0.00    -0.029 A 
ATOM     35  C   UNL     1      -9.430  58.585  15.892  0.00  0.00    +0.045 C 
ENDROOT
BRANCH  10   9
ATOM      4  C   UNL     1      -6.251  58.327  20.174  0.00  0.00    +0.077 A 
ATOM      5  C   UNL     1      -6.878  57.067  20.450  0.00  0.00    +0.048 A 
ATOM      6  C   UNL     1      -7.366  56.330  19.348  0.00  0.00    +0.116 A 
ATOM      7  N   UNL     1      -7.231  56.825  18.069  0.00  0.00    -0.223 NA
ATOM      8  C   UNL     1      -6.622  58.045  17.838  0.00  0.00    +0.220 A 
ATOM      9  N   UNL     1      -6.468  58.559  16.559  0.00  0.00    -0.283 N 
ATOM     36  H   UNL     1      -6.020  59.466  16.431  0.00  0.00    +0.155 HD
ATOM     37  N   UNL     1      -6.149  58.769  18.874  0.00  0.00    -0.214 NA
BRANCH   4   3
ATOM      1  C   UNL     1      -4.816  59.659  23.561  0.00  0.00    +0.020 A 
ATOM      2  C   UNL     1      -5.364  58.755  22.576  0.00  0.00    +0.013 A 
ATOM      3  C   UNL     1      -5.682  59.221  21.232  0.00  0.00    +0.019 A 
ATOM     38  C   UNL     1      -5.432  60.619  20.914  0.00  0.00    +0.120 A 
ATOM     39  N   UNL     1      -4.905  61.467  21.884  0.00  0.00    -0.263 NA
ATOM     40  C   UNL     1      -4.596  61.029  23.181  0.00  0.00    +0.111 A 
ENDBRANCH   4   3
ENDBRANCH  10   9
BRANCH  12  13
ATOM     13  N   UNL     1      -5.478  55.623  12.666  0.00  0.00    -0.281 N 
ATOM     14  C   UNL     1      -4.573  56.109  11.736  0.00  0.00    +0.248 C 
ATOM     30  O   UNL     1      -4.561  57.258  11.319  0.00  0.00    -0.270 OA
ATOM     31  H   UNL     1      -5.503  54.610  12.780  0.00  0.00    +0.155 HD
BRANCH  14  15
ATOM     15  C   UNL     1      -3.542  55.182  11.179  0.00  0.00    +0.037 A 
ATOM     16  C   UNL     1      -3.665  54.633   9.827  0.00  0.00    +0.013 A 
ATOM     17  C   UNL     1      -2.665  53.727   9.320  0.00  0.00    +0.005 A 
ATOM     18  C   UNL     1      -1.531  53.365  10.167  0.00  0.00    -0.033 A 
ATOM     28  C   UNL     1      -1.431  53.929  11.503  0.00  0.00    +0.005 A 
ATOM     29  C   UNL     1      -2.410  54.816  12.004  0.00  0.00    +0.013 A 
BRANCH  18  19
ATOM     19  C   UNL     1      -0.428  52.389   9.717  0.00  0.00    +0.119 C 
BRANCH  19  20
ATOM     20  N   UNL     1      -0.398  52.010   8.272  0.00  0.00    -0.302 NA
ATOM     21  C   UNL     1      -1.165  50.712   8.003  0.00  0.00    +0.066 C 
ATOM     22  C   UNL     1      -1.143  50.343   6.484  0.00  0.00    -0.064 C 
ATOM     23  N   UNL     1       0.307  50.223   6.012  0.00  0.00    +0.379 N 
ATOM     24  C   UNL     1       0.331  49.819   4.599  0.00  0.00    -0.096 C 
ATOM     25  H   UNL     1       0.789  49.411   6.605  0.00  0.00    -0.082 HD
ATOM     26  C   UNL     1       1.077  51.508   6.279  0.00  0.00    -0.064 C 
ATOM     27  C   UNL     1       1.024  51.882   7.786  0.00  0.00    +0.066 C 
ENDBRANCH  19  20
ENDBRANCH  18  19
ENDBRANCH  14  15
ENDBRANCH  12  13
TORSDOF 6
ENDMDL
