MODEL 1
REMARK VINA RESULT:      -8.6      0.000      0.000
REMARK  Name = C:\Users\Docking\Desktop\test protocol\1iep_ligandH.pdb
REMARK  8 active torsions:
REMARK  status: ('A' for Active; 'I' for Inactive)
REMARK    1  A    between atoms: _5  and  _11
REMARK    2  A    between atoms: _19  and  _21
REMARK    3  A    between atoms: _22  and  _66
REMARK    4  A    between atoms: _27  and  _30
REMARK    5  A    between atoms: _32  and  _33
REMARK    6  A    between atoms: _38  and  _43
REMARK    7  A    between atoms: _43  and  _46
REMARK    8  A    between atoms: _53  and  _55
REMARK                            x       y       z     vdW  Elec       q    Type
REMARK                         _______ _______ _______ _____ _____    ______ ____
ROOT
ATOM     10  C   UNL     1      17.268  21.234  28.458  0.00  0.00    +0.038 A 
ATOM     11  C   UNL     1      18.148  22.003  27.654  0.00  0.00    +0.047 A 
ATOM     12  C   UNL     1      18.880  23.132  28.207  0.00  0.00    +0.035 A 
ATOM     32  C   UNL     1      18.695  23.447  29.585  0.00  0.00    +0.024 A 
ATOM     33  C   UNL     1      17.805  22.676  30.416  0.00  0.00    +0.007 A 
ATOM     34  C   UNL     1      17.077  21.563  29.875  0.00  0.00    -0.029 A 
ATOM     35  C   UNL     1      16.131  20.776  30.812  0.00  0.00    +0.045 C 
ENDROOT
BRANCH  10   9
ATOM      4  C   UNL     1      13.331  19.234  26.576  0.00  0.00    +0.077 A 
ATOM      5  C   UNL     1      12.552  20.418  26.799  0.00  0.00    +0.048 A 
ATOM      6  C   UNL     1      13.200  21.517  27.406  0.00  0.00    +0.116 A 
ATOM      7  N   UNL     1      14.529  21.427  27.760  0.00  0.00    -0.223 NA
ATOM      8  C   UNL     1      15.251  20.270  27.533  0.00  0.00    +0.220 A 
ATOM      9  N   UNL     1      16.590  20.161  27.874  0.00  0.00    -0.283 N 
ATOM     36  H   UNL     1      17.086  19.288  27.697  0.00  0.00    +0.155 HD
ATOM     37  N   UNL     1      14.655  19.207  26.956  0.00  0.00    -0.214 NA
BRANCH   4   3
ATOM      1  C   UNL     1      11.557  16.771  24.110  0.00  0.00    +0.020 A 
ATOM      2  C   UNL     1      12.059  18.000  24.680  0.00  0.00    +0.013 A 
ATOM      3  C   UNL     1      12.790  17.991  25.941  0.00  0.00    +0.019 A 
ATOM     38  C   UNL     1      12.997  16.713  26.604  0.00  0.00    +0.120 A 
ATOM     39  N   UNL     1      12.501  15.546  26.032  0.00  0.00    -0.263 NA
ATOM     40  C   UNL     1      11.795  15.542  24.819  0.00  0.00    +0.111 A 
ENDBRANCH   4   3
ENDBRANCH  10   9
BRANCH  12  13
ATOM     13  N   UNL     1      19.780  23.954  27.437  0.00  0.00    -0.281 N 
ATOM     14  C   UNL     1      21.152  24.080  27.581  0.00  0.00    +0.248 C 
ATOM     30  O   UNL     1      21.788  23.664  28.539  0.00  0.00    -0.270 OA
ATOM     31  H   UNL     1      19.355  24.511  26.697  0.00  0.00    +0.155 HD
BRANCH  14  15
ATOM     15  C   UNL     1      21.929  24.782  26.515  0.00  0.00    +0.037 A 
ATOM     16  C   UNL     1      21.254  25.529  25.450  0.00  0.00    +0.013 A 
ATOM     17  C   UNL     1      22.026  26.183  24.424  0.00  0.00    +0.005 A 
ATOM     18  C   UNL     1      23.484  26.094  24.459  0.00  0.00    -0.033 A 
ATOM     28  C   UNL     1      24.128  25.352  25.530  0.00  0.00    +0.005 A 
ATOM     29  C   UNL     1      23.374  24.708  26.537  0.00  0.00    +0.013 A 
BRANCH  18  19
ATOM     19  C   UNL     1      24.387  26.744  23.393  0.00  0.00    +0.119 C 
BRANCH  19  20
ATOM     20  N   UNL     1      25.713  27.262  23.844  0.00  0.00    -0.302 NA
ATOM     21  C   UNL     1      25.623  28.704  24.353  0.00  0.00    +0.066 C 
ATOM     22  C   UNL     1      27.014  29.223  24.842  0.00  0.00    -0.064 C 
ATOM     23  N   UNL     1      28.026  29.114  23.700  0.00  0.00    +0.379 N 
ATOM     24  C   UNL     1      29.321  29.655  24.139  0.00  0.00    -0.096 C 
ATOM     25  H   UNL     1      27.660  29.751  22.862  0.00  0.00    -0.082 HD
ATOM     26  C   UNL     1      28.120  27.684  23.186  0.00  0.00    -0.064 C 
ATOM     27  C   UNL     1      26.727  27.168  22.731  0.00  0.00    +0.066 C 
ENDBRANCH  19  20
ENDBRANCH  18  19
ENDBRANCH  14  15
ENDBRANCH  12  13
TORSDOF 6
ENDMDL
MODEL 2
REMARK VINA RESULT:      -8.5      2.043      3.038
REMARK  Name = C:\Users\Docking\Desktop\test protocol\1iep_ligandH.pdb
REMARK  8 active torsions:
REMARK  status: ('A' for Active; 'I' for Inactive)
REMARK    1  A    between atoms: _5  and  _11
REMARK    2  A    between atoms: _19  and  _21
REMARK    3  A    between atoms: _22  and  _66
REMARK    4  A    between atoms: _27  and  _30
REMARK    5  A    between atoms: _32  and  _33
REMARK    6  A    between atoms: _38  and  _43
REMARK    7  A    between atoms: _43  and  _46
REMARK    8  A    between atoms: _53  and  _55
REMARK                            x       y       z     vdW  Elec       q    Type
REMARK                         _______ _______ _______ _____ _____    ______ ____
ROOT
ATOM     10  C   UNL     1      19.064  22.207  28.944  0.00  0.00    +0.038 A 
ATOM     11  C   UNL     1      19.973  22.778  28.017  0.00  0.00    +0.047 A 
ATOM     12  C   UNL     1      21.128  23.538  28.466  0.00  0.00    +0.035 A 
ATOM     32  C   UNL     1      21.330  23.695  29.868  0.00  0.00    +0.024 A 
ATOM     33  C   UNL     1      20.416  23.123  30.825  0.00  0.00    +0.007 A 
ATOM     34  C   UNL     1      19.273  22.374  30.388  0.00  0.00    -0.029 A 
ATOM     35  C   UNL     1      18.323  21.787  31.458  0.00  0.00    +0.045 C 
ENDROOT
BRANCH  10   9
ATOM      4  C   UNL     1      14.450  21.864  27.668  0.00  0.00    +0.077 A 
ATOM      5  C   UNL     1      14.188  23.228  28.027  0.00  0.00    +0.048 A 
ATOM      6  C   UNL     1      15.266  23.981  28.543  0.00  0.00    +0.116 A 
ATOM      7  N   UNL     1      16.509  23.404  28.685  0.00  0.00    -0.223 NA
ATOM      8  C   UNL     1      16.728  22.085  28.331  0.00  0.00    +0.220 A 
ATOM      9  N   UNL     1      17.972  21.486  28.457  0.00  0.00    -0.283 N 
ATOM     36  H   UNL     1      18.090  20.509  28.192  0.00  0.00    +0.155 HD
ATOM     37  N   UNL     1      15.714  21.344  27.837  0.00  0.00    -0.214 NA
BRANCH   4   3
ATOM      1  C   UNL     1      11.140  20.463  26.126  0.00  0.00    +0.020 A 
ATOM      2  C   UNL     1      12.104  21.396  26.661  0.00  0.00    +0.013 A 
ATOM      3  C   UNL     1      13.415  20.940  27.106  0.00  0.00    +0.019 A 
ATOM     38  C   UNL     1      13.721  19.522  26.994  0.00  0.00    +0.120 A 
ATOM     39  N   UNL     1      12.772  18.646  26.476  0.00  0.00    -0.263 NA
ATOM     40  C   UNL     1      11.507  19.073  26.046  0.00  0.00    +0.111 A 
ENDBRANCH   4   3
ENDBRANCH  10   9
BRANCH  12  13
ATOM     13  N   UNL     1      22.080  24.148  27.571  0.00  0.00    -0.281 N 
ATOM     14  C   UNL     1      21.822  24.945  26.468  0.00  0.00    +0.248 C 
ATOM     30  O   UNL     1      20.721  25.080  25.955  0.00  0.00    -0.270 OA
ATOM     31  H   UNL     1      23.064  23.971  27.776  0.00  0.00    +0.155 HD
BRANCH  14  15
ATOM     15  C   UNL     1      22.954  25.688  25.834  0.00  0.00    +0.037 A 
ATOM     16  C   UNL     1      22.998  27.153  25.839  0.00  0.00    +0.013 A 
ATOM     17  C   UNL     1      24.092  27.845  25.205  0.00  0.00    +0.005 A 
ATOM     18  C   UNL     1      25.152  27.072  24.561  0.00  0.00    -0.033 A 
ATOM     28  C   UNL     1      25.085  25.620  24.576  0.00  0.00    +0.005 A 
ATOM     29  C   UNL     1      24.014  24.938  25.195  0.00  0.00    +0.013 A 
BRANCH  18  19
ATOM     19  C   UNL     1      26.347  27.727  23.843  0.00  0.00    +0.119 C 
BRANCH  19  20
ATOM     20  N   UNL     1      26.645  27.267  22.453  0.00  0.00    -0.302 NA
ATOM     21  C   UNL     1      28.056  27.660  22.009  0.00  0.00    +0.066 C 
ATOM     22  C   UNL     1      28.360  27.151  20.562  0.00  0.00    -0.064 C 
ATOM     23  N   UNL     1      27.312  27.711  19.597  0.00  0.00    +0.379 N 
ATOM     24  C   UNL     1      27.628  27.282  18.227  0.00  0.00    -0.096 C 
ATOM     25  H   UNL     1      27.384  28.823  19.629  0.00  0.00    -0.082 HD
ATOM     26  C   UNL     1      25.906  27.327  20.034  0.00  0.00    -0.064 C 
ATOM     27  C   UNL     1      25.625  27.812  21.484  0.00  0.00    +0.066 C 
ENDBRANCH  19  20
ENDBRANCH  18  19
ENDBRANCH  14  15
ENDBRANCH  12  13
TORSDOF 6
ENDMDL
MODEL 3
REMARK VINA RESULT:      -8.5      1.772      2.386
REMARK  Name = C:\Users\Docking\Desktop\test protocol\1iep_ligandH.pdb
REMARK  8 active torsions:
REMARK  status: ('A' for Active; 'I' for Inactive)
REMARK    1  A    between atoms: _5  and  _11
REMARK    2  A    between atoms: _19  and  _21
REMARK    3  A    between atoms: _22  and  _66
REMARK    4  A    between atoms: _27  and  _30
REMARK    5  A    between atoms: _32  and  _33
REMARK    6  A    between atoms: _38  and  _43
REMARK    7  A    between atoms: _43  and  _46
REMARK    8  A    between atoms: _53  and  _55
REMARK                            x       y       z     vdW  Elec       q    Type
REMARK                         _______ _______ _______ _____ _____    ______ ____
ROOT
ATOM     10  C   UNL     1      18.400  21.702  28.380  0.00  0.00    +0.038 A 
ATOM     11  C   UNL     1      19.092  22.320  27.306  0.00  0.00    +0.047 A 
ATOM     12  C   UNL     1      20.276  23.132  27.542  0.00  0.00    +0.035 A 
ATOM     32  C   UNL     1      20.730  23.291  28.884  0.00  0.00    +0.024 A 
ATOM     33  C   UNL     1      20.038  22.671  29.987  0.00  0.00    +0.007 A 
ATOM     34  C   UNL     1      18.869  21.871  29.761  0.00  0.00    -0.029 A 
ATOM     35  C   UNL     1      18.164  21.236  30.982  0.00  0.00    +0.045 C 
ENDROOT
BRANCH  10   9
ATOM      4  C   UNL     1      13.729  21.258  27.370  0.00  0.00    +0.077 A 
ATOM      5  C   UNL     1      13.519  22.676  27.440  0.00  0.00    +0.048 A 
ATOM      6  C   UNL     1      14.637  23.483  27.745  0.00  0.00    +0.116 A 
ATOM      7  N   UNL     1      15.869  22.906  27.962  0.00  0.00    -0.223 NA
ATOM      8  C   UNL     1      16.037  21.535  27.889  0.00  0.00    +0.220 A 
ATOM      9  N   UNL     1      17.269  20.934  28.096  0.00  0.00    -0.283 N 
ATOM     36  H   UNL     1      17.350  19.919  28.041  0.00  0.00    +0.155 HD
ATOM     37  N   UNL     1      14.985  20.742  27.601  0.00  0.00    -0.214 NA
BRANCH   4   3
ATOM      1  C   UNL     1      11.753  17.923  26.846  0.00  0.00    +0.020 A 
ATOM      2  C   UNL     1      12.831  18.832  27.162  0.00  0.00    +0.013 A 
ATOM      3  C   UNL     1      12.647  20.273  27.055  0.00  0.00    +0.019 A 
ATOM     38  C   UNL     1      11.348  20.768  26.622  0.00  0.00    +0.120 A 
ATOM     39  N   UNL     1      10.329  19.869  26.323  0.00  0.00    -0.263 NA
ATOM     40  C   UNL     1      10.495  18.480  26.421  0.00  0.00    +0.111 A 
ENDBRANCH   4   3
ENDBRANCH  10   9
BRANCH  12  13
ATOM     13  N   UNL     1      21.014  23.790  26.493  0.00  0.00    -0.281 N 
ATOM     14  C   UNL     1      21.913  24.838  26.612  0.00  0.00    +0.248 C 
ATOM     30  O   UNL     1      22.058  25.512  27.621  0.00  0.00    -0.270 OA
ATOM     31  H   UNL     1      20.855  23.442  25.548  0.00  0.00    +0.155 HD
BRANCH  14  15
ATOM     15  C   UNL     1      22.763  25.197  25.437  0.00  0.00    +0.037 A 
ATOM     16  C   UNL     1      22.871  26.582  24.972  0.00  0.00    +0.013 A 
ATOM     17  C   UNL     1      23.685  26.899  23.825  0.00  0.00    +0.005 A 
ATOM     18  C   UNL     1      24.399  25.827  23.136  0.00  0.00    -0.033 A 
ATOM     28  C   UNL     1      24.278  24.462  23.621  0.00  0.00    +0.005 A 
ATOM     29  C   UNL     1      23.480  24.148  24.744  0.00  0.00    +0.013 A 
BRANCH  18  19
ATOM     19  C   UNL     1      25.273  26.070  21.891  0.00  0.00    +0.119 C 
BRANCH  19  20
ATOM     20  N   UNL     1      26.277  27.173  21.965  0.00  0.00    -0.302 NA
ATOM     21  C   UNL     1      27.206  27.187  20.748  0.00  0.00    +0.066 C 
ATOM     22  C   UNL     1      28.236  28.360  20.832  0.00  0.00    -0.064 C 
ATOM     23  N   UNL     1      29.041  28.238  22.126  0.00  0.00    +0.379 N 
ATOM     24  C   UNL     1      30.050  29.306  22.180  0.00  0.00    -0.096 C 
ATOM     25  H   UNL     1      29.582  27.263  22.097  0.00  0.00    -0.082 HD
ATOM     26  C   UNL     1      28.125  28.220  23.342  0.00  0.00    -0.064 C 
ATOM     27  C   UNL     1      27.087  27.068  23.235  0.00  0.00    +0.066 C 
ENDBRANCH  19  20
ENDBRANCH  18  19
ENDBRANCH  14  15
ENDBRANCH  12  13
TORSDOF 6
ENDMDL
MODEL 4
REMARK VINA RESULT:      -8.2      3.357      4.803
REMARK  Name = C:\Users\Docking\Desktop\test protocol\1iep_ligandH.pdb
REMARK  8 active torsions:
REMARK  status: ('A' for Active; 'I' for Inactive)
REMARK    1  A    between atoms: _5  and  _11
REMARK    2  A    between atoms: _19  and  _21
REMARK    3  A    between atoms: _22  and  _66
REMARK    4  A    between atoms: _27  and  _30
REMARK    5  A    between atoms: _32  and  _33
REMARK    6  A    between atoms: _38  and  _43
REMARK    7  A    between atoms: _43  and  _46
REMARK    8  A    between atoms: _53  and  _55
REMARK                            x       y       z     vdW  Elec       q    Type
REMARK                         _______ _______ _______ _____ _____    ______ ____
ROOT
ATOM     10  C   UNL     1      16.719  22.203  28.514  0.00  0.00    +0.038 A 
ATOM     11  C   UNL     1      17.560  23.090  27.794  0.00  0.00    +0.047 A 
ATOM     12  C   UNL     1      18.971  22.798  27.600  0.00  0.00    +0.035 A 
ATOM     32  C   UNL     1      19.493  21.592  28.151  0.00  0.00    +0.024 A 
ATOM     33  C   UNL     1      18.653  20.679  28.887  0.00  0.00    +0.007 A 
ATOM     34  C   UNL     1      17.260  20.963  29.083  0.00  0.00    -0.029 A 
ATOM     35  C   UNL     1      16.409  19.952  29.885  0.00  0.00    +0.045 C 
ENDROOT
BRANCH  10   9
ATOM      4  C   UNL     1      13.204  25.366  29.340  0.00  0.00    +0.077 A 
ATOM      5  C   UNL     1      14.133  26.446  29.501  0.00  0.00    +0.048 A 
ATOM      6  C   UNL     1      15.508  26.145  29.371  0.00  0.00    +0.116 A 
ATOM      7  N   UNL     1      15.911  24.856  29.099  0.00  0.00    -0.223 NA
ATOM      8  C   UNL     1      14.988  23.836  28.951  0.00  0.00    +0.220 A 
ATOM      9  N   UNL     1      15.371  22.534  28.670  0.00  0.00    -0.283 N 
ATOM     36  H   UNL     1      14.660  21.809  28.575  0.00  0.00    +0.155 HD
ATOM     37  N   UNL     1      13.670  24.098  29.072  0.00  0.00    -0.214 NA
BRANCH   4   3
ATOM      1  C   UNL     1       9.404  24.647  29.926  0.00  0.00    +0.020 A 
ATOM      2  C   UNL     1      10.831  24.439  29.839  0.00  0.00    +0.013 A 
ATOM      3  C   UNL     1      11.719  25.526  29.445  0.00  0.00    +0.019 A 
ATOM     38  C   UNL     1      11.126  26.820  29.144  0.00  0.00    +0.120 A 
ATOM     39  N   UNL     1       9.748  26.990  29.235  0.00  0.00    -0.263 NA
ATOM     40  C   UNL     1       8.884  25.952  29.611  0.00  0.00    +0.111 A 
ENDBRANCH   4   3
ENDBRANCH  10   9
BRANCH  12  13
ATOM     13  N   UNL     1      19.875  23.665  26.886  0.00  0.00    -0.281 N 
ATOM     14  C   UNL     1      21.054  24.230  27.344  0.00  0.00    +0.248 C 
ATOM     30  O   UNL     1      21.403  24.247  28.515  0.00  0.00    -0.270 OA
ATOM     31  H   UNL     1      19.614  23.889  25.926  0.00  0.00    +0.155 HD
BRANCH  14  15
ATOM     15  C   UNL     1      21.972  24.882  26.361  0.00  0.00    +0.037 A 
ATOM     16  C   UNL     1      21.451  25.686  25.252  0.00  0.00    +0.013 A 
ATOM     17  C   UNL     1      22.357  26.290  24.308  0.00  0.00    +0.005 A 
ATOM     18  C   UNL     1      23.796  26.094  24.471  0.00  0.00    -0.033 A 
ATOM     28  C   UNL     1      24.286  25.297  25.582  0.00  0.00    +0.005 A 
ATOM     29  C   UNL     1      23.400  24.702  26.509  0.00  0.00    +0.013 A 
BRANCH  18  19
ATOM     19  C   UNL     1      24.835  26.684  23.499  0.00  0.00    +0.119 C 
BRANCH  19  20
ATOM     20  N   UNL     1      26.013  27.379  24.098  0.00  0.00    -0.302 NA
ATOM     21  C   UNL     1      25.687  28.820  24.500  0.00  0.00    +0.066 C 
ATOM     22  C   UNL     1      26.924  29.525  25.146  0.00  0.00    -0.064 C 
ATOM     23  N   UNL     1      28.097  29.490  24.164  0.00  0.00    +0.379 N 
ATOM     24  C   UNL     1      29.244  30.203  24.745  0.00  0.00    -0.096 C 
ATOM     25  H   UNL     1      27.786  30.040  23.246  0.00  0.00    -0.082 HD
ATOM     26  C   UNL     1      28.427  28.061  23.756  0.00  0.00    -0.064 C 
ATOM     27  C   UNL     1      27.182  27.360  23.144  0.00  0.00    +0.066 C 
ENDBRANCH  19  20
ENDBRANCH  18  19
ENDBRANCH  14  15
ENDBRANCH  12  13
TORSDOF 6
ENDMDL
MODEL 5
REMARK VINA RESULT:      -8.2      4.146      6.053
REMARK  Name = C:\Users\Docking\Desktop\test protocol\1iep_ligandH.pdb
REMARK  8 active torsions:
REMARK  status: ('A' for Active; 'I' for Inactive)
REMARK    1  A    between atoms: _5  and  _11
REMARK    2  A    between atoms: _19  and  _21
REMARK    3  A    between atoms: _22  and  _66
REMARK    4  A    between atoms: _27  and  _30
REMARK    5  A    between atoms: _32  and  _33
REMARK    6  A    between atoms: _38  and  _43
REMARK    7  A    between atoms: _43  and  _46
REMARK    8  A    between atoms: _53  and  _55
REMARK                            x       y       z     vdW  Elec       q    Type
REMARK                         _______ _______ _______ _____ _____    ______ ____
ROOT
ATOM     10  C   UNL     1      17.988  23.488  29.506  0.00  0.00    +0.038 A 
ATOM     11  C   UNL     1      18.782  24.122  28.518  0.00  0.00    +0.047 A 
ATOM     12  C   UNL     1      19.602  23.348  27.599  0.00  0.00    +0.035 A 
ATOM     32  C   UNL     1      19.587  21.927  27.714  0.00  0.00    +0.024 A 
ATOM     33  C   UNL     1      18.786  21.265  28.714  0.00  0.00    +0.007 A 
ATOM     34  C   UNL     1      17.978  22.024  29.625  0.00  0.00    -0.029 A 
ATOM     35  C   UNL     1      17.144  21.262  30.681  0.00  0.00    +0.045 C 
ENDROOT
BRANCH  10   9
ATOM      4  C   UNL     1      13.973  25.883  30.592  0.00  0.00    +0.077 A 
ATOM      5  C   UNL     1      13.364  25.549  29.337  0.00  0.00    +0.048 A 
ATOM      6  C   UNL     1      14.120  24.765  28.437  0.00  0.00    +0.116 A 
ATOM      7  N   UNL     1      15.390  24.351  28.778  0.00  0.00    -0.223 NA
ATOM      8  C   UNL     1      15.948  24.692  29.996  0.00  0.00    +0.220 A 
ATOM      9  N   UNL     1      17.220  24.281  30.362  0.00  0.00    -0.283 N 
ATOM     36  H   UNL     1      17.599  24.559  31.267  0.00  0.00    +0.155 HD
ATOM     37  N   UNL     1      15.247  25.442  30.872  0.00  0.00    -0.214 NA
BRANCH   4   3
ATOM      1  C   UNL     1      11.763  28.556  32.401  0.00  0.00    +0.020 A 
ATOM      2  C   UNL     1      12.388  27.797  31.342  0.00  0.00    +0.013 A 
ATOM      3  C   UNL     1      13.300  26.702  31.649  0.00  0.00    +0.019 A 
ATOM     38  C   UNL     1      13.560  26.399  33.048  0.00  0.00    +0.120 A 
ATOM     39  N   UNL     1      12.945  27.148  34.046  0.00  0.00    -0.263 NA
ATOM     40  C   UNL     1      12.067  28.205  33.763  0.00  0.00    +0.111 A 
ENDBRANCH   4   3
ENDBRANCH  10   9
BRANCH  12  13
ATOM     13  N   UNL     1      20.434  23.937  26.580  0.00  0.00    -0.281 N 
ATOM     14  C   UNL     1      21.619  24.635  26.747  0.00  0.00    +0.248 C 
ATOM     30  O   UNL     1      22.035  25.045  27.821  0.00  0.00    -0.270 OA
ATOM     31  H   UNL     1      20.111  23.826  25.619  0.00  0.00    +0.155 HD
BRANCH  14  15
ATOM     15  C   UNL     1      22.457  24.934  25.546  0.00  0.00    +0.037 A 
ATOM     16  C   UNL     1      23.236  23.885  24.883  0.00  0.00    +0.013 A 
ATOM     17  C   UNL     1      24.050  24.203  23.736  0.00  0.00    +0.005 A 
ATOM     18  C   UNL     1      24.086  25.578  23.244  0.00  0.00    -0.033 A 
ATOM     28  C   UNL     1      23.299  26.598  23.917  0.00  0.00    +0.005 A 
ATOM     29  C   UNL     1      22.501  26.290  25.042  0.00  0.00    +0.013 A 
BRANCH  18  19
ATOM     19  C   UNL     1      24.942  26.013  22.039  0.00  0.00    +0.119 C 
BRANCH  19  20
ATOM     20  N   UNL     1      25.976  27.064  22.279  0.00  0.00    -0.302 NA
ATOM     21  C   UNL     1      26.978  27.156  21.125  0.00  0.00    +0.066 C 
ATOM     22  C   UNL     1      28.040  28.275  21.382  0.00  0.00    -0.064 C 
ATOM     23  N   UNL     1      28.759  27.999  22.704  0.00  0.00    +0.379 N 
ATOM     24  C   UNL     1      29.797  29.017  22.920  0.00  0.00    -0.096 C 
ATOM     25  H   UNL     1      29.267  27.011  22.612  0.00  0.00    -0.082 HD
ATOM     26  C   UNL     1      27.769  27.902  23.856  0.00  0.00    -0.064 C 
ATOM     27  C   UNL     1      26.701  26.807  23.577  0.00  0.00    +0.066 C 
ENDBRANCH  19  20
ENDBRANCH  18  19
ENDBRANCH  14  15
ENDBRANCH  12  13
TORSDOF 6
ENDMDL
