MODEL 1
REMARK VINA RESULT:      -6.8      0.000      0.000
REMARK  Name = C:\Users\Docking\Desktop\test protocol\1iep_ligandH.pdb
REMARK  8 active torsions:
REMARK  status: ('A' for Active; 'I' for Inactive)
REMARK    1  A    between atoms: _5  and  _11
REMARK    2  A    between atoms: _19  and  _21
REMARK    3  A    between atoms: _22  and  _66
REMARK    4  A    between atoms: _27  and  _30
REMARK    5  A    between atoms: _32  and  _33
REMARK    6  A    between atoms: _38  and  _43
REMARK    7  A    between atoms: _43  and  _46
REMARK    8  A    between atoms: _53  and  _55
REMARK                            x       y       z     vdW  Elec       q    Type
REMARK                         _______ _______ _______ _____ _____    ______ ____
ROOT
ATOM     10  C   UNL     1      28.573  44.022  15.794  0.00  0.00    +0.038 A 
ATOM     11  C   UNL     1      28.346  44.330  14.428  0.00  0.00    +0.047 A 
ATOM     12  C   UNL     1      27.359  43.602  13.647  0.00  0.00    +0.035 A 
ATOM     32  C   UNL     1      26.617  42.568  14.289  0.00  0.00    +0.024 A 
ATOM     33  C   UNL     1      26.836  42.241  15.676  0.00  0.00    +0.007 A 
ATOM     34  C   UNL     1      27.811  42.954  16.451  0.00  0.00    -0.029 A 
ATOM     35  C   UNL     1      28.008  42.557  17.933  0.00  0.00    +0.045 C 
ENDROOT
BRANCH  10   9
ATOM      4  C   UNL     1      32.995  44.588  17.574  0.00  0.00    +0.077 A 
ATOM      5  C   UNL     1      33.419  43.307  17.086  0.00  0.00    +0.048 A 
ATOM      6  C   UNL     1      32.467  42.531  16.388  0.00  0.00    +0.116 A 
ATOM      7  N   UNL     1      31.189  43.010  16.198  0.00  0.00    -0.223 NA
ATOM      8  C   UNL     1      30.812  44.248  16.683  0.00  0.00    +0.220 A 
ATOM      9  N   UNL     1      29.534  44.753  16.497  0.00  0.00    -0.283 N 
ATOM     36  H   UNL     1      29.293  45.668  16.877  0.00  0.00    +0.155 HD
ATOM     37  N   UNL     1      31.702  45.008  17.354  0.00  0.00    -0.214 NA
BRANCH   4   3
ATOM      1  C   UNL     1      34.666  46.653  20.445  0.00  0.00    +0.020 A 
ATOM      2  C   UNL     1      33.780  45.736  19.765  0.00  0.00    +0.013 A 
ATOM      3  C   UNL     1      33.886  45.526  18.327  0.00  0.00    +0.019 A 
ATOM     38  C   UNL     1      34.908  46.264  17.600  0.00  0.00    +0.120 A 
ATOM     39  N   UNL     1      35.746  47.141  18.281  0.00  0.00    -0.263 NA
ATOM     40  C   UNL     1      35.652  47.353  19.665  0.00  0.00    +0.111 A 
ENDBRANCH   4   3
ENDBRANCH  10   9
BRANCH  12  13
ATOM     13  N   UNL     1      27.090  43.865  12.255  0.00  0.00    -0.281 N 
ATOM     14  C   UNL     1      27.619  43.220  11.149  0.00  0.00    +0.248 C 
ATOM     30  O   UNL     1      28.571  42.455  11.185  0.00  0.00    -0.270 OA
ATOM     31  H   UNL     1      26.431  44.619  12.061  0.00  0.00    +0.155 HD
BRANCH  14  15
ATOM     15  C   UNL     1      27.011  43.472   9.807  0.00  0.00    +0.037 A 
ATOM     16  C   UNL     1      26.819  42.384   8.844  0.00  0.00    +0.013 A 
ATOM     17  C   UNL     1      26.246  42.657   7.549  0.00  0.00    +0.005 A 
ATOM     18  C   UNL     1      25.860  44.025   7.211  0.00  0.00    -0.033 A 
ATOM     28  C   UNL     1      26.057  45.084   8.188  0.00  0.00    +0.005 A 
ATOM     29  C   UNL     1      26.619  44.820   9.457  0.00  0.00    +0.013 A 
BRANCH  18  19
ATOM     19  C   UNL     1      25.261  44.412   5.846  0.00  0.00    +0.119 C 
BRANCH  19  20
ATOM     20  N   UNL     1      26.001  43.973   4.626  0.00  0.00    -0.302 NA
ATOM     21  C   UNL     1      27.319  44.732   4.450  0.00  0.00    +0.066 C 
ATOM     22  C   UNL     1      28.091  44.245   3.180  0.00  0.00    -0.064 C 
ATOM     23  N   UNL     1      27.200  44.414   1.949  0.00  0.00    +0.379 N 
ATOM     24  C   UNL     1      27.944  44.011   0.746  0.00  0.00    -0.096 C 
ATOM     25  H   UNL     1      26.961  45.499   1.851  0.00  0.00    -0.082 HD
ATOM     26  C   UNL     1      25.886  43.665   2.116  0.00  0.00    -0.064 C 
ATOM     27  C   UNL     1      25.141  44.136   3.397  0.00  0.00    +0.066 C 
ENDBRANCH  19  20
ENDBRANCH  18  19
ENDBRANCH  14  15
ENDBRANCH  12  13
TORSDOF 6
ENDMDL
MODEL 2
REMARK VINA RESULT:      -6.7     17.487     20.450
REMARK  Name = C:\Users\Docking\Desktop\test protocol\1iep_ligandH.pdb
REMARK  8 active torsions:
REMARK  status: ('A' for Active; 'I' for Inactive)
REMARK    1  A    between atoms: _5  and  _11
REMARK    2  A    between atoms: _19  and  _21
REMARK    3  A    between atoms: _22  and  _66
REMARK    4  A    between atoms: _27  and  _30
REMARK    5  A    between atoms: _32  and  _33
REMARK    6  A    between atoms: _38  and  _43
REMARK    7  A    between atoms: _43  and  _46
REMARK    8  A    between atoms: _53  and  _55
REMARK                            x       y       z     vdW  Elec       q    Type
REMARK                         _______ _______ _______ _____ _____    ______ ____
ROOT
ATOM     10  C   UNL     1      37.691  51.740  24.309  0.00  0.00    +0.038 A 
ATOM     11  C   UNL     1      36.731  52.657  24.807  0.00  0.00    +0.047 A 
ATOM     12  C   UNL     1      35.614  52.208  25.625  0.00  0.00    +0.035 A 
ATOM     32  C   UNL     1      35.508  50.817  25.917  0.00  0.00    +0.024 A 
ATOM     33  C   UNL     1      36.475  49.871  25.418  0.00  0.00    +0.007 A 
ATOM     34  C   UNL     1      37.577  50.308  24.609  0.00  0.00    -0.029 A 
ATOM     35  C   UNL     1      38.579  49.248  24.096  0.00  0.00    +0.045 C 
ENDROOT
BRANCH  10   9
ATOM      4  C   UNL     1      42.151  53.440  23.804  0.00  0.00    +0.077 A 
ATOM      5  C   UNL     1      42.397  53.380  25.216  0.00  0.00    +0.048 A 
ATOM      6  C   UNL     1      41.348  52.912  26.039  0.00  0.00    +0.116 A 
ATOM      7  N   UNL     1      40.146  52.535  25.480  0.00  0.00    -0.223 NA
ATOM      8  C   UNL     1      39.941  52.607  24.114  0.00  0.00    +0.220 A 
ATOM      9  N   UNL     1      38.743  52.226  23.529  0.00  0.00    -0.283 N 
ATOM     36  H   UNL     1      38.629  52.301  22.519  0.00  0.00    +0.155 HD
ATOM     37  N   UNL     1      40.927  53.052  23.307  0.00  0.00    -0.214 NA
BRANCH   4   3
ATOM      1  C   UNL     1      45.492  54.617  22.145  0.00  0.00    +0.020 A 
ATOM      2  C   UNL     1      44.556  54.166  23.149  0.00  0.00    +0.013 A 
ATOM      3  C   UNL     1      43.163  53.909  22.805  0.00  0.00    +0.019 A 
ATOM     38  C   UNL     1      42.747  54.120  21.427  0.00  0.00    +0.120 A 
ATOM     39  N   UNL     1      43.671  54.556  20.482  0.00  0.00    -0.263 NA
ATOM     40  C   UNL     1      45.013  54.808  20.802  0.00  0.00    +0.111 A 
ENDBRANCH   4   3
ENDBRANCH  10   9
BRANCH  12  13
ATOM     13  N   UNL     1      34.604  53.092  26.152  0.00  0.00    -0.281 N 
ATOM     14  C   UNL     1      33.331  52.765  26.588  0.00  0.00    +0.248 C 
ATOM     30  O   UNL     1      32.787  51.688  26.390  0.00  0.00    -0.270 OA
ATOM     31  H   UNL     1      34.859  54.078  26.210  0.00  0.00    +0.155 HD
BRANCH  14  15
ATOM     15  C   UNL     1      32.540  53.788  27.339  0.00  0.00    +0.037 A 
ATOM     16  C   UNL     1      32.871  54.137  28.723  0.00  0.00    +0.013 A 
ATOM     17  C   UNL     1      32.082  55.114  29.430  0.00  0.00    +0.005 A 
ATOM     18  C   UNL     1      30.955  55.750  28.753  0.00  0.00    -0.033 A 
ATOM     28  C   UNL     1      30.652  55.389  27.378  0.00  0.00    +0.005 A 
ATOM     29  C   UNL     1      31.422  54.431  26.682  0.00  0.00    +0.013 A 
BRANCH  18  19
ATOM     19  C   UNL     1      30.045  56.788  29.438  0.00  0.00    +0.119 C 
BRANCH  19  20
ATOM     20  N   UNL     1      28.654  56.362  29.774  0.00  0.00    -0.302 NA
ATOM     21  C   UNL     1      27.715  56.463  28.569  0.00  0.00    +0.066 C 
ATOM     22  C   UNL     1      26.269  55.993  28.933  0.00  0.00    -0.064 C 
ATOM     23  N   UNL     1      25.743  56.828  30.101  0.00  0.00    +0.379 N 
ATOM     24  C   UNL     1      24.362  56.427  30.408  0.00  0.00    -0.096 C 
ATOM     25  H   UNL     1      25.721  57.893  29.772  0.00  0.00    -0.082 HD
ATOM     26  C   UNL     1      26.672  56.735  31.303  0.00  0.00    -0.064 C 
ATOM     27  C   UNL     1      28.113  57.177  30.923  0.00  0.00    +0.066 C 
ENDBRANCH  19  20
ENDBRANCH  18  19
ENDBRANCH  14  15
ENDBRANCH  12  13
TORSDOF 6
ENDMDL
MODEL 3
REMARK VINA RESULT:      -6.7      3.934     11.884
REMARK  Name = C:\Users\Docking\Desktop\test protocol\1iep_ligandH.pdb
REMARK  8 active torsions:
REMARK  status: ('A' for Active; 'I' for Inactive)
REMARK    1  A    between atoms: _5  and  _11
REMARK    2  A    between atoms: _19  and  _21
REMARK    3  A    between atoms: _22  and  _66
REMARK    4  A    between atoms: _27  and  _30
REMARK    5  A    between atoms: _32  and  _33
REMARK    6  A    between atoms: _38  and  _43
REMARK    7  A    between atoms: _43  and  _46
REMARK    8  A    between atoms: _53  and  _55
REMARK                            x       y       z     vdW  Elec       q    Type
REMARK                         _______ _______ _______ _____ _____    ______ ____
ROOT
ATOM     10  C   UNL     1      25.877  44.780   8.699  0.00  0.00    +0.038 A 
ATOM     11  C   UNL     1      26.767  44.711   9.800  0.00  0.00    +0.047 A 
ATOM     12  C   UNL     1      27.461  43.476  10.131  0.00  0.00    +0.035 A 
ATOM     32  C   UNL     1      27.225  42.330   9.316  0.00  0.00    +0.024 A 
ATOM     33  C   UNL     1      26.322  42.383   8.194  0.00  0.00    +0.007 A 
ATOM     34  C   UNL     1      25.634  43.598   7.864  0.00  0.00    -0.029 A 
ATOM     35  C   UNL     1      24.672  43.594   6.653  0.00  0.00    +0.045 C 
ENDROOT
BRANCH  10   9
ATOM      4  C   UNL     1      23.389  48.653  10.060  0.00  0.00    +0.077 A 
ATOM      5  C   UNL     1      23.335  48.212  11.424  0.00  0.00    +0.048 A 
ATOM      6  C   UNL     1      23.953  46.979  11.733  0.00  0.00    +0.116 A 
ATOM      7  N   UNL     1      24.577  46.251  10.743  0.00  0.00    -0.223 NA
ATOM      8  C   UNL     1      24.609  46.704   9.437  0.00  0.00    +0.220 A 
ATOM      9  N   UNL     1      25.237  45.992   8.427  0.00  0.00    -0.283 N 
ATOM     36  H   UNL     1      25.233  46.357   7.475  0.00  0.00    +0.155 HD
ATOM     37  N   UNL     1      24.025  47.878   9.117  0.00  0.00    -0.214 NA
BRANCH   4   3
ATOM      1  C   UNL     1      22.267  51.626   7.779  0.00  0.00    +0.020 A 
ATOM      2  C   UNL     1      22.868  50.379   8.193  0.00  0.00    +0.013 A 
ATOM      3  C   UNL     1      22.785  49.935   9.579  0.00  0.00    +0.019 A 
ATOM     38  C   UNL     1      22.080  50.783  10.529  0.00  0.00    +0.120 A 
ATOM     39  N   UNL     1      21.512  51.980  10.102  0.00  0.00    -0.263 NA
ATOM     40  C   UNL     1      21.588  52.417   8.771  0.00  0.00    +0.111 A 
ENDBRANCH   4   3
ENDBRANCH  10   9
BRANCH  12  13
ATOM     13  N   UNL     1      28.370  43.344  11.242  0.00  0.00    -0.281 N 
ATOM     14  C   UNL     1      28.073  42.996  12.549  0.00  0.00    +0.248 C 
ATOM     30  O   UNL     1      26.943  42.954  13.013  0.00  0.00    -0.270 OA
ATOM     31  H   UNL     1      29.353  43.529  11.040  0.00  0.00    +0.155 HD
BRANCH  14  15
ATOM     15  C   UNL     1      29.193  42.661  13.480  0.00  0.00    +0.037 A 
ATOM     16  C   UNL     1      28.944  42.359  14.892  0.00  0.00    +0.013 A 
ATOM     17  C   UNL     1      30.044  42.056  15.772  0.00  0.00    +0.005 A 
ATOM     18  C   UNL     1      31.406  42.052  15.242  0.00  0.00    -0.033 A 
ATOM     28  C   UNL     1      31.624  42.350  13.836  0.00  0.00    +0.005 A 
ATOM     29  C   UNL     1      30.548  42.649  12.970  0.00  0.00    +0.013 A 
BRANCH  18  19
ATOM     19  C   UNL     1      32.642  41.760  16.113  0.00  0.00    +0.119 C 
BRANCH  19  20
ATOM     20  N   UNL     1      33.327  42.929  16.741  0.00  0.00    -0.302 NA
ATOM     21  C   UNL     1      32.398  44.140  16.866  0.00  0.00    +0.066 C 
ATOM     22  C   UNL     1      33.124  45.346  17.546  0.00  0.00    -0.064 C 
ATOM     23  N   UNL     1      34.375  45.704  16.741  0.00  0.00    +0.379 N 
ATOM     24  C   UNL     1      35.029  46.874  17.345  0.00  0.00    -0.096 C 
ATOM     25  H   UNL     1      34.046  45.991  15.716  0.00  0.00    -0.082 HD
ATOM     26  C   UNL     1      35.303  44.504  16.609  0.00  0.00    -0.064 C 
ATOM     27  C   UNL     1      34.563  43.302  15.960  0.00  0.00    +0.066 C 
ENDBRANCH  19  20
ENDBRANCH  18  19
ENDBRANCH  14  15
ENDBRANCH  12  13
TORSDOF 6
ENDMDL
MODEL 4
REMARK VINA RESULT:      -6.5     25.153     32.152
REMARK  Name = C:\Users\Docking\Desktop\test protocol\1iep_ligandH.pdb
REMARK  8 active torsions:
REMARK  status: ('A' for Active; 'I' for Inactive)
REMARK    1  A    between atoms: _5  and  _11
REMARK    2  A    between atoms: _19  and  _21
REMARK    3  A    between atoms: _22  and  _66
REMARK    4  A    between atoms: _27  and  _30
REMARK    5  A    between atoms: _32  and  _33
REMARK    6  A    between atoms: _38  and  _43
REMARK    7  A    between atoms: _43  and  _46
REMARK    8  A    between atoms: _53  and  _55
REMARK                            x       y       z     vdW  Elec       q    Type
REMARK                         _______ _______ _______ _____ _____    ______ ____
ROOT
ATOM     10  C   UNL     1      28.208  66.749  38.245  0.00  0.00    +0.038 A 
ATOM     11  C   UNL     1      28.670  65.546  37.652  0.00  0.00    +0.047 A 
ATOM     12  C   UNL     1      29.581  64.661  38.359  0.00  0.00    +0.035 A 
ATOM     32  C   UNL     1      29.999  65.029  39.671  0.00  0.00    +0.024 A 
ATOM     33  C   UNL     1      29.540  66.248  40.289  0.00  0.00    +0.007 A 
ATOM     34  C   UNL     1      28.643  67.127  39.594  0.00  0.00    -0.029 A 
ATOM     35  C   UNL     1      28.188  68.425  40.303  0.00  0.00    +0.045 C 
ENDROOT
BRANCH  10   9
ATOM      4  C   UNL     1      27.279  69.906  34.750  0.00  0.00    +0.077 A 
ATOM      5  C   UNL     1      28.656  69.959  34.352  0.00  0.00    +0.048 A 
ATOM      6  C   UNL     1      29.573  69.165  35.077  0.00  0.00    +0.116 A 
ATOM      7  N   UNL     1      29.134  68.379  36.120  0.00  0.00    -0.223 NA
ATOM      8  C   UNL     1      27.799  68.352  36.479  0.00  0.00    +0.220 A 
ATOM      9  N   UNL     1      27.334  67.562  37.520  0.00  0.00    -0.283 N 
ATOM     36  H   UNL     1      26.342  67.576  37.758  0.00  0.00    +0.155 HD
ATOM     37  N   UNL     1      26.904  69.102  35.804  0.00  0.00    -0.214 NA
BRANCH   4   3
ATOM      1  C   UNL     1      25.072  71.665  32.042  0.00  0.00    +0.020 A 
ATOM      2  C   UNL     1      26.146  70.906  32.640  0.00  0.00    +0.013 A 
ATOM      3  C   UNL     1      26.191  70.685  34.080  0.00  0.00    +0.019 A 
ATOM     38  C   UNL     1      25.125  71.250  34.893  0.00  0.00    +0.120 A 
ATOM     39  N   UNL     1      24.104  71.979  34.290  0.00  0.00    -0.263 NA
ATOM     40  C   UNL     1      24.052  72.199  32.906  0.00  0.00    +0.111 A 
ENDBRANCH   4   3
ENDBRANCH  10   9
BRANCH  12  13
ATOM     13  N   UNL     1      30.091  63.431  37.805  0.00  0.00    -0.281 N 
ATOM     14  C   UNL     1      30.085  63.027  36.480  0.00  0.00    +0.248 C 
ATOM     30  O   UNL     1      29.444  63.573  35.594  0.00  0.00    -0.270 OA
ATOM     31  H   UNL     1      30.506  62.779  38.471  0.00  0.00    +0.155 HD
BRANCH  14  15
ATOM     15  C   UNL     1      30.896  61.836  36.085  0.00  0.00    +0.037 A 
ATOM     16  C   UNL     1      30.576  60.497  36.587  0.00  0.00    +0.013 A 
ATOM     17  C   UNL     1      31.386  59.368  36.203  0.00  0.00    +0.005 A 
ATOM     18  C   UNL     1      32.524  59.573  35.310  0.00  0.00    -0.033 A 
ATOM     28  C   UNL     1      32.816  60.911  34.823  0.00  0.00    +0.005 A 
ATOM     29  C   UNL     1      32.025  62.020  35.197  0.00  0.00    +0.013 A 
BRANCH  18  19
ATOM     19  C   UNL     1      33.454  58.429  34.865  0.00  0.00    +0.119 C 
BRANCH  19  20
ATOM     20  N   UNL     1      33.430  58.050  33.421  0.00  0.00    -0.302 NA
ATOM     21  C   UNL     1      32.045  57.574  32.975  0.00  0.00    +0.066 C 
ATOM     22  C   UNL     1      32.032  57.203  31.456  0.00  0.00    -0.064 C 
ATOM     23  N   UNL     1      33.086  56.128  31.188  0.00  0.00    +0.379 N 
ATOM     24  C   UNL     1      33.037  55.736  29.772  0.00  0.00    -0.096 C 
ATOM     25  H   UNL     1      32.819  55.233  31.797  0.00  0.00    -0.082 HD
ATOM     26  C   UNL     1      34.466  56.592  31.631  0.00  0.00    -0.064 C 
ATOM     27  C   UNL     1      34.461  56.986  33.134  0.00  0.00    +0.066 C 
ENDBRANCH  19  20
ENDBRANCH  18  19
ENDBRANCH  14  15
ENDBRANCH  12  13
TORSDOF 6
ENDMDL
MODEL 5
REMARK VINA RESULT:      -6.4     35.500     40.145
REMARK  Name = C:\Users\Docking\Desktop\test protocol\1iep_ligandH.pdb
REMARK  8 active torsions:
REMARK  status: ('A' for Active; 'I' for Inactive)
REMARK    1  A    between atoms: _5  and  _11
REMARK    2  A    between atoms: _19  and  _21
REMARK    3  A    between atoms: _22  and  _66
REMARK    4  A    between atoms: _27  and  _30
REMARK    5  A    between atoms: _32  and  _33
REMARK    6  A    between atoms: _38  and  _43
REMARK    7  A    between atoms: _43  and  _46
REMARK    8  A    between atoms: _53  and  _55
REMARK                            x       y       z     vdW  Elec       q    Type
REMARK                         _______ _______ _______ _____ _____    ______ ____
ROOT
ATOM     10  C   UNL     1      17.701  74.334  37.321  0.00  0.00    +0.038 A 
ATOM     11  C   UNL     1      18.712  73.922  36.415  0.00  0.00    +0.047 A 
ATOM     12  C   UNL     1      20.114  73.922  36.801  0.00  0.00    +0.035 A 
ATOM     32  C   UNL     1      20.452  74.345  38.120  0.00  0.00    +0.024 A 
ATOM     33  C   UNL     1      19.438  74.769  39.053  0.00  0.00    +0.007 A 
ATOM     34  C   UNL     1      18.053  74.773  38.676  0.00  0.00    -0.029 A 
ATOM     35  C   UNL     1      17.009  75.243  39.716  0.00  0.00    +0.045 C 
ENDROOT
BRANCH  10   9
ATOM      4  C   UNL     1      14.161  75.778  34.419  0.00  0.00    +0.077 A 
ATOM      5  C   UNL     1      15.030  76.668  33.704  0.00  0.00    +0.048 A 
ATOM      6  C   UNL     1      16.380  76.730  34.119  0.00  0.00    +0.116 A 
ATOM      7  N   UNL     1      16.816  75.955  35.172  0.00  0.00    -0.223 NA
ATOM      8  C   UNL     1      15.952  75.108  35.841  0.00  0.00    +0.220 A 
ATOM      9  N   UNL     1      16.371  74.314  36.897  0.00  0.00    -0.283 N 
ATOM     36  H   UNL     1      15.700  73.708  37.369  0.00  0.00    +0.155 HD
ATOM     37  N   UNL     1      14.658  75.032  35.465  0.00  0.00    -0.214 NA
BRANCH   4   3
ATOM      1  C   UNL     1      10.775  75.490  32.483  0.00  0.00    +0.020 A 
ATOM      2  C   UNL     1      12.185  75.670  32.739  0.00  0.00    +0.013 A 
ATOM      3  C   UNL     1      12.710  75.600  34.097  0.00  0.00    +0.019 A 
ATOM     38  C   UNL     1      11.774  75.342  35.181  0.00  0.00    +0.120 A 
ATOM     39  N   UNL     1      10.421  75.174  34.904  0.00  0.00    -0.263 NA
ATOM     40  C   UNL     1       9.904  75.242  33.602  0.00  0.00    +0.111 A 
ENDBRANCH   4   3
ENDBRANCH  10   9
BRANCH  12  13
ATOM     13  N   UNL     1      21.185  73.521  35.922  0.00  0.00    -0.281 N 
ATOM     14  C   UNL     1      21.380  73.883  34.599  0.00  0.00    +0.248 C 
ATOM     30  O   UNL     1      20.543  74.438  33.903  0.00  0.00    -0.270 OA
ATOM     31  H   UNL     1      21.883  72.896  36.324  0.00  0.00    +0.155 HD
BRANCH  14  15
ATOM     15  C   UNL     1      22.690  73.569  33.951  0.00  0.00    +0.037 A 
ATOM     16  C   UNL     1      22.911  72.294  33.263  0.00  0.00    +0.013 A 
ATOM     17  C   UNL     1      24.190  72.009  32.661  0.00  0.00    +0.005 A 
ATOM     18  C   UNL     1      25.257  73.003  32.743  0.00  0.00    -0.033 A 
ATOM     28  C   UNL     1      25.009  74.262  33.427  0.00  0.00    +0.005 A 
ATOM     29  C   UNL     1      23.757  74.544  34.019  0.00  0.00    +0.013 A 
BRANCH  18  19
ATOM     19  C   UNL     1      26.659  72.776  32.148  0.00  0.00    +0.119 C 
BRANCH  19  20
ATOM     20  N   UNL     1      27.711  72.239  33.062  0.00  0.00    -0.302 NA
ATOM     21  C   UNL     1      27.116  71.380  34.180  0.00  0.00    +0.066 C 
ATOM     22  C   UNL     1      28.233  70.808  35.114  0.00  0.00    -0.064 C 
ATOM     23  N   UNL     1      29.049  71.964  35.695  0.00  0.00    +0.379 N 
ATOM     24  C   UNL     1      30.063  71.433  36.618  0.00  0.00    -0.096 C 
ATOM     25  H   UNL     1      28.355  72.604  36.286  0.00  0.00    -0.082 HD
ATOM     26  C   UNL     1      29.642  72.826  34.589  0.00  0.00    -0.064 C 
ATOM     27  C   UNL     1      28.527  73.364  33.650  0.00  0.00    +0.066 C 
ENDBRANCH  19  20
ENDBRANCH  18  19
ENDBRANCH  14  15
ENDBRANCH  12  13
TORSDOF 6
ENDMDL
