MODEL 1
REMARK VINA RESULT:     -10.3      0.000      0.000
REMARK  Name = C:\Users\Docking\Desktop\test protocol\1iep_ligandH.pdb
REMARK  8 active torsions:
REMARK  status: ('A' for Active; 'I' for Inactive)
REMARK    1  A    between atoms: _5  and  _11
REMARK    2  A    between atoms: _19  and  _21
REMARK    3  A    between atoms: _22  and  _66
REMARK    4  A    between atoms: _27  and  _30
REMARK    5  A    between atoms: _32  and  _33
REMARK    6  A    between atoms: _38  and  _43
REMARK    7  A    between atoms: _43  and  _46
REMARK    8  A    between atoms: _53  and  _55
REMARK                            x       y       z     vdW  Elec       q    Type
REMARK                         _______ _______ _______ _____ _____    ______ ____
ROOT
ATOM     10  C   UNL     1      40.658  74.498  37.870  0.00  0.00    +0.038 A 
ATOM     11  C   UNL     1      41.562  75.567  38.093  0.00  0.00    +0.047 A 
ATOM     12  C   UNL     1      41.372  76.496  39.196  0.00  0.00    +0.035 A 
ATOM     32  C   UNL     1      40.250  76.305  40.055  0.00  0.00    +0.024 A 
ATOM     33  C   UNL     1      39.320  75.224  39.842  0.00  0.00    +0.007 A 
ATOM     34  C   UNL     1      39.502  74.306  38.754  0.00  0.00    -0.029 A 
ATOM     35  C   UNL     1      38.469  73.169  38.569  0.00  0.00    +0.045 C 
ENDROOT
BRANCH  10   9
ATOM      4  C   UNL     1      39.873  73.046  33.363  0.00  0.00    +0.077 A 
ATOM      5  C   UNL     1      38.900  74.076  33.138  0.00  0.00    +0.048 A 
ATOM      6  C   UNL     1      38.625  74.955  34.210  0.00  0.00    +0.116 A 
ATOM      7  N   UNL     1      39.281  74.805  35.413  0.00  0.00    -0.223 NA
ATOM      8  C   UNL     1      40.212  73.800  35.597  0.00  0.00    +0.220 A 
ATOM      9  N   UNL     1      40.889  73.636  36.796  0.00  0.00    -0.283 N 
ATOM     36  H   UNL     1      41.563  72.877  36.894  0.00  0.00    +0.155 HD
ATOM     37  N   UNL     1      40.491  72.947  34.589  0.00  0.00    -0.214 NA
BRANCH   4   3
ATOM      1  C   UNL     1      41.761  70.201  31.455  0.00  0.00    +0.020 A 
ATOM      2  C   UNL     1      41.417  71.153  32.486  0.00  0.00    +0.013 A 
ATOM      3  C   UNL     1      40.274  72.043  32.327  0.00  0.00    +0.019 A 
ATOM     38  C   UNL     1      39.493  71.943  31.103  0.00  0.00    +0.120 A 
ATOM     39  N   UNL     1      39.849  71.018  30.126  0.00  0.00    -0.263 NA
ATOM     40  C   UNL     1      40.948  70.158  30.268  0.00  0.00    +0.111 A 
ENDBRANCH   4   3
ENDBRANCH  10   9
BRANCH  12  13
ATOM     13  N   UNL     1      42.253  77.605  39.468  0.00  0.00    -0.281 N 
ATOM     14  C   UNL     1      43.226  77.699  40.448  0.00  0.00    +0.248 C 
ATOM     30  O   UNL     1      43.343  76.921  41.383  0.00  0.00    -0.270 OA
ATOM     31  H   UNL     1      42.145  78.420  38.863  0.00  0.00    +0.155 HD
BRANCH  14  15
ATOM     15  C   UNL     1      44.203  78.829  40.390  0.00  0.00    +0.037 A 
ATOM     16  C   UNL     1      45.319  78.919  41.336  0.00  0.00    +0.013 A 
ATOM     17  C   UNL     1      46.236  80.028  41.269  0.00  0.00    +0.005 A 
ATOM     18  C   UNL     1      46.042  81.058  40.250  0.00  0.00    -0.033 A 
ATOM     28  C   UNL     1      44.930  80.941  39.322  0.00  0.00    +0.005 A 
ATOM     29  C   UNL     1      44.028  79.856  39.385  0.00  0.00    +0.013 A 
BRANCH  18  19
ATOM     19  C   UNL     1      46.959  82.288  40.119  0.00  0.00    +0.119 C 
BRANCH  19  20
ATOM     20  N   UNL     1      47.931  82.537  41.225  0.00  0.00    -0.302 NA
ATOM     21  C   UNL     1      47.408  83.571  42.226  0.00  0.00    +0.066 C 
ATOM     22  C   UNL     1      48.427  83.804  43.389  0.00  0.00    -0.064 C 
ATOM     23  N   UNL     1      49.770  84.246  42.805  0.00  0.00    +0.379 N 
ATOM     24  C   UNL     1      50.714  84.521  43.899  0.00  0.00    -0.096 C 
ATOM     25  H   UNL     1      49.602  85.201  42.255  0.00  0.00    -0.082 HD
ATOM     26  C   UNL     1      50.296  83.225  41.806  0.00  0.00    -0.064 C 
ATOM     27  C   UNL     1      49.263  82.980  40.671  0.00  0.00    +0.066 C 
ENDBRANCH  19  20
ENDBRANCH  18  19
ENDBRANCH  14  15
ENDBRANCH  12  13
TORSDOF 6
ENDMDL
MODEL 2
REMARK VINA RESULT:      -9.2      2.514     13.310
REMARK  Name = C:\Users\Docking\Desktop\test protocol\1iep_ligandH.pdb
REMARK  8 active torsions:
REMARK  status: ('A' for Active; 'I' for Inactive)
REMARK    1  A    between atoms: _5  and  _11
REMARK    2  A    between atoms: _19  and  _21
REMARK    3  A    between atoms: _22  and  _66
REMARK    4  A    between atoms: _27  and  _30
REMARK    5  A    between atoms: _32  and  _33
REMARK    6  A    between atoms: _38  and  _43
REMARK    7  A    between atoms: _43  and  _46
REMARK    8  A    between atoms: _53  and  _55
REMARK                            x       y       z     vdW  Elec       q    Type
REMARK                         _______ _______ _______ _____ _____    ______ ____
ROOT
ATOM     10  C   UNL     1      40.733  75.772  38.579  0.00  0.00    +0.038 A 
ATOM     11  C   UNL     1      40.793  75.090  37.336  0.00  0.00    +0.047 A 
ATOM     12  C   UNL     1      40.028  73.875  37.107  0.00  0.00    +0.035 A 
ATOM     32  C   UNL     1      39.208  73.383  38.164  0.00  0.00    +0.024 A 
ATOM     33  C   UNL     1      39.136  74.062  39.433  0.00  0.00    +0.007 A 
ATOM     34  C   UNL     1      39.891  75.260  39.667  0.00  0.00    -0.029 A 
ATOM     35  C   UNL     1      39.780  75.943  41.050  0.00  0.00    +0.045 C 
ENDROOT
BRANCH  10   9
ATOM      4  C   UNL     1      44.694  78.077  40.005  0.00  0.00    +0.077 A 
ATOM      5  C   UNL     1      45.297  76.866  40.485  0.00  0.00    +0.048 A 
ATOM      6  C   UNL     1      44.552  75.673  40.352  0.00  0.00    +0.116 A 
ATOM      7  N   UNL     1      43.298  75.700  39.781  0.00  0.00    -0.223 NA
ATOM      8  C   UNL     1      42.745  76.885  39.330  0.00  0.00    +0.220 A 
ATOM      9  N   UNL     1      41.489  76.934  38.745  0.00  0.00    -0.283 N 
ATOM     36  H   UNL     1      41.114  77.829  38.432  0.00  0.00    +0.155 HD
ATOM     37  N   UNL     1      43.436  78.038  39.446  0.00  0.00    -0.214 NA
BRANCH   4   3
ATOM      1  C   UNL     1      46.810  81.139  41.208  0.00  0.00    +0.020 A 
ATOM      2  C   UNL     1      46.191  79.834  41.193  0.00  0.00    +0.013 A 
ATOM      3  C   UNL     1      45.358  79.417  40.072  0.00  0.00    +0.019 A 
ATOM     38  C   UNL     1      45.169  80.352  38.973  0.00  0.00    +0.120 A 
ATOM     39  N   UNL     1      45.776  81.604  39.016  0.00  0.00    -0.263 NA
ATOM     40  C   UNL     1      46.579  82.016  40.090  0.00  0.00    +0.111 A 
ENDBRANCH   4   3
ENDBRANCH  10   9
BRANCH  12  13
ATOM     13  N   UNL     1      40.055  73.136  35.869  0.00  0.00    -0.281 N 
ATOM     14  C   UNL     1      39.994  73.634  34.578  0.00  0.00    +0.248 C 
ATOM     30  O   UNL     1      39.690  74.783  34.294  0.00  0.00    -0.270 OA
ATOM     31  H   UNL     1      40.129  72.122  35.955  0.00  0.00    +0.155 HD
BRANCH  14  15
ATOM     15  C   UNL     1      40.302  72.720  33.436  0.00  0.00    +0.037 A 
ATOM     16  C   UNL     1      41.533  71.927  33.407  0.00  0.00    +0.013 A 
ATOM     17  C   UNL     1      41.813  71.066  32.286  0.00  0.00    +0.005 A 
ATOM     18  C   UNL     1      40.858  70.993  31.183  0.00  0.00    -0.033 A 
ATOM     28  C   UNL     1      39.641  71.786  31.239  0.00  0.00    +0.005 A 
ATOM     29  C   UNL     1      39.364  72.632  32.337  0.00  0.00    +0.013 A 
BRANCH  18  19
ATOM     19  C   UNL     1      41.085  70.117  29.936  0.00  0.00    +0.119 C 
BRANCH  19  20
ATOM     20  N   UNL     1      40.323  70.473  28.703  0.00  0.00    -0.302 NA
ATOM     21  C   UNL     1      39.746  69.237  28.006  0.00  0.00    +0.066 C 
ATOM     22  C   UNL     1      38.933  69.630  26.730  0.00  0.00    -0.064 C 
ATOM     23  N   UNL     1      39.834  70.417  25.777  0.00  0.00    +0.379 N 
ATOM     24  C   UNL     1      39.089  70.738  24.551  0.00  0.00    -0.096 C 
ATOM     25  H   UNL     1      40.685  69.756  25.493  0.00  0.00    -0.082 HD
ATOM     26  C   UNL     1      40.414  71.647  26.462  0.00  0.00    -0.064 C 
ATOM     27  C   UNL     1      41.195  71.248  27.745  0.00  0.00    +0.066 C 
ENDBRANCH  19  20
ENDBRANCH  18  19
ENDBRANCH  14  15
ENDBRANCH  12  13
TORSDOF 6
ENDMDL
MODEL 3
REMARK VINA RESULT:      -9.2      4.833     12.565
REMARK  Name = C:\Users\Docking\Desktop\test protocol\1iep_ligandH.pdb
REMARK  8 active torsions:
REMARK  status: ('A' for Active; 'I' for Inactive)
REMARK    1  A    between atoms: _5  and  _11
REMARK    2  A    between atoms: _19  and  _21
REMARK    3  A    between atoms: _22  and  _66
REMARK    4  A    between atoms: _27  and  _30
REMARK    5  A    between atoms: _32  and  _33
REMARK    6  A    between atoms: _38  and  _43
REMARK    7  A    between atoms: _43  and  _46
REMARK    8  A    between atoms: _53  and  _55
REMARK                            x       y       z     vdW  Elec       q    Type
REMARK                         _______ _______ _______ _____ _____    ______ ____
ROOT
ATOM     10  C   UNL     1      44.464  77.378  40.828  0.00  0.00    +0.038 A 
ATOM     11  C   UNL     1      43.138  77.742  40.480  0.00  0.00    +0.047 A 
ATOM     12  C   UNL     1      42.215  76.771  39.915  0.00  0.00    +0.035 A 
ATOM     32  C   UNL     1      42.675  75.436  39.718  0.00  0.00    +0.024 A 
ATOM     33  C   UNL     1      44.020  75.049  40.065  0.00  0.00    +0.007 A 
ATOM     34  C   UNL     1      44.936  76.004  40.621  0.00  0.00    -0.029 A 
ATOM     35  C   UNL     1      46.368  75.535  40.967  0.00  0.00    +0.045 C 
ENDROOT
BRANCH  10   9
ATOM      4  C   UNL     1      46.737  81.601  40.615  0.00  0.00    +0.077 A 
ATOM      5  C   UNL     1      46.220  81.880  39.306  0.00  0.00    +0.048 A 
ATOM      6  C   UNL     1      45.379  80.907  38.719  0.00  0.00    +0.116 A 
ATOM      7  N   UNL     1      45.083  79.747  39.401  0.00  0.00    -0.223 NA
ATOM      8  C   UNL     1      45.599  79.508  40.661  0.00  0.00    +0.220 A 
ATOM      9  N   UNL     1      45.308  78.351  41.368  0.00  0.00    -0.283 N 
ATOM     36  H   UNL     1      45.715  78.209  42.292  0.00  0.00    +0.155 HD
ATOM     37  N   UNL     1      46.406  80.420  41.242  0.00  0.00    -0.214 NA
BRANCH   4   3
ATOM      1  C   UNL     1      48.160  84.048  43.314  0.00  0.00    +0.020 A 
ATOM      2  C   UNL     1      47.254  83.157  42.627  0.00  0.00    +0.013 A 
ATOM      3  C   UNL     1      47.636  82.531  41.367  0.00  0.00    +0.019 A 
ATOM     38  C   UNL     1      48.954  82.829  40.826  0.00  0.00    +0.120 A 
ATOM     39  N   UNL     1      49.805  83.692  41.510  0.00  0.00    -0.263 NA
ATOM     40  C   UNL     1      49.447  84.302  42.721  0.00  0.00    +0.111 A 
ENDBRANCH   4   3
ENDBRANCH  10   9
BRANCH  12  13
ATOM     13  N   UNL     1      40.859  77.085  39.535  0.00  0.00    -0.281 N 
ATOM     14  C   UNL     1      40.419  77.688  38.369  0.00  0.00    +0.248 C 
ATOM     30  O   UNL     1      41.148  78.247  37.563  0.00  0.00    -0.270 OA
ATOM     31  H   UNL     1      40.137  76.831  40.209  0.00  0.00    +0.155 HD
BRANCH  14  15
ATOM     15  C   UNL     1      38.957  77.683  38.060  0.00  0.00    +0.037 A 
ATOM     16  C   UNL     1      38.042  76.756  38.731  0.00  0.00    +0.013 A 
ATOM     17  C   UNL     1      36.639  76.761  38.403  0.00  0.00    +0.005 A 
ATOM     18  C   UNL     1      36.141  77.697  37.398  0.00  0.00    -0.033 A 
ATOM     28  C   UNL     1      37.070  78.610  36.752  0.00  0.00    +0.005 A 
ATOM     29  C   UNL     1      38.446  78.608  37.070  0.00  0.00    +0.013 A 
BRANCH  18  19
ATOM     19  C   UNL     1      34.663  77.757  36.970  0.00  0.00    +0.119 C 
BRANCH  19  20
ATOM     20  N   UNL     1      34.106  79.098  36.619  0.00  0.00    -0.302 NA
ATOM     21  C   UNL     1      33.783  79.929  37.864  0.00  0.00    +0.066 C 
ATOM     22  C   UNL     1      33.223  81.337  37.479  0.00  0.00    -0.064 C 
ATOM     23  N   UNL     1      31.980  81.167  36.603  0.00  0.00    +0.379 N 
ATOM     24  C   UNL     1      31.418  82.488  36.287  0.00  0.00    -0.096 C 
ATOM     25  H   UNL     1      31.221  80.609  37.200  0.00  0.00    -0.082 HD
ATOM     26  C   UNL     1      32.292  80.339  35.365  0.00  0.00    -0.064 C 
ATOM     27  C   UNL     1      32.876  78.953  35.758  0.00  0.00    +0.066 C 
ENDBRANCH  19  20
ENDBRANCH  18  19
ENDBRANCH  14  15
ENDBRANCH  12  13
TORSDOF 6
ENDMDL
MODEL 4
REMARK VINA RESULT:      -9.1      4.832     12.839
REMARK  Name = C:\Users\Docking\Desktop\test protocol\1iep_ligandH.pdb
REMARK  8 active torsions:
REMARK  status: ('A' for Active; 'I' for Inactive)
REMARK    1  A    between atoms: _5  and  _11
REMARK    2  A    between atoms: _19  and  _21
REMARK    3  A    between atoms: _22  and  _66
REMARK    4  A    between atoms: _27  and  _30
REMARK    5  A    between atoms: _32  and  _33
REMARK    6  A    between atoms: _38  and  _43
REMARK    7  A    between atoms: _43  and  _46
REMARK    8  A    between atoms: _53  and  _55
REMARK                            x       y       z     vdW  Elec       q    Type
REMARK                         _______ _______ _______ _____ _____    ______ ____
ROOT
ATOM     10  C   UNL     1      44.482  77.382  40.843  0.00  0.00    +0.038 A 
ATOM     11  C   UNL     1      43.152  77.744  40.507  0.00  0.00    +0.047 A 
ATOM     12  C   UNL     1      42.231  76.777  39.931  0.00  0.00    +0.035 A 
ATOM     32  C   UNL     1      42.696  75.447  39.714  0.00  0.00    +0.024 A 
ATOM     33  C   UNL     1      44.045  75.062  40.049  0.00  0.00    +0.007 A 
ATOM     34  C   UNL     1      44.959  76.012  40.614  0.00  0.00    -0.029 A 
ATOM     35  C   UNL     1      46.395  75.545  40.947  0.00  0.00    +0.045 C 
ENDROOT
BRANCH  10   9
ATOM      4  C   UNL     1      46.748  81.609  40.671  0.00  0.00    +0.077 A 
ATOM      5  C   UNL     1      46.233  81.899  39.364  0.00  0.00    +0.048 A 
ATOM      6  C   UNL     1      45.393  80.932  38.768  0.00  0.00    +0.116 A 
ATOM      7  N   UNL     1      45.098  79.764  39.438  0.00  0.00    -0.223 NA
ATOM      8  C   UNL     1      45.614  79.515  40.697  0.00  0.00    +0.220 A 
ATOM      9  N   UNL     1      45.324  78.351  41.392  0.00  0.00    -0.283 N 
ATOM     36  H   UNL     1      45.730  78.201  42.316  0.00  0.00    +0.155 HD
ATOM     37  N   UNL     1      46.419  80.422  41.287  0.00  0.00    -0.214 NA
BRANCH   4   3
ATOM      1  C   UNL     1      48.132  84.106  43.345  0.00  0.00    +0.020 A 
ATOM      2  C   UNL     1      47.226  83.224  42.647  0.00  0.00    +0.013 A 
ATOM      3  C   UNL     1      47.646  82.534  41.433  0.00  0.00    +0.019 A 
ATOM     38  C   UNL     1      48.999  82.760  40.950  0.00  0.00    +0.120 A 
ATOM     39  N   UNL     1      49.849  83.617  41.643  0.00  0.00    -0.263 NA
ATOM     40  C   UNL     1      49.456  84.287  42.811  0.00  0.00    +0.111 A 
ENDBRANCH   4   3
ENDBRANCH  10   9
BRANCH  12  13
ATOM     13  N   UNL     1      40.872  77.089  39.563  0.00  0.00    -0.281 N 
ATOM     14  C   UNL     1      40.414  77.615  38.366  0.00  0.00    +0.248 C 
ATOM     30  O   UNL     1      41.132  78.099  37.504  0.00  0.00    -0.270 OA
ATOM     31  H   UNL     1      40.162  76.900  40.270  0.00  0.00    +0.155 HD
BRANCH  14  15
ATOM     15  C   UNL     1      38.944  77.618  38.094  0.00  0.00    +0.037 A 
ATOM     16  C   UNL     1      38.334  78.625  37.222  0.00  0.00    +0.013 A 
ATOM     17  C   UNL     1      36.912  78.614  36.990  0.00  0.00    +0.005 A 
ATOM     18  C   UNL     1      36.089  77.591  37.631  0.00  0.00    -0.033 A 
ATOM     28  C   UNL     1      36.721  76.601  38.487  0.00  0.00    +0.005 A 
ATOM     29  C   UNL     1      38.115  76.608  38.718  0.00  0.00    +0.013 A 
BRANCH  18  19
ATOM     19  C   UNL     1      34.561  77.517  37.457  0.00  0.00    +0.119 C 
BRANCH  19  20
ATOM     20  N   UNL     1      33.780  76.854  38.544  0.00  0.00    -0.302 NA
ATOM     21  C   UNL     1      32.480  76.234  38.022  0.00  0.00    +0.066 C 
ATOM     22  C   UNL     1      31.687  75.526  39.168  0.00  0.00    -0.064 C 
ATOM     23  N   UNL     1      31.398  76.534  40.282  0.00  0.00    +0.379 N 
ATOM     24  C   UNL     1      30.602  75.886  41.335  0.00  0.00    -0.096 C 
ATOM     25  H   UNL     1      30.779  77.352  39.845  0.00  0.00    -0.082 HD
ATOM     26  C   UNL     1      32.684  77.157  40.805  0.00  0.00    -0.064 C 
ATOM     27  C   UNL     1      33.479  77.833  39.653  0.00  0.00    +0.066 C 
ENDBRANCH  19  20
ENDBRANCH  18  19
ENDBRANCH  14  15
ENDBRANCH  12  13
TORSDOF 6
ENDMDL
MODEL 5
REMARK VINA RESULT:      -8.9      3.854      5.489
REMARK  Name = C:\Users\Docking\Desktop\test protocol\1iep_ligandH.pdb
REMARK  8 active torsions:
REMARK  status: ('A' for Active; 'I' for Inactive)
REMARK    1  A    between atoms: _5  and  _11
REMARK    2  A    between atoms: _19  and  _21
REMARK    3  A    between atoms: _22  and  _66
REMARK    4  A    between atoms: _27  and  _30
REMARK    5  A    between atoms: _32  and  _33
REMARK    6  A    between atoms: _38  and  _43
REMARK    7  A    between atoms: _43  and  _46
REMARK    8  A    between atoms: _53  and  _55
REMARK                            x       y       z     vdW  Elec       q    Type
REMARK                         _______ _______ _______ _____ _____    ______ ____
ROOT
ATOM     10  C   UNL     1      41.130  73.919  38.859  0.00  0.00    +0.038 A 
ATOM     11  C   UNL     1      42.004  75.001  39.134  0.00  0.00    +0.047 A 
ATOM     12  C   UNL     1      41.552  76.380  39.030  0.00  0.00    +0.035 A 
ATOM     32  C   UNL     1      40.200  76.620  38.644  0.00  0.00    +0.024 A 
ATOM     33  C   UNL     1      39.298  75.532  38.360  0.00  0.00    +0.007 A 
ATOM     34  C   UNL     1      39.740  74.170  38.459  0.00  0.00    -0.029 A 
ATOM     35  C   UNL     1      38.731  73.043  38.135  0.00  0.00    +0.045 C 
ENDROOT
BRANCH  10   9
ATOM      4  C   UNL     1      42.013  69.941  41.394  0.00  0.00    +0.077 A 
ATOM      5  C   UNL     1      41.483  70.518  42.596  0.00  0.00    +0.048 A 
ATOM      6  C   UNL     1      41.000  71.843  42.521  0.00  0.00    +0.116 A 
ATOM      7  N   UNL     1      41.047  72.531  41.327  0.00  0.00    -0.223 NA
ATOM      8  C   UNL     1      41.567  71.945  40.187  0.00  0.00    +0.220 A 
ATOM      9  N   UNL     1      41.617  72.616  38.975  0.00  0.00    -0.283 N 
ATOM     36  H   UNL     1      42.015  72.151  38.158  0.00  0.00    +0.155 HD
ATOM     37  N   UNL     1      42.036  70.681  40.233  0.00  0.00    -0.214 NA
BRANCH   4   3
ATOM      1  C   UNL     1      44.066  66.688  42.106  0.00  0.00    +0.020 A 
ATOM      2  C   UNL     1      43.573  68.041  42.228  0.00  0.00    +0.013 A 
ATOM      3  C   UNL     1      42.559  68.549  41.313  0.00  0.00    +0.019 A 
ATOM     38  C   UNL     1      42.060  67.655  40.278  0.00  0.00    +0.120 A 
ATOM     39  N   UNL     1      42.554  66.358  40.184  0.00  0.00    -0.263 NA
ATOM     40  C   UNL     1      43.531  65.859  41.058  0.00  0.00    +0.111 A 
ENDBRANCH   4   3
ENDBRANCH  10   9
BRANCH  12  13
ATOM     13  N   UNL     1      42.396  77.519  39.289  0.00  0.00    -0.281 N 
ATOM     14  C   UNL     1      43.197  77.752  40.395  0.00  0.00    +0.248 C 
ATOM     30  O   UNL     1      43.144  77.109  41.434  0.00  0.00    -0.270 OA
ATOM     31  H   UNL     1      42.404  78.243  38.570  0.00  0.00    +0.155 HD
BRANCH  14  15
ATOM     15  C   UNL     1      44.190  78.867  40.346  0.00  0.00    +0.037 A 
ATOM     16  C   UNL     1      45.279  78.959  41.322  0.00  0.00    +0.013 A 
ATOM     17  C   UNL     1      46.213  80.055  41.263  0.00  0.00    +0.005 A 
ATOM     18  C   UNL     1      46.063  81.068  40.221  0.00  0.00    -0.033 A 
ATOM     28  C   UNL     1      44.977  80.950  39.262  0.00  0.00    +0.005 A 
ATOM     29  C   UNL     1      44.059  79.877  39.318  0.00  0.00    +0.013 A 
BRANCH  18  19
ATOM     19  C   UNL     1      47.001  82.283  40.094  0.00  0.00    +0.119 C 
BRANCH  19  20
ATOM     20  N   UNL     1      47.980  82.509  41.199  0.00  0.00    -0.302 NA
ATOM     21  C   UNL     1      47.423  83.444  42.277  0.00  0.00    +0.066 C 
ATOM     22  C   UNL     1      48.452  83.651  43.437  0.00  0.00    -0.064 C 
ATOM     23  N   UNL     1      49.758  84.203  42.863  0.00  0.00    +0.379 N 
ATOM     24  C   UNL     1      50.707  84.454  43.958  0.00  0.00    -0.096 C 
ATOM     25  H   UNL     1      49.529  85.183  42.383  0.00  0.00    -0.082 HD
ATOM     26  C   UNL     1      50.317  83.282  41.789  0.00  0.00    -0.064 C 
ATOM     27  C   UNL     1      49.276  83.059  40.656  0.00  0.00    +0.066 C 
ENDBRANCH  19  20
ENDBRANCH  18  19
ENDBRANCH  14  15
ENDBRANCH  12  13
TORSDOF 6
ENDMDL
