MODEL 1
REMARK VINA RESULT:      -9.3      0.000      0.000
REMARK  Name = C:\Users\Docking\Desktop\test protocol\1iep_ligandH.pdb
REMARK  8 active torsions:
REMARK  status: ('A' for Active; 'I' for Inactive)
REMARK    1  A    between atoms: _5  and  _11
REMARK    2  A    between atoms: _19  and  _21
REMARK    3  A    between atoms: _22  and  _66
REMARK    4  A    between atoms: _27  and  _30
REMARK    5  A    between atoms: _32  and  _33
REMARK    6  A    between atoms: _38  and  _43
REMARK    7  A    between atoms: _43  and  _46
REMARK    8  A    between atoms: _53  and  _55
REMARK                            x       y       z     vdW  Elec       q    Type
REMARK                         _______ _______ _______ _____ _____    ______ ____
ROOT
ATOM     10  C   UNL     1      -7.524  18.604  55.229  0.00  0.00    +0.038 A 
ATOM     11  C   UNL     1      -8.485  19.588  55.575  0.00  0.00    +0.047 A 
ATOM     12  C   UNL     1      -9.487  20.031  54.617  0.00  0.00    +0.035 A 
ATOM     32  C   UNL     1      -9.482  19.449  53.317  0.00  0.00    +0.024 A 
ATOM     33  C   UNL     1      -8.512  18.448  52.948  0.00  0.00    +0.007 A 
ATOM     34  C   UNL     1      -7.520  18.009  53.888  0.00  0.00    -0.029 A 
ATOM     35  C   UNL     1      -6.500  16.938  53.436  0.00  0.00    +0.045 C 
ENDROOT
BRANCH  10   9
ATOM      4  C   UNL     1      -3.824  19.523  58.145  0.00  0.00    +0.077 A 
ATOM      5  C   UNL     1      -3.736  20.884  57.701  0.00  0.00    +0.048 A 
ATOM      6  C   UNL     1      -4.656  21.307  56.716  0.00  0.00    +0.116 A 
ATOM      7  N   UNL     1      -5.592  20.425  56.219  0.00  0.00    -0.223 NA
ATOM      8  C   UNL     1      -5.648  19.118  56.668  0.00  0.00    +0.220 A 
ATOM      9  N   UNL     1      -6.586  18.216  56.188  0.00  0.00    -0.283 N 
ATOM     36  H   UNL     1      -6.590  17.259  56.539  0.00  0.00    +0.155 HD
ATOM     37  N   UNL     1      -4.779  18.690  57.607  0.00  0.00    -0.214 NA
BRANCH   4   3
ATOM      1  C   UNL     1      -2.511  17.707  61.351  0.00  0.00    +0.020 A 
ATOM      2  C   UNL     1      -3.423  18.265  60.380  0.00  0.00    +0.013 A 
ATOM      3  C   UNL     1      -2.923  18.929  59.183  0.00  0.00    +0.019 A 
ATOM     38  C   UNL     1      -1.482  19.011  58.996  0.00  0.00    +0.120 A 
ATOM     39  N   UNL     1      -0.627  18.466  59.949  0.00  0.00    -0.263 NA
ATOM     40  C   UNL     1      -1.097  17.826  61.106  0.00  0.00    +0.111 A 
ENDBRANCH   4   3
ENDBRANCH  10   9
BRANCH  12  13
ATOM     13  N   UNL     1     -10.482  21.033  54.909  0.00  0.00    -0.281 N 
ATOM     14  C   UNL     1     -10.363  22.409  54.801  0.00  0.00    +0.248 C 
ATOM     30  O   UNL     1      -9.306  23.001  54.640  0.00  0.00    -0.270 OA
ATOM     31  H   UNL     1     -11.384  20.685  55.235  0.00  0.00    +0.155 HD
BRANCH  14  15
ATOM     15  C   UNL     1     -11.595  23.250  54.901  0.00  0.00    +0.037 A 
ATOM     16  C   UNL     1     -12.137  23.652  56.201  0.00  0.00    +0.013 A 
ATOM     17  C   UNL     1     -13.336  24.450  56.269  0.00  0.00    +0.005 A 
ATOM     18  C   UNL     1     -14.000  24.852  55.032  0.00  0.00    -0.033 A 
ATOM     28  C   UNL     1     -13.438  24.443  53.755  0.00  0.00    +0.005 A 
ATOM     29  C   UNL     1     -12.264  23.660  53.685  0.00  0.00    +0.013 A 
BRANCH  18  19
ATOM     19  C   UNL     1     -15.295  25.685  55.011  0.00  0.00    +0.119 C 
BRANCH  19  20
ATOM     20  N   UNL     1     -15.639  26.446  56.248  0.00  0.00    -0.302 NA
ATOM     21  C   UNL     1     -16.637  25.690  57.130  0.00  0.00    +0.066 C 
ATOM     22  C   UNL     1     -16.968  26.491  58.431  0.00  0.00    -0.064 C 
ATOM     23  N   UNL     1     -17.515  27.868  58.053  0.00  0.00    +0.379 N 
ATOM     24  C   UNL     1     -17.882  28.602  59.273  0.00  0.00    -0.096 C 
ATOM     25  H   UNL     1     -18.446  27.711  57.460  0.00  0.00    -0.082 HD
ATOM     26  C   UNL     1     -16.530  28.626  57.174  0.00  0.00    -0.064 C 
ATOM     27  C   UNL     1     -16.185  27.809  55.898  0.00  0.00    +0.066 C 
ENDBRANCH  19  20
ENDBRANCH  18  19
ENDBRANCH  14  15
ENDBRANCH  12  13
TORSDOF 6
ENDMDL
MODEL 2
REMARK VINA RESULT:      -8.8      1.497      2.270
REMARK  Name = C:\Users\Docking\Desktop\test protocol\1iep_ligandH.pdb
REMARK  8 active torsions:
REMARK  status: ('A' for Active; 'I' for Inactive)
REMARK    1  A    between atoms: _5  and  _11
REMARK    2  A    between atoms: _19  and  _21
REMARK    3  A    between atoms: _22  and  _66
REMARK    4  A    between atoms: _27  and  _30
REMARK    5  A    between atoms: _32  and  _33
REMARK    6  A    between atoms: _38  and  _43
REMARK    7  A    between atoms: _43  and  _46
REMARK    8  A    between atoms: _53  and  _55
REMARK                            x       y       z     vdW  Elec       q    Type
REMARK                         _______ _______ _______ _____ _____    ______ ____
ROOT
ATOM     10  C   UNL     1      -7.437  18.726  55.379  0.00  0.00    +0.038 A 
ATOM     11  C   UNL     1      -8.381  19.710  55.771  0.00  0.00    +0.047 A 
ATOM     12  C   UNL     1      -9.403  20.181  54.850  0.00  0.00    +0.035 A 
ATOM     32  C   UNL     1      -9.438  19.624  53.538  0.00  0.00    +0.024 A 
ATOM     33  C   UNL     1      -8.486  18.624  53.123  0.00  0.00    +0.007 A 
ATOM     34  C   UNL     1      -7.474  18.158  54.026  0.00  0.00    -0.029 A 
ATOM     35  C   UNL     1      -6.475  17.089  53.525  0.00  0.00    +0.045 C 
ENDROOT
BRANCH  10   9
ATOM      4  C   UNL     1      -3.676  19.565  58.241  0.00  0.00    +0.077 A 
ATOM      5  C   UNL     1      -3.602  20.940  57.839  0.00  0.00    +0.048 A 
ATOM      6  C   UNL     1      -4.546  21.390  56.888  0.00  0.00    +0.116 A 
ATOM      7  N   UNL     1      -5.489  20.521  56.384  0.00  0.00    -0.223 NA
ATOM      8  C   UNL     1      -5.532  19.201  56.792  0.00  0.00    +0.220 A 
ATOM      9  N   UNL     1      -6.477  18.311  56.304  0.00  0.00    -0.283 N 
ATOM     36  H   UNL     1      -6.470  17.343  56.625  0.00  0.00    +0.155 HD
ATOM     37  N   UNL     1      -4.641  18.746  57.698  0.00  0.00    -0.214 NA
BRANCH   4   3
ATOM      1  C   UNL     1      -0.451  18.367  60.102  0.00  0.00    +0.020 A 
ATOM      2  C   UNL     1      -1.300  18.984  59.109  0.00  0.00    +0.013 A 
ATOM      3  C   UNL     1      -2.751  18.942  59.239  0.00  0.00    +0.019 A 
ATOM     38  C   UNL     1      -3.316  18.261  60.395  0.00  0.00    +0.120 A 
ATOM     39  N   UNL     1      -2.474  17.674  61.334  0.00  0.00    -0.263 NA
ATOM     40  C   UNL     1      -1.076  17.707  61.219  0.00  0.00    +0.111 A 
ENDBRANCH   4   3
ENDBRANCH  10   9
BRANCH  12  13
ATOM     13  N   UNL     1     -10.383  21.183  55.188  0.00  0.00    -0.281 N 
ATOM     14  C   UNL     1     -10.366  22.532  54.870  0.00  0.00    +0.248 C 
ATOM     30  O   UNL     1      -9.394  23.125  54.426  0.00  0.00    -0.270 OA
ATOM     31  H   UNL     1     -11.186  20.860  55.728  0.00  0.00    +0.155 HD
BRANCH  14  15
ATOM     15  C   UNL     1     -11.603  23.341  55.090  0.00  0.00    +0.037 A 
ATOM     16  C   UNL     1     -12.461  23.738  53.971  0.00  0.00    +0.013 A 
ATOM     17  C   UNL     1     -13.639  24.533  54.209  0.00  0.00    +0.005 A 
ATOM     18  C   UNL     1     -13.968  24.935  55.574  0.00  0.00    -0.033 A 
ATOM     28  C   UNL     1     -13.102  24.523  56.667  0.00  0.00    +0.005 A 
ATOM     29  C   UNL     1     -11.946  23.744  56.437  0.00  0.00    +0.013 A 
BRANCH  18  19
ATOM     19  C   UNL     1     -15.194  25.801  55.919  0.00  0.00    +0.119 C 
BRANCH  19  20
ATOM     20  N   UNL     1     -16.385  25.687  55.025  0.00  0.00    -0.302 NA
ATOM     21  C   UNL     1     -16.604  26.956  54.196  0.00  0.00    +0.066 C 
ATOM     22  C   UNL     1     -17.840  26.811  53.250  0.00  0.00    -0.064 C 
ATOM     23  N   UNL     1     -19.081  26.488  54.084  0.00  0.00    +0.379 N 
ATOM     24  C   UNL     1     -20.256  26.408  53.203  0.00  0.00    -0.096 C 
ATOM     25  H   UNL     1     -19.244  27.335  54.790  0.00  0.00    -0.082 HD
ATOM     26  C   UNL     1     -18.871  25.229  54.913  0.00  0.00    -0.064 C 
ATOM     27  C   UNL     1     -17.623  25.372  55.828  0.00  0.00    +0.066 C 
ENDBRANCH  19  20
ENDBRANCH  18  19
ENDBRANCH  14  15
ENDBRANCH  12  13
TORSDOF 6
ENDMDL
MODEL 3
REMARK VINA RESULT:      -8.4     13.315     15.710
REMARK  Name = C:\Users\Docking\Desktop\test protocol\1iep_ligandH.pdb
REMARK  8 active torsions:
REMARK  status: ('A' for Active; 'I' for Inactive)
REMARK    1  A    between atoms: _5  and  _11
REMARK    2  A    between atoms: _19  and  _21
REMARK    3  A    between atoms: _22  and  _66
REMARK    4  A    between atoms: _27  and  _30
REMARK    5  A    between atoms: _32  and  _33
REMARK    6  A    between atoms: _38  and  _43
REMARK    7  A    between atoms: _43  and  _46
REMARK    8  A    between atoms: _53  and  _55
REMARK                            x       y       z     vdW  Elec       q    Type
REMARK                         _______ _______ _______ _____ _____    ______ ____
ROOT
ATOM     10  C   UNL     1      -2.997  29.571  70.775  0.00  0.00    +0.038 A 
ATOM     11  C   UNL     1      -4.196  29.077  70.201  0.00  0.00    +0.047 A 
ATOM     12  C   UNL     1      -5.152  29.971  69.567  0.00  0.00    +0.035 A 
ATOM     32  C   UNL     1      -4.852  31.365  69.532  0.00  0.00    +0.024 A 
ATOM     33  C   UNL     1      -3.639  31.884  70.111  0.00  0.00    +0.007 A 
ATOM     34  C   UNL     1      -2.694  31.007  70.740  0.00  0.00    -0.029 A 
ATOM     35  C   UNL     1      -1.412  31.620  71.350  0.00  0.00    +0.045 C 
ENDROOT
BRANCH  10   9
ATOM      4  C   UNL     1       0.999  26.913  70.748  0.00  0.00    +0.077 A 
ATOM      5  C   UNL     1       1.345  27.340  69.423  0.00  0.00    +0.048 A 
ATOM      6  C   UNL     1       0.465  28.239  68.780  0.00  0.00    +0.116 A 
ATOM      7  N   UNL     1      -0.674  28.672  69.424  0.00  0.00    -0.223 NA
ATOM      8  C   UNL     1      -0.979  28.239  70.701  0.00  0.00    +0.220 A 
ATOM      9  N   UNL     1      -2.115  28.667  71.371  0.00  0.00    -0.283 N 
ATOM     36  H   UNL     1      -2.309  28.318  72.309  0.00  0.00    +0.155 HD
ATOM     37  N   UNL     1      -0.155  27.379  71.336  0.00  0.00    -0.214 NA
BRANCH   4   3
ATOM      1  C   UNL     1       3.701  25.454  73.171  0.00  0.00    +0.020 A 
ATOM      2  C   UNL     1       2.930  26.408  72.408  0.00  0.00    +0.013 A 
ATOM      3  C   UNL     1       1.830  25.967  71.558  0.00  0.00    +0.019 A 
ATOM     38  C   UNL     1       1.535  24.544  71.503  0.00  0.00    +0.120 A 
ATOM     39  N   UNL     1       2.296  23.648  72.248  0.00  0.00    -0.263 NA
ATOM     40  C   UNL     1       3.357  24.060  73.067  0.00  0.00    +0.111 A 
ENDBRANCH   4   3
ENDBRANCH  10   9
BRANCH  12  13
ATOM     13  N   UNL     1      -6.390  29.528  68.975  0.00  0.00    -0.281 N 
ATOM     14  C   UNL     1      -6.820  28.227  68.775  0.00  0.00    +0.248 C 
ATOM     30  O   UNL     1      -6.107  27.239  68.881  0.00  0.00    -0.270 OA
ATOM     31  H   UNL     1      -7.026  30.263  68.667  0.00  0.00    +0.155 HD
BRANCH  14  15
ATOM     15  C   UNL     1      -8.243  27.988  68.387  0.00  0.00    +0.037 A 
ATOM     16  C   UNL     1      -8.607  26.925  67.447  0.00  0.00    +0.013 A 
ATOM     17  C   UNL     1      -9.986  26.727  67.076  0.00  0.00    +0.005 A 
ATOM     18  C   UNL     1     -11.012  27.596  67.648  0.00  0.00    -0.033 A 
ATOM     28  C   UNL     1     -10.624  28.640  68.582  0.00  0.00    +0.005 A 
ATOM     29  C   UNL     1      -9.274  28.837  68.947  0.00  0.00    +0.013 A 
BRANCH  18  19
ATOM     19  C   UNL     1     -12.506  27.471  67.293  0.00  0.00    +0.119 C 
BRANCH  19  20
ATOM     20  N   UNL     1     -13.393  28.617  67.653  0.00  0.00    -0.302 NA
ATOM     21  C   UNL     1     -14.196  28.345  68.928  0.00  0.00    +0.066 C 
ATOM     22  C   UNL     1     -15.101  29.563  69.302  0.00  0.00    -0.064 C 
ATOM     23  N   UNL     1     -16.033  29.880  68.132  0.00  0.00    +0.379 N 
ATOM     24  C   UNL     1     -16.926  30.989  68.503  0.00  0.00    -0.096 C 
ATOM     25  H   UNL     1     -16.667  28.981  67.952  0.00  0.00    -0.082 HD
ATOM     26  C   UNL     1     -15.243  30.150  66.860  0.00  0.00    -0.064 C 
ATOM     27  C   UNL     1     -14.325  28.945  66.513  0.00  0.00    +0.066 C 
ENDBRANCH  19  20
ENDBRANCH  18  19
ENDBRANCH  14  15
ENDBRANCH  12  13
TORSDOF 6
ENDMDL
MODEL 4
REMARK VINA RESULT:      -8.4     13.040     15.440
REMARK  Name = C:\Users\Docking\Desktop\test protocol\1iep_ligandH.pdb
REMARK  8 active torsions:
REMARK  status: ('A' for Active; 'I' for Inactive)
REMARK    1  A    between atoms: _5  and  _11
REMARK    2  A    between atoms: _19  and  _21
REMARK    3  A    between atoms: _22  and  _66
REMARK    4  A    between atoms: _27  and  _30
REMARK    5  A    between atoms: _32  and  _33
REMARK    6  A    between atoms: _38  and  _43
REMARK    7  A    between atoms: _43  and  _46
REMARK    8  A    between atoms: _53  and  _55
REMARK                            x       y       z     vdW  Elec       q    Type
REMARK                         _______ _______ _______ _____ _____    ______ ____
ROOT
ATOM     10  C   UNL     1      -3.806  29.997  69.565  0.00  0.00    +0.038 A 
ATOM     11  C   UNL     1      -5.097  29.495  69.261  0.00  0.00    +0.047 A 
ATOM     12  C   UNL     1      -6.263  30.364  69.269  0.00  0.00    +0.035 A 
ATOM     32  C   UNL     1      -6.078  31.740  69.590  0.00  0.00    +0.024 A 
ATOM     33  C   UNL     1      -4.773  32.267  69.903  0.00  0.00    +0.007 A 
ATOM     34  C   UNL     1      -3.619  31.414  69.898  0.00  0.00    -0.029 A 
ATOM     35  C   UNL     1      -2.245  32.031  70.248  0.00  0.00    +0.045 C 
ENDROOT
BRANCH  10   9
ATOM      4  C   UNL     1      -0.678  27.075  71.737  0.00  0.00    +0.077 A 
ATOM      5  C   UNL     1      -1.235  27.343  73.031  0.00  0.00    +0.048 A 
ATOM      6  C   UNL     1      -2.322  28.244  73.095  0.00  0.00    +0.116 A 
ATOM      7  N   UNL     1      -2.806  28.827  71.945  0.00  0.00    -0.223 NA
ATOM      8  C   UNL     1      -2.244  28.548  70.712  0.00  0.00    +0.220 A 
ATOM      9  N   UNL     1      -2.721  29.117  69.541  0.00  0.00    -0.283 N 
ATOM     36  H   UNL     1      -2.274  28.892  68.653  0.00  0.00    +0.155 HD
ATOM     37  N   UNL     1      -1.205  27.692  70.625  0.00  0.00    -0.214 NA
BRANCH   4   3
ATOM      1  C   UNL     1       1.443  23.853  71.084  0.00  0.00    +0.020 A 
ATOM      2  C   UNL     1       0.300  24.709  71.304  0.00  0.00    +0.013 A 
ATOM      3  C   UNL     1       0.471  26.143  71.505  0.00  0.00    +0.019 A 
ATOM     38  C   UNL     1       1.822  26.682  71.476  0.00  0.00    +0.120 A 
ATOM     39  N   UNL     1       2.903  25.833  71.263  0.00  0.00    -0.263 NA
ATOM     40  C   UNL     1       2.751  24.452  71.071  0.00  0.00    +0.111 A 
ENDBRANCH   4   3
ENDBRANCH  10   9
BRANCH  12  13
ATOM     13  N   UNL     1      -7.600  29.909  68.977  0.00  0.00    -0.281 N 
ATOM     14  C   UNL     1      -8.015  28.622  68.675  0.00  0.00    +0.248 C 
ATOM     30  O   UNL     1      -7.262  27.700  68.400  0.00  0.00    -0.270 OA
ATOM     31  H   UNL     1      -8.329  30.623  68.994  0.00  0.00    +0.155 HD
BRANCH  14  15
ATOM     15  C   UNL     1      -9.478  28.320  68.663  0.00  0.00    +0.037 A 
ATOM     16  C   UNL     1     -10.032  27.279  67.793  0.00  0.00    +0.013 A 
ATOM     17  C   UNL     1     -11.450  27.019  67.788  0.00  0.00    +0.005 A 
ATOM     18  C   UNL     1     -12.324  27.801  68.658  0.00  0.00    -0.033 A 
ATOM     28  C   UNL     1     -11.748  28.825  69.515  0.00  0.00    +0.005 A 
ATOM     29  C   UNL     1     -10.359  29.083  69.521  0.00  0.00    +0.013 A 
BRANCH  18  19
ATOM     19  C   UNL     1     -13.852  27.607  68.703  0.00  0.00    +0.119 C 
BRANCH  19  20
ATOM     20  N   UNL     1     -14.655  28.254  67.623  0.00  0.00    -0.302 NA
ATOM     21  C   UNL     1     -14.946  27.292  66.468  0.00  0.00    +0.066 C 
ATOM     22  C   UNL     1     -15.806  27.979  65.358  0.00  0.00    -0.064 C 
ATOM     23  N   UNL     1     -15.081  29.227  64.854  0.00  0.00    +0.379 N 
ATOM     24  C   UNL     1     -15.860  29.843  63.770  0.00  0.00    -0.096 C 
ATOM     25  H   UNL     1     -14.104  28.901  64.426  0.00  0.00    -0.082 HD
ATOM     26  C   UNL     1     -14.786  30.188  65.997  0.00  0.00    -0.064 C 
ATOM     27  C   UNL     1     -13.955  29.487  67.108  0.00  0.00    +0.066 C 
ENDBRANCH  19  20
ENDBRANCH  18  19
ENDBRANCH  14  15
ENDBRANCH  12  13
TORSDOF 6
ENDMDL
MODEL 5
REMARK VINA RESULT:      -7.4     22.891     27.795
REMARK  Name = C:\Users\Docking\Desktop\test protocol\1iep_ligandH.pdb
REMARK  8 active torsions:
REMARK  status: ('A' for Active; 'I' for Inactive)
REMARK    1  A    between atoms: _5  and  _11
REMARK    2  A    between atoms: _19  and  _21
REMARK    3  A    between atoms: _22  and  _66
REMARK    4  A    between atoms: _27  and  _30
REMARK    5  A    between atoms: _32  and  _33
REMARK    6  A    between atoms: _38  and  _43
REMARK    7  A    between atoms: _43  and  _46
REMARK    8  A    between atoms: _53  and  _55
REMARK                            x       y       z     vdW  Elec       q    Type
REMARK                         _______ _______ _______ _____ _____    ______ ____
ROOT
ATOM     10  C   UNL     1       0.062   1.769  71.993  0.00  0.00    +0.038 A 
ATOM     11  C   UNL     1      -0.803   2.323  72.971  0.00  0.00    +0.047 A 
ATOM     12  C   UNL     1      -0.614   2.047  74.386  0.00  0.00    +0.035 A 
ATOM     32  C   UNL     1       0.469   1.203  74.771  0.00  0.00    +0.024 A 
ATOM     33  C   UNL     1       1.357   0.630  73.791  0.00  0.00    +0.007 A 
ATOM     34  C   UNL     1       1.174   0.897  72.393  0.00  0.00    -0.029 A 
ATOM     35  C   UNL     1       2.153   0.251  71.385  0.00  0.00    +0.045 C 
ENDROOT
BRANCH  10   9
ATOM      4  C   UNL     1      -2.218   1.066  67.829  0.00  0.00    +0.077 A 
ATOM      5  C   UNL     1      -3.004  -0.004  68.372  0.00  0.00    +0.048 A 
ATOM      6  C   UNL     1      -2.786  -0.348  69.725  0.00  0.00    +0.116 A 
ATOM      7  N   UNL     1      -1.849   0.335  70.470  0.00  0.00    -0.223 NA
ATOM      8  C   UNL     1      -1.107   1.362  69.915  0.00  0.00    +0.220 A 
ATOM      9  N   UNL     1      -0.165   2.067  70.648  0.00  0.00    -0.283 N 
ATOM     36  H   UNL     1       0.367   2.813  70.200  0.00  0.00    +0.155 HD
ATOM     37  N   UNL     1      -1.295   1.708  68.624  0.00  0.00    -0.214 NA
BRANCH   4   3
ATOM      1  C   UNL     1      -1.365   2.099  64.153  0.00  0.00    +0.020 A 
ATOM      2  C   UNL     1      -1.198   1.627  65.508  0.00  0.00    +0.013 A 
ATOM      3  C   UNL     1      -2.336   1.548  66.416  0.00  0.00    +0.019 A 
ATOM     38  C   UNL     1      -3.640   1.957  65.917  0.00  0.00    +0.120 A 
ATOM     39  N   UNL     1      -3.771   2.409  64.607  0.00  0.00    -0.263 NA
ATOM     40  C   UNL     1      -2.683   2.490  63.725  0.00  0.00    +0.111 A 
ENDBRANCH   4   3
ENDBRANCH  10   9
BRANCH  12  13
ATOM     13  N   UNL     1      -1.465   2.575  75.423  0.00  0.00    -0.281 N 
ATOM     14  C   UNL     1      -2.776   2.229  75.707  0.00  0.00    +0.248 C 
ATOM     30  O   UNL     1      -3.490   1.562  74.973  0.00  0.00    -0.270 OA
ATOM     31  H   UNL     1      -1.051   3.291  76.021  0.00  0.00    +0.155 HD
BRANCH  14  15
ATOM     15  C   UNL     1      -3.388   2.705  76.985  0.00  0.00    +0.037 A 
ATOM     16  C   UNL     1      -4.720   2.259  77.403  0.00  0.00    +0.013 A 
ATOM     17  C   UNL     1      -5.294   2.748  78.632  0.00  0.00    +0.005 A 
ATOM     18  C   UNL     1      -4.534   3.687  79.453  0.00  0.00    -0.033 A 
ATOM     28  C   UNL     1      -3.213   4.109  79.018  0.00  0.00    +0.005 A 
ATOM     29  C   UNL     1      -2.648   3.634  77.813  0.00  0.00    +0.013 A 
BRANCH  18  19
ATOM     19  C   UNL     1      -5.077   4.276  80.769  0.00  0.00    +0.119 C 
BRANCH  19  20
ATOM     20  N   UNL     1      -4.921   5.747  80.975  0.00  0.00    -0.302 NA
ATOM     21  C   UNL     1      -5.219   6.159  82.419  0.00  0.00    +0.066 C 
ATOM     22  C   UNL     1      -5.030   7.698  82.623  0.00  0.00    -0.064 C 
ATOM     23  N   UNL     1      -5.933   8.454  81.646  0.00  0.00    +0.379 N 
ATOM     24  C   UNL     1      -5.800   9.900  81.874  0.00  0.00    -0.096 C 
ATOM     25  H   UNL     1      -6.987   8.171  81.872  0.00  0.00    -0.082 HD
ATOM     26  C   UNL     1      -5.645   8.048  80.208  0.00  0.00    -0.064 C 
ATOM     27  C   UNL     1      -5.807   6.513  80.023  0.00  0.00    +0.066 C 
ENDBRANCH  19  20
ENDBRANCH  18  19
ENDBRANCH  14  15
ENDBRANCH  12  13
TORSDOF 6
ENDMDL
