MODEL 1
REMARK VINA RESULT:     -10.6      0.000      0.000
REMARK  Name = C:\Users\Docking\Desktop\test protocol\1iep_ligandH.pdb
REMARK  8 active torsions:
REMARK  status: ('A' for Active; 'I' for Inactive)
REMARK    1  A    between atoms: _5  and  _11
REMARK    2  A    between atoms: _19  and  _21
REMARK    3  A    between atoms: _22  and  _66
REMARK    4  A    between atoms: _27  and  _30
REMARK    5  A    between atoms: _32  and  _33
REMARK    6  A    between atoms: _38  and  _43
REMARK    7  A    between atoms: _43  and  _46
REMARK    8  A    between atoms: _53  and  _55
REMARK                            x       y       z     vdW  Elec       q    Type
REMARK                         _______ _______ _______ _____ _____    ______ ____
ROOT
ATOM     10  C   UNL     1      16.616  21.135  58.627  0.00  0.00    +0.038 A 
ATOM     11  C   UNL     1      18.026  21.017  58.524  0.00  0.00    +0.047 A 
ATOM     12  C   UNL     1      18.665  19.715  58.408  0.00  0.00    +0.035 A 
ATOM     32  C   UNL     1      17.838  18.555  58.397  0.00  0.00    +0.024 A 
ATOM     33  C   UNL     1      16.403  18.656  58.502  0.00  0.00    +0.007 A 
ATOM     34  C   UNL     1      15.767  19.937  58.619  0.00  0.00    -0.029 A 
ATOM     35  C   UNL     1      14.226  19.986  58.734  0.00  0.00    +0.045 C 
ENDROOT
BRANCH  10   9
ATOM      4  C   UNL     1      15.085  25.263  56.716  0.00  0.00    +0.077 A 
ATOM      5  C   UNL     1      15.459  24.857  55.392  0.00  0.00    +0.048 A 
ATOM      6  C   UNL     1      16.049  23.582  55.246  0.00  0.00    +0.116 A 
ATOM      7  N   UNL     1      16.245  22.780  56.350  0.00  0.00    -0.223 NA
ATOM      8  C   UNL     1      15.874  23.202  57.613  0.00  0.00    +0.220 A 
ATOM      9  N   UNL     1      16.055  22.409  58.736  0.00  0.00    -0.283 N 
ATOM     36  H   UNL     1      15.775  22.760  59.651  0.00  0.00    +0.155 HD
ATOM     37  N   UNL     1      15.310  24.417  57.779  0.00  0.00    -0.214 NA
BRANCH   4   3
ATOM      1  C   UNL     1      14.405  28.825  58.182  0.00  0.00    +0.020 A 
ATOM      2  C   UNL     1      15.062  27.568  57.910  0.00  0.00    +0.013 A 
ATOM      3  C   UNL     1      14.448  26.581  57.031  0.00  0.00    +0.019 A 
ATOM     38  C   UNL     1      13.158  26.900  56.437  0.00  0.00    +0.120 A 
ATOM     39  N   UNL     1      12.549  28.119  56.718  0.00  0.00    -0.263 NA
ATOM     40  C   UNL     1      13.129  29.076  57.564  0.00  0.00    +0.111 A 
ENDBRANCH   4   3
ENDBRANCH  10   9
BRANCH  12  13
ATOM     13  N   UNL     1      20.092  19.533  58.309  0.00  0.00    -0.281 N 
ATOM     14  C   UNL     1      21.092  20.337  58.831  0.00  0.00    +0.248 C 
ATOM     30  O   UNL     1      20.911  21.458  59.283  0.00  0.00    -0.270 OA
ATOM     31  H   UNL     1      20.403  18.711  57.791  0.00  0.00    +0.155 HD
BRANCH  14  15
ATOM     15  C   UNL     1      22.497  19.829  58.838  0.00  0.00    +0.037 A 
ATOM     16  C   UNL     1      22.792  18.411  59.061  0.00  0.00    +0.013 A 
ATOM     17  C   UNL     1      24.157  17.951  59.081  0.00  0.00    +0.005 A 
ATOM     18  C   UNL     1      25.240  18.910  58.874  0.00  0.00    -0.033 A 
ATOM     28  C   UNL     1      24.919  20.310  58.650  0.00  0.00    +0.005 A 
ATOM     29  C   UNL     1      23.582  20.765  58.631  0.00  0.00    +0.013 A 
BRANCH  18  19
ATOM     19  C   UNL     1      26.727  18.510  58.900  0.00  0.00    +0.119 C 
BRANCH  19  20
ATOM     20  N   UNL     1      27.566  18.925  57.736  0.00  0.00    -0.302 NA
ATOM     21  C   UNL     1      27.210  18.147  56.466  0.00  0.00    +0.066 C 
ATOM     22  C   UNL     1      28.082  18.609  55.253  0.00  0.00    -0.064 C 
ATOM     23  N   UNL     1      29.562  18.435  55.597  0.00  0.00    +0.379 N 
ATOM     24  C   UNL     1      30.383  18.814  54.438  0.00  0.00    -0.096 C 
ATOM     25  H   UNL     1      29.738  17.353  55.797  0.00  0.00    -0.082 HD
ATOM     26  C   UNL     1      29.924  19.203  56.861  0.00  0.00    -0.064 C 
ATOM     27  C   UNL     1      29.032  18.757  58.053  0.00  0.00    +0.066 C 
ENDBRANCH  19  20
ENDBRANCH  18  19
ENDBRANCH  14  15
ENDBRANCH  12  13
TORSDOF 6
ENDMDL
MODEL 2
REMARK VINA RESULT:     -10.4      1.640      2.571
REMARK  Name = C:\Users\Docking\Desktop\test protocol\1iep_ligandH.pdb
REMARK  8 active torsions:
REMARK  status: ('A' for Active; 'I' for Inactive)
REMARK    1  A    between atoms: _5  and  _11
REMARK    2  A    between atoms: _19  and  _21
REMARK    3  A    between atoms: _22  and  _66
REMARK    4  A    between atoms: _27  and  _30
REMARK    5  A    between atoms: _32  and  _33
REMARK    6  A    between atoms: _38  and  _43
REMARK    7  A    between atoms: _43  and  _46
REMARK    8  A    between atoms: _53  and  _55
REMARK                            x       y       z     vdW  Elec       q    Type
REMARK                         _______ _______ _______ _____ _____    ______ ____
ROOT
ATOM     10  C   UNL     1      16.613  21.154  58.634  0.00  0.00    +0.038 A 
ATOM     11  C   UNL     1      18.022  21.054  58.512  0.00  0.00    +0.047 A 
ATOM     12  C   UNL     1      18.678  19.761  58.399  0.00  0.00    +0.035 A 
ATOM     32  C   UNL     1      17.867  18.589  58.411  0.00  0.00    +0.024 A 
ATOM     33  C   UNL     1      16.433  18.672  58.535  0.00  0.00    +0.007 A 
ATOM     34  C   UNL     1      15.781  19.945  58.649  0.00  0.00    -0.029 A 
ATOM     35  C   UNL     1      14.241  19.974  58.786  0.00  0.00    +0.045 C 
ENDROOT
BRANCH  10   9
ATOM      4  C   UNL     1      15.098  25.287  56.721  0.00  0.00    +0.077 A 
ATOM      5  C   UNL     1      15.516  24.900  55.404  0.00  0.00    +0.048 A 
ATOM      6  C   UNL     1      16.123  23.632  55.263  0.00  0.00    +0.116 A 
ATOM      7  N   UNL     1      16.294  22.820  56.364  0.00  0.00    -0.223 NA
ATOM      8  C   UNL     1      15.881  23.225  57.620  0.00  0.00    +0.220 A 
ATOM      9  N   UNL     1      16.036  22.422  58.739  0.00  0.00    -0.283 N 
ATOM     36  H   UNL     1      15.725  22.760  59.649  0.00  0.00    +0.155 HD
ATOM     37  N   UNL     1      15.300  24.432  57.781  0.00  0.00    -0.214 NA
BRANCH   4   3
ATOM      1  C   UNL     1      14.351  28.839  58.180  0.00  0.00    +0.020 A 
ATOM      2  C   UNL     1      15.030  27.591  57.915  0.00  0.00    +0.013 A 
ATOM      3  C   UNL     1      14.438  26.595  57.030  0.00  0.00    +0.019 A 
ATOM     38  C   UNL     1      13.150  26.895  56.425  0.00  0.00    +0.120 A 
ATOM     39  N   UNL     1      12.519  28.105  56.700  0.00  0.00    -0.263 NA
ATOM     40  C   UNL     1      13.078  29.070  57.551  0.00  0.00    +0.111 A 
ENDBRANCH   4   3
ENDBRANCH  10   9
BRANCH  12  13
ATOM     13  N   UNL     1      20.106  19.597  58.281  0.00  0.00    -0.281 N 
ATOM     14  C   UNL     1      21.102  20.363  58.864  0.00  0.00    +0.248 C 
ATOM     30  O   UNL     1      20.916  21.442  59.407  0.00  0.00    -0.270 OA
ATOM     31  H   UNL     1      20.420  18.822  57.696  0.00  0.00    +0.155 HD
BRANCH  14  15
ATOM     15  C   UNL     1      22.511  19.866  58.826  0.00  0.00    +0.037 A 
ATOM     16  C   UNL     1      22.820  18.445  59.005  0.00  0.00    +0.013 A 
ATOM     17  C   UNL     1      24.189  17.994  58.981  0.00  0.00    +0.005 A 
ATOM     18  C   UNL     1      25.260  18.967  58.774  0.00  0.00    -0.033 A 
ATOM     28  C   UNL     1      24.924  20.369  58.594  0.00  0.00    +0.005 A 
ATOM     29  C   UNL     1      23.584  20.815  58.618  0.00  0.00    +0.013 A 
BRANCH  18  19
ATOM     19  C   UNL     1      26.750  18.579  58.755  0.00  0.00    +0.119 C 
BRANCH  19  20
ATOM     20  N   UNL     1      27.299  17.913  59.973  0.00  0.00    -0.302 NA
ATOM     21  C   UNL     1      26.944  18.674  61.253  0.00  0.00    +0.066 C 
ATOM     22  C   UNL     1      27.507  17.952  62.520  0.00  0.00    -0.064 C 
ATOM     23  N   UNL     1      29.023  17.798  62.385  0.00  0.00    +0.379 N 
ATOM     24  C   UNL     1      29.563  17.171  63.600  0.00  0.00    -0.096 C 
ATOM     25  H   UNL     1      29.461  18.820  62.308  0.00  0.00    -0.082 HD
ATOM     26  C   UNL     1      29.385  17.044  61.113  0.00  0.00    -0.064 C 
ATOM     27  C   UNL     1      28.796  17.754  59.863  0.00  0.00    +0.066 C 
ENDBRANCH  19  20
ENDBRANCH  18  19
ENDBRANCH  14  15
ENDBRANCH  12  13
TORSDOF 6
ENDMDL
MODEL 3
REMARK VINA RESULT:     -10.2      5.090     10.249
REMARK  Name = C:\Users\Docking\Desktop\test protocol\1iep_ligandH.pdb
REMARK  8 active torsions:
REMARK  status: ('A' for Active; 'I' for Inactive)
REMARK    1  A    between atoms: _5  and  _11
REMARK    2  A    between atoms: _19  and  _21
REMARK    3  A    between atoms: _22  and  _66
REMARK    4  A    between atoms: _27  and  _30
REMARK    5  A    between atoms: _32  and  _33
REMARK    6  A    between atoms: _38  and  _43
REMARK    7  A    between atoms: _43  and  _46
REMARK    8  A    between atoms: _53  and  _55
REMARK                            x       y       z     vdW  Elec       q    Type
REMARK                         _______ _______ _______ _____ _____    ______ ____
ROOT
ATOM     10  C   UNL     1      17.809  21.742  58.381  0.00  0.00    +0.038 A 
ATOM     11  C   UNL     1      17.095  20.521  58.482  0.00  0.00    +0.047 A 
ATOM     12  C   UNL     1      17.769  19.240  58.336  0.00  0.00    +0.035 A 
ATOM     32  C   UNL     1      19.173  19.240  58.089  0.00  0.00    +0.024 A 
ATOM     33  C   UNL     1      19.915  20.472  57.983  0.00  0.00    +0.007 A 
ATOM     34  C   UNL     1      19.254  21.738  58.123  0.00  0.00    -0.029 A 
ATOM     35  C   UNL     1      20.098  23.028  57.993  0.00  0.00    +0.045 C 
ENDROOT
BRANCH  10   9
ATOM      4  C   UNL     1      15.233  25.387  56.615  0.00  0.00    +0.077 A 
ATOM      5  C   UNL     1      15.307  24.870  55.279  0.00  0.00    +0.048 A 
ATOM      6  C   UNL     1      16.024  23.667  55.088  0.00  0.00    +0.116 A 
ATOM      7  N   UNL     1      16.617  23.037  56.160  0.00  0.00    -0.223 NA
ATOM      8  C   UNL     1      16.528  23.563  57.435  0.00  0.00    +0.220 A 
ATOM      9  N   UNL     1      17.111  22.942  58.529  0.00  0.00    -0.283 N 
ATOM     36  H   UNL     1      17.029  23.367  59.453  0.00  0.00    +0.155 HD
ATOM     37  N   UNL     1      15.851  24.712  57.644  0.00  0.00    -0.214 NA
BRANCH   4   3
ATOM      1  C   UNL     1      14.307  28.826  58.232  0.00  0.00    +0.020 A 
ATOM      2  C   UNL     1      15.046  27.626  57.915  0.00  0.00    +0.013 A 
ATOM      3  C   UNL     1      14.510  26.646  56.979  0.00  0.00    +0.019 A 
ATOM     38  C   UNL     1      13.213  26.914  56.374  0.00  0.00    +0.120 A 
ATOM     39  N   UNL     1      12.524  28.078  56.699  0.00  0.00    -0.263 NA
ATOM     40  C   UNL     1      13.029  29.027  57.600  0.00  0.00    +0.111 A 
ENDBRANCH   4   3
ENDBRANCH  10   9
BRANCH  12  13
ATOM     13  N   UNL     1      17.095  17.968  58.420  0.00  0.00    -0.281 N 
ATOM     14  C   UNL     1      16.890  17.187  59.545  0.00  0.00    +0.248 C 
ATOM     30  O   UNL     1      17.445  17.363  60.620  0.00  0.00    -0.270 OA
ATOM     31  H   UNL     1      16.725  17.599  57.545  0.00  0.00    +0.155 HD
BRANCH  14  15
ATOM     15  C   UNL     1      15.942  16.034  59.461  0.00  0.00    +0.037 A 
ATOM     16  C   UNL     1      15.721  15.146  60.605  0.00  0.00    +0.013 A 
ATOM     17  C   UNL     1      14.814  14.032  60.491  0.00  0.00    +0.005 A 
ATOM     18  C   UNL     1      14.120  13.800  59.227  0.00  0.00    -0.033 A 
ATOM     28  C   UNL     1      14.353  14.699  58.109  0.00  0.00    +0.005 A 
ATOM     29  C   UNL     1      15.242  15.792  58.217  0.00  0.00    +0.013 A 
BRANCH  18  19
ATOM     19  C   UNL     1      13.150  12.623  59.009  0.00  0.00    +0.119 C 
BRANCH  19  20
ATOM     20  N   UNL     1      11.691  12.936  58.977  0.00  0.00    -0.302 NA
ATOM     21  C   UNL     1      11.172  13.396  60.342  0.00  0.00    +0.066 C 
ATOM     22  C   UNL     1       9.648  13.742  60.285  0.00  0.00    -0.064 C 
ATOM     23  N   UNL     1       8.869  12.520  59.793  0.00  0.00    +0.379 N 
ATOM     24  C   UNL     1       7.431  12.823  59.794  0.00  0.00    -0.096 C 
ATOM     25  H   UNL     1       9.042  11.694  60.521  0.00  0.00    -0.082 HD
ATOM     26  C   UNL     1       9.381  12.054  58.437  0.00  0.00    -0.064 C 
ATOM     27  C   UNL     1      10.902  11.742  58.498  0.00  0.00    +0.066 C 
ENDBRANCH  19  20
ENDBRANCH  18  19
ENDBRANCH  14  15
ENDBRANCH  12  13
TORSDOF 6
ENDMDL
MODEL 4
REMARK VINA RESULT:     -10.1      5.696     11.288
REMARK  Name = C:\Users\Docking\Desktop\test protocol\1iep_ligandH.pdb
REMARK  8 active torsions:
REMARK  status: ('A' for Active; 'I' for Inactive)
REMARK    1  A    between atoms: _5  and  _11
REMARK    2  A    between atoms: _19  and  _21
REMARK    3  A    between atoms: _22  and  _66
REMARK    4  A    between atoms: _27  and  _30
REMARK    5  A    between atoms: _32  and  _33
REMARK    6  A    between atoms: _38  and  _43
REMARK    7  A    between atoms: _43  and  _46
REMARK    8  A    between atoms: _53  and  _55
REMARK                            x       y       z     vdW  Elec       q    Type
REMARK                         _______ _______ _______ _____ _____    ______ ____
ROOT
ATOM     10  C   UNL     1      16.890  21.361  58.641  0.00  0.00    +0.038 A 
ATOM     11  C   UNL     1      16.052  20.231  58.822  0.00  0.00    +0.047 A 
ATOM     12  C   UNL     1      16.581  18.879  58.731  0.00  0.00    +0.035 A 
ATOM     32  C   UNL     1      17.970  18.715  58.457  0.00  0.00    +0.024 A 
ATOM     33  C   UNL     1      18.836  19.852  58.269  0.00  0.00    +0.007 A 
ATOM     34  C   UNL     1      18.319  21.188  58.355  0.00  0.00    -0.029 A 
ATOM     35  C   UNL     1      19.292  22.370  58.138  0.00  0.00    +0.045 C 
ENDROOT
BRANCH  10   9
ATOM      4  C   UNL     1      15.044  25.335  56.681  0.00  0.00    +0.077 A 
ATOM      5  C   UNL     1      15.239  24.840  55.349  0.00  0.00    +0.048 A 
ATOM      6  C   UNL     1      15.824  23.561  55.211  0.00  0.00    +0.116 A 
ATOM      7  N   UNL     1      16.183  22.840  56.329  0.00  0.00    -0.223 NA
ATOM      8  C   UNL     1      15.982  23.347  57.600  0.00  0.00    +0.220 A 
ATOM      9  N   UNL     1      16.328  22.636  58.738  0.00  0.00    -0.283 N 
ATOM     36  H   UNL     1      16.171  23.048  59.658  0.00  0.00    +0.155 HD
ATOM     37  N   UNL     1      15.427  24.567  57.758  0.00  0.00    -0.214 NA
BRANCH   4   3
ATOM      1  C   UNL     1      14.428  28.908  58.149  0.00  0.00    +0.020 A 
ATOM      2  C   UNL     1      15.058  27.635  57.884  0.00  0.00    +0.013 A 
ATOM      3  C   UNL     1      14.435  26.667  56.990  0.00  0.00    +0.019 A 
ATOM     38  C   UNL     1      13.164  27.021  56.375  0.00  0.00    +0.120 A 
ATOM     39  N   UNL     1      12.581  28.254  56.650  0.00  0.00    -0.263 NA
ATOM     40  C   UNL     1      13.170  29.193  57.509  0.00  0.00    +0.111 A 
ENDBRANCH   4   3
ENDBRANCH  10   9
BRANCH  12  13
ATOM     13  N   UNL     1      15.777  17.694  58.898  0.00  0.00    -0.281 N 
ATOM     14  C   UNL     1      15.235  17.190  60.069  0.00  0.00    +0.248 C 
ATOM     30  O   UNL     1      15.540  17.569  61.191  0.00  0.00    -0.270 OA
ATOM     31  H   UNL     1      15.585  17.161  58.050  0.00  0.00    +0.155 HD
BRANCH  14  15
ATOM     15  C   UNL     1      14.219  16.098  59.983  0.00  0.00    +0.037 A 
ATOM     16  C   UNL     1      13.627  15.710  58.700  0.00  0.00    +0.013 A 
ATOM     17  C   UNL     1      12.635  14.665  58.648  0.00  0.00    +0.005 A 
ATOM     18  C   UNL     1      12.231  13.999  59.883  0.00  0.00    -0.033 A 
ATOM     28  C   UNL     1      12.838  14.400  61.142  0.00  0.00    +0.005 A 
ATOM     29  C   UNL     1      13.809  15.425  61.197  0.00  0.00    +0.013 A 
BRANCH  18  19
ATOM     19  C   UNL     1      11.165  12.888  59.924  0.00  0.00    +0.119 C 
BRANCH  19  20
ATOM     20  N   UNL     1      10.069  13.029  60.928  0.00  0.00    -0.302 NA
ATOM     21  C   UNL     1       9.334  11.706  61.166  0.00  0.00    +0.066 C 
ATOM     22  C   UNL     1       8.205  11.867  62.235  0.00  0.00    -0.064 C 
ATOM     23  N   UNL     1       7.229  12.955  61.784  0.00  0.00    +0.379 N 
ATOM     24  C   UNL     1       6.135  13.068  62.759  0.00  0.00    -0.096 C 
ATOM     25  H   UNL     1       6.786  12.631  60.814  0.00  0.00    -0.082 HD
ATOM     26  C   UNL     1       7.952  14.273  61.543  0.00  0.00    -0.064 C 
ATOM     27  C   UNL     1       9.091  14.096  60.500  0.00  0.00    +0.066 C 
ENDBRANCH  19  20
ENDBRANCH  18  19
ENDBRANCH  14  15
ENDBRANCH  12  13
TORSDOF 6
ENDMDL
MODEL 5
REMARK VINA RESULT:     -10.0      4.987      9.950
REMARK  Name = C:\Users\Docking\Desktop\test protocol\1iep_ligandH.pdb
REMARK  8 active torsions:
REMARK  status: ('A' for Active; 'I' for Inactive)
REMARK    1  A    between atoms: _5  and  _11
REMARK    2  A    between atoms: _19  and  _21
REMARK    3  A    between atoms: _22  and  _66
REMARK    4  A    between atoms: _27  and  _30
REMARK    5  A    between atoms: _32  and  _33
REMARK    6  A    between atoms: _38  and  _43
REMARK    7  A    between atoms: _43  and  _46
REMARK    8  A    between atoms: _53  and  _55
REMARK                            x       y       z     vdW  Elec       q    Type
REMARK                         _______ _______ _______ _____ _____    ______ ____
ROOT
ATOM     10  C   UNL     1      18.434  22.797  57.904  0.00  0.00    +0.038 A 
ATOM     11  C   UNL     1      17.591  21.672  58.090  0.00  0.00    +0.047 A 
ATOM     12  C   UNL     1      18.143  20.335  58.247  0.00  0.00    +0.035 A 
ATOM     32  C   UNL     1      19.560  20.181  58.213  0.00  0.00    +0.024 A 
ATOM     33  C   UNL     1      20.432  21.314  58.024  0.00  0.00    +0.007 A 
ATOM     34  C   UNL     1      19.893  22.634  57.866  0.00  0.00    -0.029 A 
ATOM     35  C   UNL     1      20.875  23.811  57.660  0.00  0.00    +0.045 C 
ENDROOT
BRANCH  10   9
ATOM      4  C   UNL     1      14.637  25.646  57.201  0.00  0.00    +0.077 A 
ATOM      5  C   UNL     1      13.744  24.528  57.088  0.00  0.00    +0.048 A 
ATOM      6  C   UNL     1      14.304  23.237  57.209  0.00  0.00    +0.116 A 
ATOM      7  N   UNL     1      15.656  23.086  57.428  0.00  0.00    -0.223 NA
ATOM      8  C   UNL     1      16.489  24.185  57.531  0.00  0.00    +0.220 A 
ATOM      9  N   UNL     1      17.850  24.057  57.759  0.00  0.00    -0.283 N 
ATOM     36  H   UNL     1      18.432  24.892  57.821  0.00  0.00    +0.155 HD
ATOM     37  N   UNL     1      15.979  25.429  57.417  0.00  0.00    -0.214 NA
BRANCH   4   3
ATOM      1  C   UNL     1      14.411  29.525  57.652  0.00  0.00    +0.020 A 
ATOM      2  C   UNL     1      14.877  28.164  57.784  0.00  0.00    +0.013 A 
ATOM      3  C   UNL     1      14.196  27.073  57.099  0.00  0.00    +0.019 A 
ATOM     38  C   UNL     1      13.037  27.396  56.279  0.00  0.00    +0.120 A 
ATOM     39  N   UNL     1      12.610  28.716  56.172  0.00  0.00    -0.263 NA
ATOM     40  C   UNL     1      13.257  29.774  56.828  0.00  0.00    +0.111 A 
ENDBRANCH   4   3
ENDBRANCH  10   9
BRANCH  12  13
ATOM     13  N   UNL     1      17.336  19.154  58.431  0.00  0.00    -0.281 N 
ATOM     14  C   UNL     1      16.828  18.646  59.615  0.00  0.00    +0.248 C 
ATOM     30  O   UNL     1      17.171  19.014  60.729  0.00  0.00    -0.270 OA
ATOM     31  H   UNL     1      17.113  18.630  57.585  0.00  0.00    +0.155 HD
BRANCH  14  15
ATOM     15  C   UNL     1      15.801  17.561  59.553  0.00  0.00    +0.037 A 
ATOM     16  C   UNL     1      14.925  17.279  60.693  0.00  0.00    +0.013 A 
ATOM     17  C   UNL     1      13.954  16.216  60.613  0.00  0.00    +0.005 A 
ATOM     18  C   UNL     1      13.854  15.428  59.386  0.00  0.00    -0.033 A 
ATOM     28  C   UNL     1      14.733  15.733  58.269  0.00  0.00    +0.005 A 
ATOM     29  C   UNL     1      15.686  16.774  58.344  0.00  0.00    +0.013 A 
BRANCH  18  19
ATOM     19  C   UNL     1      12.862  14.262  59.220  0.00  0.00    +0.119 C 
BRANCH  19  20
ATOM     20  N   UNL     1      11.448  14.609  58.887  0.00  0.00    -0.302 NA
ATOM     21  C   UNL     1      11.346  15.932  58.123  0.00  0.00    +0.066 C 
ATOM     22  C   UNL     1       9.863  16.269  57.763  0.00  0.00    -0.064 C 
ATOM     23  N   UNL     1       9.028  16.317  59.045  0.00  0.00    +0.379 N 
ATOM     24  C   UNL     1       7.645  16.690  58.715  0.00  0.00    -0.096 C 
ATOM     25  H   UNL     1       9.451  17.120  59.692  0.00  0.00    -0.082 HD
ATOM     26  C   UNL     1       9.126  15.006  59.812  0.00  0.00    -0.064 C 
ATOM     27  C   UNL     1      10.608  14.667  60.139  0.00  0.00    +0.066 C 
ENDBRANCH  19  20
ENDBRANCH  18  19
ENDBRANCH  14  15
ENDBRANCH  12  13
TORSDOF 6
ENDMDL
