MODEL 1
REMARK VINA RESULT:     -11.3      0.000      0.000
REMARK  Name = C:\Users\Docking\Desktop\test protocol\1iep_ligandH.pdb
REMARK  8 active torsions:
REMARK  status: ('A' for Active; 'I' for Inactive)
REMARK    1  A    between atoms: _5  and  _11
REMARK    2  A    between atoms: _19  and  _21
REMARK    3  A    between atoms: _22  and  _66
REMARK    4  A    between atoms: _27  and  _30
REMARK    5  A    between atoms: _32  and  _33
REMARK    6  A    between atoms: _38  and  _43
REMARK    7  A    between atoms: _43  and  _46
REMARK    8  A    between atoms: _53  and  _55
REMARK                            x       y       z     vdW  Elec       q    Type
REMARK                         _______ _______ _______ _____ _____    ______ ____
ROOT
ATOM     10  C   UNL     1      -6.751  37.441  11.915  0.00  0.00    +0.038 A 
ATOM     11  C   UNL     1      -8.008  37.420  11.257  0.00  0.00    +0.047 A 
ATOM     12  C   UNL     1      -9.166  38.093  11.826  0.00  0.00    +0.035 A 
ATOM     32  C   UNL     1      -9.008  38.779  13.065  0.00  0.00    +0.024 A 
ATOM     33  C   UNL     1      -7.738  38.810  13.747  0.00  0.00    +0.007 A 
ATOM     34  C   UNL     1      -6.593  38.147  13.192  0.00  0.00    -0.029 A 
ATOM     35  C   UNL     1      -5.258  38.207  13.971  0.00  0.00    +0.045 C 
ENDROOT
BRANCH  10   9
ATOM      4  C   UNL     1      -3.951  33.586  11.342  0.00  0.00    +0.077 A 
ATOM      5  C   UNL     1      -4.682  32.836  12.323  0.00  0.00    +0.048 A 
ATOM      6  C   UNL     1      -5.767  33.482  12.957  0.00  0.00    +0.116 A 
ATOM      7  N   UNL     1      -6.089  34.780  12.627  0.00  0.00    -0.223 NA
ATOM      8  C   UNL     1      -5.362  35.475  11.677  0.00  0.00    +0.220 A 
ATOM      9  N   UNL     1      -5.673  36.779  11.324  0.00  0.00    -0.283 N 
ATOM     36  H   UNL     1      -5.108  37.260  10.624  0.00  0.00    +0.155 HD
ATOM     37  N   UNL     1      -4.320  34.882  11.059  0.00  0.00    -0.214 NA
BRANCH   4   3
ATOM      1  C   UNL     1      -0.598  33.305   9.347  0.00  0.00    +0.020 A 
ATOM      2  C   UNL     1      -1.706  33.882  10.073  0.00  0.00    +0.013 A 
ATOM      3  C   UNL     1      -2.781  33.040  10.584  0.00  0.00    +0.019 A 
ATOM     38  C   UNL     1      -2.703  31.608  10.342  0.00  0.00    +0.120 A 
ATOM     39  N   UNL     1      -1.625  31.081   9.638  0.00  0.00    -0.263 NA
ATOM     40  C   UNL     1      -0.586  31.881   9.140  0.00  0.00    +0.111 A 
ENDBRANCH   4   3
ENDBRANCH  10   9
BRANCH  12  13
ATOM     13  N   UNL     1     -10.469  38.099  11.208  0.00  0.00    -0.281 N 
ATOM     14  C   UNL     1     -10.928  37.290  10.181  0.00  0.00    +0.248 C 
ATOM     30  O   UNL     1     -10.214  36.579   9.489  0.00  0.00    -0.270 OA
ATOM     31  H   UNL     1     -11.133  38.782  11.572  0.00  0.00    +0.155 HD
BRANCH  14  15
ATOM     15  C   UNL     1     -12.389  37.282   9.867  0.00  0.00    +0.037 A 
ATOM     16  C   UNL     1     -12.939  38.103   8.786  0.00  0.00    +0.013 A 
ATOM     17  C   UNL     1     -14.355  38.089   8.515  0.00  0.00    +0.005 A 
ATOM     18  C   UNL     1     -15.231  37.248   9.328  0.00  0.00    -0.033 A 
ATOM     28  C   UNL     1     -14.658  36.439  10.392  0.00  0.00    +0.005 A 
ATOM     29  C   UNL     1     -13.271  36.452  10.660  0.00  0.00    +0.013 A 
BRANCH  18  19
ATOM     19  C   UNL     1     -16.757  37.187   9.124  0.00  0.00    +0.119 C 
BRANCH  19  20
ATOM     20  N   UNL     1     -17.584  38.198   9.847  0.00  0.00    -0.302 NA
ATOM     21  C   UNL     1     -17.197  38.308  11.325  0.00  0.00    +0.066 C 
ATOM     22  C   UNL     1     -18.057  39.386  12.061  0.00  0.00    -0.064 C 
ATOM     23  N   UNL     1     -19.539  39.038  11.914  0.00  0.00    +0.379 N 
ATOM     24  C   UNL     1     -20.348  40.018  12.654  0.00  0.00    -0.096 C 
ATOM     25  H   UNL     1     -19.701  38.041  12.385  0.00  0.00    -0.082 HD
ATOM     26  C   UNL     1     -19.933  38.925  10.448  0.00  0.00    -0.064 C 
ATOM     27  C   UNL     1     -19.052  37.872   9.719  0.00  0.00    +0.066 C 
ENDBRANCH  19  20
ENDBRANCH  18  19
ENDBRANCH  14  15
ENDBRANCH  12  13
TORSDOF 6
ENDMDL
MODEL 2
REMARK VINA RESULT:     -11.2      2.528      3.544
REMARK  Name = C:\Users\Docking\Desktop\test protocol\1iep_ligandH.pdb
REMARK  8 active torsions:
REMARK  status: ('A' for Active; 'I' for Inactive)
REMARK    1  A    between atoms: _5  and  _11
REMARK    2  A    between atoms: _19  and  _21
REMARK    3  A    between atoms: _22  and  _66
REMARK    4  A    between atoms: _27  and  _30
REMARK    5  A    between atoms: _32  and  _33
REMARK    6  A    between atoms: _38  and  _43
REMARK    7  A    between atoms: _43  and  _46
REMARK    8  A    between atoms: _53  and  _55
REMARK                            x       y       z     vdW  Elec       q    Type
REMARK                         _______ _______ _______ _____ _____    ______ ____
ROOT
ATOM     10  C   UNL     1      -9.137  36.437  10.357  0.00  0.00    +0.038 A 
ATOM     11  C   UNL     1     -10.520  36.519  10.050  0.00  0.00    +0.047 A 
ATOM     12  C   UNL     1     -11.326  37.640  10.508  0.00  0.00    +0.035 A 
ATOM     32  C   UNL     1     -10.691  38.661  11.274  0.00  0.00    +0.024 A 
ATOM     33  C   UNL     1      -9.288  38.592  11.595  0.00  0.00    +0.007 A 
ATOM     34  C   UNL     1      -8.488  37.488  11.149  0.00  0.00    -0.029 A 
ATOM     35  C   UNL     1      -6.989  37.463  11.529  0.00  0.00    +0.045 C 
ENDROOT
BRANCH  10   9
ATOM      4  C   UNL     1      -7.321  32.027  10.899  0.00  0.00    +0.077 A 
ATOM      5  C   UNL     1      -7.841  31.913  12.231  0.00  0.00    +0.048 A 
ATOM      6  C   UNL     1      -8.564  33.014  12.742  0.00  0.00    +0.116 A 
ATOM      7  N   UNL     1      -8.747  34.140  11.970  0.00  0.00    -0.223 NA
ATOM      8  C   UNL     1      -8.232  34.218  10.689  0.00  0.00    +0.220 A 
ATOM      9  N   UNL     1      -8.411  35.338   9.892  0.00  0.00    -0.283 N 
ATOM     36  H   UNL     1      -8.008  35.360   8.955  0.00  0.00    +0.155 HD
ATOM     37  N   UNL     1      -7.536  33.181  10.179  0.00  0.00    -0.214 NA
BRANCH   4   3
ATOM      1  C   UNL     1      -6.323  29.024   8.600  0.00  0.00    +0.020 A 
ATOM      2  C   UNL     1      -7.123  30.050   9.228  0.00  0.00    +0.013 A 
ATOM      3  C   UNL     1      -6.539  30.947  10.218  0.00  0.00    +0.019 A 
ATOM     38  C   UNL     1      -5.132  30.779  10.550  0.00  0.00    +0.120 A 
ATOM     39  N   UNL     1      -4.388  29.780   9.930  0.00  0.00    -0.263 NA
ATOM     40  C   UNL     1      -4.939  28.910   8.977  0.00  0.00    +0.111 A 
ENDBRANCH   4   3
ENDBRANCH  10   9
BRANCH  12  13
ATOM     13  N   UNL     1     -12.736  37.774  10.234  0.00  0.00    -0.281 N 
ATOM     14  C   UNL     1     -13.746  36.865  10.504  0.00  0.00    +0.248 C 
ATOM     30  O   UNL     1     -13.560  35.702  10.831  0.00  0.00    -0.270 OA
ATOM     31  H   UNL     1     -13.024  38.645   9.787  0.00  0.00    +0.155 HD
BRANCH  14  15
ATOM     15  C   UNL     1     -15.168  37.308  10.380  0.00  0.00    +0.037 A 
ATOM     16  C   UNL     1     -15.905  37.152   9.124  0.00  0.00    +0.013 A 
ATOM     17  C   UNL     1     -17.271  37.603   9.026  0.00  0.00    +0.005 A 
ATOM     18  C   UNL     1     -17.908  38.215  10.190  0.00  0.00    -0.033 A 
ATOM     28  C   UNL     1     -17.155  38.353  11.425  0.00  0.00    +0.005 A 
ATOM     29  C   UNL     1     -15.816  37.913  11.525  0.00  0.00    +0.013 A 
BRANCH  18  19
ATOM     19  C   UNL     1     -19.354  38.744  10.170  0.00  0.00    +0.119 C 
BRANCH  19  20
ATOM     20  N   UNL     1     -19.728  39.751  11.207  0.00  0.00    -0.302 NA
ATOM     21  C   UNL     1     -20.723  39.185  12.225  0.00  0.00    +0.066 C 
ATOM     22  C   UNL     1     -21.086  40.244  13.316  0.00  0.00    -0.064 C 
ATOM     23  N   UNL     1     -21.654  41.494  12.640  0.00  0.00    +0.379 N 
ATOM     24  C   UNL     1     -22.051  42.469  13.667  0.00  0.00    -0.096 C 
ATOM     25  H   UNL     1     -22.574  41.191  12.088  0.00  0.00    -0.082 HD
ATOM     26  C   UNL     1     -20.673  42.061  11.625  0.00  0.00    -0.064 C 
ATOM     27  C   UNL     1     -20.296  40.992  10.562  0.00  0.00    +0.066 C 
ENDBRANCH  19  20
ENDBRANCH  18  19
ENDBRANCH  14  15
ENDBRANCH  12  13
TORSDOF 6
ENDMDL
MODEL 3
REMARK VINA RESULT:     -11.1      1.141      1.491
REMARK  Name = C:\Users\Docking\Desktop\test protocol\1iep_ligandH.pdb
REMARK  8 active torsions:
REMARK  status: ('A' for Active; 'I' for Inactive)
REMARK    1  A    between atoms: _5  and  _11
REMARK    2  A    between atoms: _19  and  _21
REMARK    3  A    between atoms: _22  and  _66
REMARK    4  A    between atoms: _27  and  _30
REMARK    5  A    between atoms: _32  and  _33
REMARK    6  A    between atoms: _38  and  _43
REMARK    7  A    between atoms: _43  and  _46
REMARK    8  A    between atoms: _53  and  _55
REMARK                            x       y       z     vdW  Elec       q    Type
REMARK                         _______ _______ _______ _____ _____    ______ ____
ROOT
ATOM     10  C   UNL     1      -7.097  36.852  12.049  0.00  0.00    +0.038 A 
ATOM     11  C   UNL     1      -8.383  36.881  11.453  0.00  0.00    +0.047 A 
ATOM     12  C   UNL     1      -9.379  37.861  11.859  0.00  0.00    +0.035 A 
ATOM     32  C   UNL     1      -9.028  38.799  12.873  0.00  0.00    +0.024 A 
ATOM     33  C   UNL     1      -7.725  38.783  13.490  0.00  0.00    +0.007 A 
ATOM     34  C   UNL     1      -6.741  37.817  13.096  0.00  0.00    -0.029 A 
ATOM     35  C   UNL     1      -5.362  37.843  13.796  0.00  0.00    +0.045 C 
ENDROOT
BRANCH  10   9
ATOM      4  C   UNL     1      -5.197  32.447  12.214  0.00  0.00    +0.077 A 
ATOM      5  C   UNL     1      -6.089  32.037  13.260  0.00  0.00    +0.048 A 
ATOM      6  C   UNL     1      -7.017  32.992  13.733  0.00  0.00    +0.116 A 
ATOM      7  N   UNL     1      -7.042  34.260  13.192  0.00  0.00    -0.223 NA
ATOM      8  C   UNL     1      -6.167  34.623  12.185  0.00  0.00    +0.220 A 
ATOM      9  N   UNL     1      -6.180  35.889  11.621  0.00  0.00    -0.283 N 
ATOM     36  H   UNL     1      -5.513  36.120  10.885  0.00  0.00    +0.155 HD
ATOM     37  N   UNL     1      -5.270  33.729  11.718  0.00  0.00    -0.214 NA
BRANCH   4   3
ATOM      1  C   UNL     1      -3.446  29.428  10.449  0.00  0.00    +0.020 A 
ATOM      2  C   UNL     1      -4.482  30.255  11.022  0.00  0.00    +0.013 A 
ATOM      3  C   UNL     1      -4.163  31.551  11.608  0.00  0.00    +0.019 A 
ATOM     38  C   UNL     1      -2.774  31.984  11.596  0.00  0.00    +0.120 A 
ATOM     39  N   UNL     1      -1.797  31.166  11.038  0.00  0.00    -0.263 NA
ATOM     40  C   UNL     1      -2.092  29.916  10.473  0.00  0.00    +0.111 A 
ENDBRANCH   4   3
ENDBRANCH  10   9
BRANCH  12  13
ATOM     13  N   UNL     1     -10.704  37.933  11.296  0.00  0.00    -0.281 N 
ATOM     14  C   UNL     1     -11.124  37.500  10.049  0.00  0.00    +0.248 C 
ATOM     30  O   UNL     1     -10.374  37.175   9.141  0.00  0.00    -0.270 OA
ATOM     31  H   UNL     1     -11.419  38.356  11.888  0.00  0.00    +0.155 HD
BRANCH  14  15
ATOM     15  C   UNL     1     -12.590  37.430   9.765  0.00  0.00    +0.037 A 
ATOM     16  C   UNL     1     -13.187  38.188   8.662  0.00  0.00    +0.013 A 
ATOM     17  C   UNL     1     -14.607  38.116   8.421  0.00  0.00    +0.005 A 
ATOM     18  C   UNL     1     -15.439  37.282   9.284  0.00  0.00    -0.033 A 
ATOM     28  C   UNL     1     -14.819  36.536  10.367  0.00  0.00    +0.005 A 
ATOM     29  C   UNL     1     -13.429  36.605  10.608  0.00  0.00    +0.013 A 
BRANCH  18  19
ATOM     19  C   UNL     1     -16.965  37.162   9.113  0.00  0.00    +0.119 C 
BRANCH  19  20
ATOM     20  N   UNL     1     -17.813  38.164   9.825  0.00  0.00    -0.302 NA
ATOM     21  C   UNL     1     -17.338  38.402  11.261  0.00  0.00    +0.066 C 
ATOM     22  C   UNL     1     -18.223  39.469  11.984  0.00  0.00    -0.064 C 
ATOM     23  N   UNL     1     -19.683  39.014  11.965  0.00  0.00    +0.379 N 
ATOM     24  C   UNL     1     -20.509  39.987  12.695  0.00  0.00    -0.096 C 
ATOM     25  H   UNL     1     -19.742  38.044  12.511  0.00  0.00    -0.082 HD
ATOM     26  C   UNL     1     -20.163  38.773  10.541  0.00  0.00    -0.064 C 
ATOM     27  C   UNL     1     -19.259  37.733   9.822  0.00  0.00    +0.066 C 
ENDBRANCH  19  20
ENDBRANCH  18  19
ENDBRANCH  14  15
ENDBRANCH  12  13
TORSDOF 6
ENDMDL
MODEL 4
REMARK VINA RESULT:     -10.7      2.559      3.207
REMARK  Name = C:\Users\Docking\Desktop\test protocol\1iep_ligandH.pdb
REMARK  8 active torsions:
REMARK  status: ('A' for Active; 'I' for Inactive)
REMARK    1  A    between atoms: _5  and  _11
REMARK    2  A    between atoms: _19  and  _21
REMARK    3  A    between atoms: _22  and  _66
REMARK    4  A    between atoms: _27  and  _30
REMARK    5  A    between atoms: _32  and  _33
REMARK    6  A    between atoms: _38  and  _43
REMARK    7  A    between atoms: _43  and  _46
REMARK    8  A    between atoms: _53  and  _55
REMARK                            x       y       z     vdW  Elec       q    Type
REMARK                         _______ _______ _______ _____ _____    ______ ____
ROOT
ATOM     10  C   UNL     1      -7.062  34.378  10.470  0.00  0.00    +0.038 A 
ATOM     11  C   UNL     1      -8.445  34.617  10.268  0.00  0.00    +0.047 A 
ATOM     12  C   UNL     1      -9.118  35.734  10.913  0.00  0.00    +0.035 A 
ATOM     32  C   UNL     1      -8.350  36.589  11.756  0.00  0.00    +0.024 A 
ATOM     33  C   UNL     1      -6.943  36.360  11.974  0.00  0.00    +0.007 A 
ATOM     34  C   UNL     1      -6.275  35.259  11.342  0.00  0.00    -0.029 A 
ATOM     35  C   UNL     1      -4.766  35.057  11.616  0.00  0.00    +0.045 C 
ENDROOT
BRANCH  10   9
ATOM      4  C   UNL     1      -5.629  29.799  10.342  0.00  0.00    +0.077 A 
ATOM      5  C   UNL     1      -6.080  29.559  11.683  0.00  0.00    +0.048 A 
ATOM      6  C   UNL     1      -6.669  30.642  12.373  0.00  0.00    +0.116 A 
ATOM      7  N   UNL     1      -6.792  31.869  11.759  0.00  0.00    -0.223 NA
ATOM      8  C   UNL     1      -6.345  32.067  10.465  0.00  0.00    +0.220 A 
ATOM      9  N   UNL     1      -6.467  33.291   9.825  0.00  0.00    -0.283 N 
ATOM     36  H   UNL     1      -6.118  33.399   8.873  0.00  0.00    +0.155 HD
ATOM     37  N   UNL     1      -5.779  31.049   9.785  0.00  0.00    -0.214 NA
BRANCH   4   3
ATOM      1  C   UNL     1      -3.372  26.856   9.099  0.00  0.00    +0.020 A 
ATOM      2  C   UNL     1      -3.957  27.849   9.971  0.00  0.00    +0.013 A 
ATOM      3  C   UNL     1      -4.990  28.754   9.482  0.00  0.00    +0.019 A 
ATOM     38  C   UNL     1      -5.412  28.626   8.095  0.00  0.00    +0.120 A 
ATOM     39  N   UNL     1      -4.830  27.662   7.279  0.00  0.00    -0.263 NA
ATOM     40  C   UNL     1      -3.834  26.787   7.738  0.00  0.00    +0.111 A 
ENDBRANCH   4   3
ENDBRANCH  10   9
BRANCH  12  13
ATOM     13  N   UNL     1     -10.521  36.022  10.752  0.00  0.00    -0.281 N 
ATOM     14  C   UNL     1     -11.109  37.224  10.392  0.00  0.00    +0.248 C 
ATOM     30  O   UNL     1     -10.524  38.296  10.361  0.00  0.00    -0.270 OA
ATOM     31  H   UNL     1     -11.160  35.245  10.924  0.00  0.00    +0.155 HD
BRANCH  14  15
ATOM     15  C   UNL     1     -12.558  37.239  10.027  0.00  0.00    +0.037 A 
ATOM     16  C   UNL     1     -13.071  38.138   8.990  0.00  0.00    +0.013 A 
ATOM     17  C   UNL     1     -14.477  38.144   8.670  0.00  0.00    +0.005 A 
ATOM     18  C   UNL     1     -15.379  37.246   9.386  0.00  0.00    -0.033 A 
ATOM     28  C   UNL     1     -14.842  36.361  10.407  0.00  0.00    +0.005 A 
ATOM     29  C   UNL     1     -13.465  36.352  10.724  0.00  0.00    +0.013 A 
BRANCH  18  19
ATOM     19  C   UNL     1     -16.896  37.201   9.125  0.00  0.00    +0.119 C 
BRANCH  19  20
ATOM     20  N   UNL     1     -17.739  38.225   9.810  0.00  0.00    -0.302 NA
ATOM     21  C   UNL     1     -17.377  38.370  11.291  0.00  0.00    +0.066 C 
ATOM     22  C   UNL     1     -18.253  39.462  11.987  0.00  0.00    -0.064 C 
ATOM     23  N   UNL     1     -19.731  39.106  11.824  0.00  0.00    +0.379 N 
ATOM     24  C   UNL     1     -20.556  40.099  12.527  0.00  0.00    -0.096 C 
ATOM     25  H   UNL     1     -19.898  38.119  12.315  0.00  0.00    -0.082 HD
ATOM     26  C   UNL     1     -20.100  38.957  10.354  0.00  0.00    -0.064 C 
ATOM     27  C   UNL     1     -19.203  37.891   9.665  0.00  0.00    +0.066 C 
ENDBRANCH  19  20
ENDBRANCH  18  19
ENDBRANCH  14  15
ENDBRANCH  12  13
TORSDOF 6
ENDMDL
MODEL 5
REMARK VINA RESULT:     -10.6      2.508      2.926
REMARK  Name = C:\Users\Docking\Desktop\test protocol\1iep_ligandH.pdb
REMARK  8 active torsions:
REMARK  status: ('A' for Active; 'I' for Inactive)
REMARK    1  A    between atoms: _5  and  _11
REMARK    2  A    between atoms: _19  and  _21
REMARK    3  A    between atoms: _22  and  _66
REMARK    4  A    between atoms: _27  and  _30
REMARK    5  A    between atoms: _32  and  _33
REMARK    6  A    between atoms: _38  and  _43
REMARK    7  A    between atoms: _43  and  _46
REMARK    8  A    between atoms: _53  and  _55
REMARK                            x       y       z     vdW  Elec       q    Type
REMARK                         _______ _______ _______ _____ _____    ______ ____
ROOT
ATOM     10  C   UNL     1      -7.951  36.094  10.767  0.00  0.00    +0.038 A 
ATOM     11  C   UNL     1      -9.338  36.290  10.539  0.00  0.00    +0.047 A 
ATOM     12  C   UNL     1     -10.029  37.456  11.065  0.00  0.00    +0.035 A 
ATOM     32  C   UNL     1      -9.278  38.406  11.817  0.00  0.00    +0.024 A 
ATOM     33  C   UNL     1      -7.868  38.222  12.059  0.00  0.00    +0.007 A 
ATOM     34  C   UNL     1      -7.181  37.072  11.545  0.00  0.00    -0.029 A 
ATOM     35  C   UNL     1      -5.670  36.924  11.840  0.00  0.00    +0.045 C 
ENDROOT
BRANCH  10   9
ATOM      4  C   UNL     1      -6.624  31.490  11.037  0.00  0.00    +0.077 A 
ATOM      5  C   UNL     1      -7.176  31.346  12.353  0.00  0.00    +0.048 A 
ATOM      6  C   UNL     1      -7.787  32.484  12.928  0.00  0.00    +0.116 A 
ATOM      7  N   UNL     1      -7.836  33.670  12.230  0.00  0.00    -0.223 NA
ATOM      8  C   UNL     1      -7.293  33.775  10.963  0.00  0.00    +0.220 A 
ATOM      9  N   UNL     1      -7.338  34.956  10.239  0.00  0.00    -0.283 N 
ATOM     36  H   UNL     1      -6.919  34.995   9.310  0.00  0.00    +0.155 HD
ATOM     37  N   UNL     1      -6.703  32.704  10.392  0.00  0.00    -0.214 NA
BRANCH   4   3
ATOM      1  C   UNL     1      -4.227  28.546  10.094  0.00  0.00    +0.020 A 
ATOM      2  C   UNL     1      -4.844  29.610  10.852  0.00  0.00    +0.013 A 
ATOM      3  C   UNL     1      -5.950  30.378  10.295  0.00  0.00    +0.019 A 
ATOM     38  C   UNL     1      -6.412  30.041   8.957  0.00  0.00    +0.120 A 
ATOM     39  N   UNL     1      -5.798  29.012   8.250  0.00  0.00    -0.263 NA
ATOM     40  C   UNL     1      -4.732  28.267   8.775  0.00  0.00    +0.111 A 
ENDBRANCH   4   3
ENDBRANCH  10   9
BRANCH  12  13
ATOM     13  N   UNL     1     -11.437  37.704  10.874  0.00  0.00    -0.281 N 
ATOM     14  C   UNL     1     -12.152  37.681   9.687  0.00  0.00    +0.248 C 
ATOM     30  O   UNL     1     -11.645  37.653   8.575  0.00  0.00    -0.270 OA
ATOM     31  H   UNL     1     -11.971  37.923  11.714  0.00  0.00    +0.155 HD
BRANCH  14  15
ATOM     15  C   UNL     1     -13.645  37.707   9.743  0.00  0.00    +0.037 A 
ATOM     16  C   UNL     1     -14.357  37.743  11.023  0.00  0.00    +0.013 A 
ATOM     17  C   UNL     1     -15.798  37.750  11.049  0.00  0.00    +0.005 A 
ATOM     18  C   UNL     1     -16.537  37.723   9.790  0.00  0.00    -0.033 A 
ATOM     28  C   UNL     1     -15.806  37.693   8.534  0.00  0.00    +0.005 A 
ATOM     29  C   UNL     1     -14.393  37.684   8.504  0.00  0.00    +0.013 A 
BRANCH  18  19
ATOM     19  C   UNL     1     -18.076  37.707   9.723  0.00  0.00    +0.119 C 
BRANCH  19  20
ATOM     20  N   UNL     1     -18.774  39.027   9.718  0.00  0.00    -0.302 NA
ATOM     21  C   UNL     1     -18.933  39.598  11.130  0.00  0.00    +0.066 C 
ATOM     22  C   UNL     1     -19.644  40.990  11.104  0.00  0.00    -0.064 C 
ATOM     23  N   UNL     1     -21.005  40.851  10.420  0.00  0.00    +0.379 N 
ATOM     24  C   UNL     1     -21.702  42.146  10.445  0.00  0.00    -0.096 C 
ATOM     25  H   UNL     1     -21.611  40.129  11.015  0.00  0.00    -0.082 HD
ATOM     26  C   UNL     1     -20.857  40.282   9.016  0.00  0.00    -0.064 C 
ATOM     27  C   UNL     1     -20.122  38.912   9.050  0.00  0.00    +0.066 C 
ENDBRANCH  19  20
ENDBRANCH  18  19
ENDBRANCH  14  15
ENDBRANCH  12  13
TORSDOF 6
ENDMDL
