MODEL 1
REMARK VINA RESULT:      -9.3      0.000      0.000
REMARK  Name = C:\Users\Docking\Desktop\test protocol\1iep_ligandH.pdb
REMARK  8 active torsions:
REMARK  status: ('A' for Active; 'I' for Inactive)
REMARK    1  A    between atoms: _5  and  _11
REMARK    2  A    between atoms: _19  and  _21
REMARK    3  A    between atoms: _22  and  _66
REMARK    4  A    between atoms: _27  and  _30
REMARK    5  A    between atoms: _32  and  _33
REMARK    6  A    between atoms: _38  and  _43
REMARK    7  A    between atoms: _43  and  _46
REMARK    8  A    between atoms: _53  and  _55
REMARK                            x       y       z     vdW  Elec       q    Type
REMARK                         _______ _______ _______ _____ _____    ______ ____
ROOT
ATOM     10  C   UNL     1      19.138  15.441  20.804  0.00  0.00    +0.038 A 
ATOM     11  C   UNL     1      19.759  14.333  20.172  0.00  0.00    +0.047 A 
ATOM     12  C   UNL     1      20.541  13.372  20.936  0.00  0.00    +0.035 A 
ATOM     32  C   UNL     1      20.667  13.570  22.342  0.00  0.00    +0.024 A 
ATOM     33  C   UNL     1      20.044  14.691  23.000  0.00  0.00    +0.007 A 
ATOM     34  C   UNL     1      19.274  15.643  22.251  0.00  0.00    -0.029 A 
ATOM     35  C   UNL     1      18.633  16.830  23.008  0.00  0.00    +0.045 C 
ENDROOT
BRANCH  10   9
ATOM      4  C   UNL     1      18.797  19.256  17.912  0.00  0.00    +0.077 A 
ATOM      5  C   UNL     1      20.207  19.513  17.986  0.00  0.00    +0.048 A 
ATOM      6  C   UNL     1      20.983  18.643  18.785  0.00  0.00    +0.116 A 
ATOM      7  N   UNL     1      20.384  17.599  19.455  0.00  0.00    -0.223 NA
ATOM      8  C   UNL     1      19.022  17.381  19.363  0.00  0.00    +0.220 A 
ATOM      9  N   UNL     1      18.399  16.332  20.022  0.00  0.00    -0.283 N 
ATOM     36  H   UNL     1      17.391  16.209  19.935  0.00  0.00    +0.155 HD
ATOM     37  N   UNL     1      18.258  18.198  18.608  0.00  0.00    -0.214 NA
BRANCH   4   3
ATOM      1  C   UNL     1      15.589  20.518  16.064  0.00  0.00    +0.020 A 
ATOM      2  C   UNL     1      16.468  19.681  16.848  0.00  0.00    +0.013 A 
ATOM      3  C   UNL     1      17.845  20.084  17.107  0.00  0.00    +0.019 A 
ATOM     38  C   UNL     1      18.303  21.350  16.555  0.00  0.00    +0.120 A 
ATOM     39  N   UNL     1      17.434  22.134  15.803  0.00  0.00    -0.263 NA
ATOM     40  C   UNL     1      16.108  21.756  15.545  0.00  0.00    +0.111 A 
ENDBRANCH   4   3
ENDBRANCH  10   9
BRANCH  12  13
ATOM     13  N   UNL     1      21.201  12.233  20.349  0.00  0.00    -0.281 N 
ATOM     14  C   UNL     1      22.102  11.369  20.948  0.00  0.00    +0.248 C 
ATOM     30  O   UNL     1      22.644  11.573  22.024  0.00  0.00    -0.270 OA
ATOM     31  H   UNL     1      20.975  12.040  19.372  0.00  0.00    +0.155 HD
BRANCH  14  15
ATOM     15  C   UNL     1      22.466  10.102  20.243  0.00  0.00    +0.037 A 
ATOM     16  C   UNL     1      23.857   9.648  20.164  0.00  0.00    +0.013 A 
ATOM     17  C   UNL     1      24.182   8.431  19.463  0.00  0.00    +0.005 A 
ATOM     18  C   UNL     1      23.112   7.658  18.837  0.00  0.00    -0.033 A 
ATOM     28  C   UNL     1      21.740   8.128  18.935  0.00  0.00    +0.005 A 
ATOM     29  C   UNL     1      21.418   9.321  19.620  0.00  0.00    +0.013 A 
BRANCH  18  19
ATOM     19  C   UNL     1      23.369   6.358  18.051  0.00  0.00    +0.119 C 
BRANCH  19  20
ATOM     20  N   UNL     1      23.940   5.204  18.807  0.00  0.00    -0.302 NA
ATOM     21  C   UNL     1      23.513   3.859  18.210  0.00  0.00    +0.066 C 
ATOM     22  C   UNL     1      24.137   2.663  18.999  0.00  0.00    -0.064 C 
ATOM     23  N   UNL     1      23.727   2.757  20.470  0.00  0.00    +0.379 N 
ATOM     24  C   UNL     1      24.264   1.601  21.204  0.00  0.00    -0.096 C 
ATOM     25  H   UNL     1      22.615   2.699  20.516  0.00  0.00    -0.082 HD
ATOM     26  C   UNL     1      24.145   4.091  21.071  0.00  0.00    -0.064 C 
ATOM     27  C   UNL     1      23.544   5.274  20.261  0.00  0.00    +0.066 C 
ENDBRANCH  19  20
ENDBRANCH  18  19
ENDBRANCH  14  15
ENDBRANCH  12  13
TORSDOF 6
ENDMDL
MODEL 2
REMARK VINA RESULT:      -9.2      8.364     14.482
REMARK  Name = C:\Users\Docking\Desktop\test protocol\1iep_ligandH.pdb
REMARK  8 active torsions:
REMARK  status: ('A' for Active; 'I' for Inactive)
REMARK    1  A    between atoms: _5  and  _11
REMARK    2  A    between atoms: _19  and  _21
REMARK    3  A    between atoms: _22  and  _66
REMARK    4  A    between atoms: _27  and  _30
REMARK    5  A    between atoms: _32  and  _33
REMARK    6  A    between atoms: _38  and  _43
REMARK    7  A    between atoms: _43  and  _46
REMARK    8  A    between atoms: _53  and  _55
REMARK                            x       y       z     vdW  Elec       q    Type
REMARK                         _______ _______ _______ _____ _____    ______ ____
ROOT
ATOM     10  C   UNL     1       8.924  20.381  13.966  0.00  0.00    +0.038 A 
ATOM     11  C   UNL     1      10.237  20.225  14.478  0.00  0.00    +0.047 A 
ATOM     12  C   UNL     1      11.307  21.133  14.095  0.00  0.00    +0.035 A 
ATOM     32  C   UNL     1      11.003  22.192  13.190  0.00  0.00    +0.024 A 
ATOM     33  C   UNL     1       9.673  22.364  12.658  0.00  0.00    +0.007 A 
ATOM     34  C   UNL     1       8.615  21.470  13.031  0.00  0.00    -0.029 A 
ATOM     35  C   UNL     1       7.210  21.698  12.425  0.00  0.00    +0.045 C 
ENDROOT
BRANCH  10   9
ATOM      4  C   UNL     1       7.364  15.931  14.863  0.00  0.00    +0.077 A 
ATOM      5  C   UNL     1       8.616  15.350  14.473  0.00  0.00    +0.048 A 
ATOM      6  C   UNL     1       9.634  16.230  14.041  0.00  0.00    +0.116 A 
ATOM      7  N   UNL     1       9.405  17.589  14.006  0.00  0.00    -0.223 NA
ATOM      8  C   UNL     1       8.184  18.116  14.387  0.00  0.00    +0.220 A 
ATOM      9  N   UNL     1       7.935  19.480  14.367  0.00  0.00    -0.283 N 
ATOM     36  H   UNL     1       7.019  19.829  14.649  0.00  0.00    +0.155 HD
ATOM     37  N   UNL     1       7.196  17.297  14.802  0.00  0.00    -0.214 NA
BRANCH   4   3
ATOM      1  C   UNL     1       4.647  13.142  15.237  0.00  0.00    +0.020 A 
ATOM      2  C   UNL     1       5.785  13.875  14.732  0.00  0.00    +0.013 A 
ATOM      3  C   UNL     1       6.193  15.132  15.345  0.00  0.00    +0.019 A 
ATOM     38  C   UNL     1       5.422  15.625  16.477  0.00  0.00    +0.120 A 
ATOM     39  N   UNL     1       4.330  14.898  16.941  0.00  0.00    -0.263 NA
ATOM     40  C   UNL     1       3.927  13.688  16.357  0.00  0.00    +0.111 A 
ENDBRANCH   4   3
ENDBRANCH  10   9
BRANCH  12  13
ATOM     13  N   UNL     1      12.661  21.020  14.576  0.00  0.00    -0.281 N 
ATOM     14  C   UNL     1      13.836  21.200  13.864  0.00  0.00    +0.248 C 
ATOM     30  O   UNL     1      13.901  21.277  12.646  0.00  0.00    -0.270 OA
ATOM     31  H   UNL     1      12.767  20.777  15.561  0.00  0.00    +0.155 HD
BRANCH  14  15
ATOM     15  C   UNL     1      15.126  21.293  14.612  0.00  0.00    +0.037 A 
ATOM     16  C   UNL     1      16.120  22.319  14.287  0.00  0.00    +0.013 A 
ATOM     17  C   UNL     1      17.365  22.376  15.013  0.00  0.00    +0.005 A 
ATOM     18  C   UNL     1      17.621  21.403  16.072  0.00  0.00    -0.033 A 
ATOM     28  C   UNL     1      16.615  20.399  16.377  0.00  0.00    +0.005 A 
ATOM     29  C   UNL     1      15.395  20.340  15.667  0.00  0.00    +0.013 A 
BRANCH  18  19
ATOM     19  C   UNL     1      18.930  21.376  16.884  0.00  0.00    +0.119 C 
BRANCH  19  20
ATOM     20  N   UNL     1      19.187  20.170  17.726  0.00  0.00    -0.302 NA
ATOM     21  C   UNL     1      18.987  20.457  19.217  0.00  0.00    +0.066 C 
ATOM     22  C   UNL     1      19.239  19.178  20.081  0.00  0.00    -0.064 C 
ATOM     23  N   UNL     1      20.651  18.656  19.814  0.00  0.00    +0.379 N 
ATOM     24  C   UNL     1      20.911  17.488  20.669  0.00  0.00    -0.096 C 
ATOM     25  H   UNL     1      21.369  19.456  20.108  0.00  0.00    -0.082 HD
ATOM     26  C   UNL     1      20.859  18.370  18.334  0.00  0.00    -0.064 C 
ATOM     27  C   UNL     1      20.578  19.639  17.482  0.00  0.00    +0.066 C 
ENDBRANCH  19  20
ENDBRANCH  18  19
ENDBRANCH  14  15
ENDBRANCH  12  13
TORSDOF 6
ENDMDL
MODEL 3
REMARK VINA RESULT:      -9.2      8.027     11.739
REMARK  Name = C:\Users\Docking\Desktop\test protocol\1iep_ligandH.pdb
REMARK  8 active torsions:
REMARK  status: ('A' for Active; 'I' for Inactive)
REMARK    1  A    between atoms: _5  and  _11
REMARK    2  A    between atoms: _19  and  _21
REMARK    3  A    between atoms: _22  and  _66
REMARK    4  A    between atoms: _27  and  _30
REMARK    5  A    between atoms: _32  and  _33
REMARK    6  A    between atoms: _38  and  _43
REMARK    7  A    between atoms: _43  and  _46
REMARK    8  A    between atoms: _53  and  _55
REMARK                            x       y       z     vdW  Elec       q    Type
REMARK                         _______ _______ _______ _____ _____    ______ ____
ROOT
ATOM     10  C   UNL     1      11.810  18.793  18.852  0.00  0.00    +0.038 A 
ATOM     11  C   UNL     1      13.111  18.244  18.980  0.00  0.00    +0.047 A 
ATOM     12  C   UNL     1      14.242  19.073  19.369  0.00  0.00    +0.035 A 
ATOM     32  C   UNL     1      14.010  20.456  19.623  0.00  0.00    +0.024 A 
ATOM     33  C   UNL     1      12.694  21.030  19.497  0.00  0.00    +0.007 A 
ATOM     34  C   UNL     1      11.575  20.218  19.111  0.00  0.00    -0.029 A 
ATOM     35  C   UNL     1      10.187  20.889  18.984  0.00  0.00    +0.045 C 
ENDROOT
BRANCH  10   9
ATOM      4  C   UNL     1       9.357  16.296  15.567  0.00  0.00    +0.077 A 
ATOM      5  C   UNL     1      10.224  16.725  14.507  0.00  0.00    +0.048 A 
ATOM      6  C   UNL     1      11.285  17.594  14.849  0.00  0.00    +0.116 A 
ATOM      7  N   UNL     1      11.457  17.996  16.155  0.00  0.00    -0.223 NA
ATOM      8  C   UNL     1      10.602  17.565  17.153  0.00  0.00    +0.220 A 
ATOM      9  N   UNL     1      10.760  17.951  18.475  0.00  0.00    -0.283 N 
ATOM     36  H   UNL     1      10.104  17.617  19.180  0.00  0.00    +0.155 HD
ATOM     37  N   UNL     1       9.580  16.736  16.852  0.00  0.00    -0.214 NA
BRANCH   4   3
ATOM      1  C   UNL     1       6.745  13.882  13.939  0.00  0.00    +0.020 A 
ATOM      2  C   UNL     1       7.880  14.765  14.080  0.00  0.00    +0.013 A 
ATOM      3  C   UNL     1       8.194  15.375  15.366  0.00  0.00    +0.019 A 
ATOM     38  C   UNL     1       7.334  15.068  16.498  0.00  0.00    +0.120 A 
ATOM     39  N   UNL     1       6.247  14.215  16.333  0.00  0.00    -0.263 NA
ATOM     40  C   UNL     1       5.934  13.624  15.100  0.00  0.00    +0.111 A 
ENDBRANCH   4   3
ENDBRANCH  10   9
BRANCH  12  13
ATOM     13  N   UNL     1      15.587  18.573  19.507  0.00  0.00    -0.281 N 
ATOM     14  C   UNL     1      16.666  18.786  18.664  0.00  0.00    +0.248 C 
ATOM     30  O   UNL     1      16.582  19.266  17.543  0.00  0.00    -0.270 OA
ATOM     31  H   UNL     1      15.767  17.992  20.326  0.00  0.00    +0.155 HD
BRANCH  14  15
ATOM     15  C   UNL     1      18.032  18.397  19.127  0.00  0.00    +0.037 A 
ATOM     16  C   UNL     1      18.929  17.613  18.273  0.00  0.00    +0.013 A 
ATOM     17  C   UNL     1      20.236  17.236  18.751  0.00  0.00    +0.005 A 
ATOM     18  C   UNL     1      20.654  17.644  20.090  0.00  0.00    -0.033 A 
ATOM     28  C   UNL     1      19.746  18.425  20.914  0.00  0.00    +0.005 A 
ATOM     29  C   UNL     1      18.464  18.795  20.450  0.00  0.00    +0.013 A 
BRANCH  18  19
ATOM     19  C   UNL     1      22.022  17.269  20.690  0.00  0.00    +0.119 C 
BRANCH  19  20
ATOM     20  N   UNL     1      23.039  18.356  20.808  0.00  0.00    -0.302 NA
ATOM     21  C   UNL     1      22.834  19.200  22.070  0.00  0.00    +0.066 C 
ATOM     22  C   UNL     1      23.919  20.318  22.189  0.00  0.00    -0.064 C 
ATOM     23  N   UNL     1      23.882  21.197  20.938  0.00  0.00    +0.379 N 
ATOM     24  C   UNL     1      24.861  22.285  21.072  0.00  0.00    -0.096 C 
ATOM     25  H   UNL     1      22.869  21.659  20.880  0.00  0.00    -0.082 HD
ATOM     26  C   UNL     1      24.082  20.366  19.678  0.00  0.00    -0.064 C 
ATOM     27  C   UNL     1      23.016  19.239  19.585  0.00  0.00    +0.066 C 
ENDBRANCH  19  20
ENDBRANCH  18  19
ENDBRANCH  14  15
ENDBRANCH  12  13
TORSDOF 6
ENDMDL
MODEL 4
REMARK VINA RESULT:      -9.2      8.901     13.967
REMARK  Name = C:\Users\Docking\Desktop\test protocol\1iep_ligandH.pdb
REMARK  8 active torsions:
REMARK  status: ('A' for Active; 'I' for Inactive)
REMARK    1  A    between atoms: _5  and  _11
REMARK    2  A    between atoms: _19  and  _21
REMARK    3  A    between atoms: _22  and  _66
REMARK    4  A    between atoms: _27  and  _30
REMARK    5  A    between atoms: _32  and  _33
REMARK    6  A    between atoms: _38  and  _43
REMARK    7  A    between atoms: _43  and  _46
REMARK    8  A    between atoms: _53  and  _55
REMARK                            x       y       z     vdW  Elec       q    Type
REMARK                         _______ _______ _______ _____ _____    ______ ____
ROOT
ATOM     10  C   UNL     1       9.173  19.698  14.300  0.00  0.00    +0.038 A 
ATOM     11  C   UNL     1      10.365  19.466  15.031  0.00  0.00    +0.047 A 
ATOM     12  C   UNL     1      11.578  20.219  14.752  0.00  0.00    +0.035 A 
ATOM     32  C   UNL     1      11.540  21.204  13.722  0.00  0.00    +0.024 A 
ATOM     33  C   UNL     1      10.336  21.452  12.968  0.00  0.00    +0.007 A 
ATOM     34  C   UNL     1       9.138  20.710  13.237  0.00  0.00    -0.029 A 
ATOM     35  C   UNL     1       7.878  21.014  12.392  0.00  0.00    +0.045 C 
ENDROOT
BRANCH  10   9
ATOM      4  C   UNL     1       6.918  15.513  14.959  0.00  0.00    +0.077 A 
ATOM      5  C   UNL     1       8.095  14.760  14.632  0.00  0.00    +0.048 A 
ATOM      6  C   UNL     1       9.257  15.488  14.293  0.00  0.00    +0.116 A 
ATOM      7  N   UNL     1       9.234  16.866  14.285  0.00  0.00    -0.223 NA
ATOM      8  C   UNL     1       8.082  17.561  14.604  0.00  0.00    +0.220 A 
ATOM      9  N   UNL     1       8.037  18.946  14.610  0.00  0.00    -0.283 N 
ATOM     36  H   UNL     1       7.166  19.422  14.844  0.00  0.00    +0.155 HD
ATOM     37  N   UNL     1       6.958  16.889  14.930  0.00  0.00    -0.214 NA
BRANCH   4   3
ATOM      1  C   UNL     1       4.008  12.943  15.438  0.00  0.00    +0.020 A 
ATOM      2  C   UNL     1       5.283  13.499  15.046  0.00  0.00    +0.013 A 
ATOM      3  C   UNL     1       5.613  14.887  15.342  0.00  0.00    +0.019 A 
ATOM     38  C   UNL     1       4.623  15.693  16.041  0.00  0.00    +0.120 A 
ATOM     39  N   UNL     1       3.403  15.131  16.405  0.00  0.00    -0.263 NA
ATOM     40  C   UNL     1       3.074  13.797  16.124  0.00  0.00    +0.111 A 
ENDBRANCH   4   3
ENDBRANCH  10   9
BRANCH  12  13
ATOM     13  N   UNL     1      12.821  20.022  15.456  0.00  0.00    -0.281 N 
ATOM     14  C   UNL     1      13.164  20.474  16.720  0.00  0.00    +0.248 C 
ATOM     30  O   UNL     1      12.529  21.303  17.354  0.00  0.00    -0.270 OA
ATOM     31  H   UNL     1      13.533  19.484  14.964  0.00  0.00    +0.155 HD
BRANCH  14  15
ATOM     15  C   UNL     1      14.401  19.938  17.367  0.00  0.00    +0.037 A 
ATOM     16  C   UNL     1      15.688  19.943  16.667  0.00  0.00    +0.013 A 
ATOM     17  C   UNL     1      16.862  19.405  17.308  0.00  0.00    +0.005 A 
ATOM     18  C   UNL     1      16.753  18.857  18.658  0.00  0.00    -0.033 A 
ATOM     28  C   UNL     1      15.464  18.868  19.331  0.00  0.00    +0.005 A 
ATOM     29  C   UNL     1      14.312  19.395  18.706  0.00  0.00    +0.013 A 
BRANCH  18  19
ATOM     19  C   UNL     1      17.948  18.242  19.410  0.00  0.00    +0.119 C 
BRANCH  19  20
ATOM     20  N   UNL     1      19.254  18.960  19.321  0.00  0.00    -0.302 NA
ATOM     21  C   UNL     1      20.229  18.265  18.366  0.00  0.00    +0.066 C 
ATOM     22  C   UNL     1      21.582  19.042  18.267  0.00  0.00    -0.064 C 
ATOM     23  N   UNL     1      22.193  19.174  19.663  0.00  0.00    +0.379 N 
ATOM     24  C   UNL     1      23.494  19.853  19.566  0.00  0.00    -0.096 C 
ATOM     25  H   UNL     1      22.377  18.145  20.050  0.00  0.00    -0.082 HD
ATOM     26  C   UNL     1      21.230  19.862  20.620  0.00  0.00    -0.064 C 
ATOM     27  C   UNL     1      19.878  19.098  20.688  0.00  0.00    +0.066 C 
ENDBRANCH  19  20
ENDBRANCH  18  19
ENDBRANCH  14  15
ENDBRANCH  12  13
TORSDOF 6
ENDMDL
MODEL 5
REMARK VINA RESULT:      -9.1      8.992     15.253
REMARK  Name = C:\Users\Docking\Desktop\test protocol\1iep_ligandH.pdb
REMARK  8 active torsions:
REMARK  status: ('A' for Active; 'I' for Inactive)
REMARK    1  A    between atoms: _5  and  _11
REMARK    2  A    between atoms: _19  and  _21
REMARK    3  A    between atoms: _22  and  _66
REMARK    4  A    between atoms: _27  and  _30
REMARK    5  A    between atoms: _32  and  _33
REMARK    6  A    between atoms: _38  and  _43
REMARK    7  A    between atoms: _43  and  _46
REMARK    8  A    between atoms: _53  and  _55
REMARK                            x       y       z     vdW  Elec       q    Type
REMARK                         _______ _______ _______ _____ _____    ______ ____
ROOT
ATOM     10  C   UNL     1      13.240  21.020  14.679  0.00  0.00    +0.038 A 
ATOM     11  C   UNL     1      12.281  19.987  14.835  0.00  0.00    +0.047 A 
ATOM     12  C   UNL     1      10.875  20.214  14.538  0.00  0.00    +0.035 A 
ATOM     32  C   UNL     1      10.482  21.506  14.081  0.00  0.00    +0.024 A 
ATOM     33  C   UNL     1      11.444  22.568  13.918  0.00  0.00    +0.007 A 
ATOM     34  C   UNL     1      12.831  22.350  14.212  0.00  0.00    -0.029 A 
ATOM     35  C   UNL     1      13.817  23.526  14.026  0.00  0.00    +0.045 C 
ENDROOT
BRANCH  10   9
ATOM      4  C   UNL     1      16.688  19.528  17.666  0.00  0.00    +0.077 A 
ATOM      5  C   UNL     1      15.751  19.300  18.729  0.00  0.00    +0.048 A 
ATOM      6  C   UNL     1      14.393  19.586  18.468  0.00  0.00    +0.116 A 
ATOM      7  N   UNL     1      14.010  20.064  17.233  0.00  0.00    -0.223 NA
ATOM      8  C   UNL     1      14.940  20.274  16.231  0.00  0.00    +0.220 A 
ATOM      9  N   UNL     1      14.577  20.746  14.979  0.00  0.00    -0.283 N 
ATOM     36  H   UNL     1      15.293  20.895  14.269  0.00  0.00    +0.155 HD
ATOM     37  N   UNL     1      16.244  20.010  16.455  0.00  0.00    -0.214 NA
BRANCH   4   3
ATOM      1  C   UNL     1      20.574  19.974  17.607  0.00  0.00    +0.020 A 
ATOM      2  C   UNL     1      19.167  20.274  17.473  0.00  0.00    +0.013 A 
ATOM      3  C   UNL     1      18.158  19.270  17.787  0.00  0.00    +0.019 A 
ATOM     38  C   UNL     1      18.610  17.963  18.238  0.00  0.00    +0.120 A 
ATOM     39  N   UNL     1      19.972  17.702  18.356  0.00  0.00    -0.263 NA
ATOM     40  C   UNL     1      20.952  18.660  18.055  0.00  0.00    +0.111 A 
ENDBRANCH   4   3
ENDBRANCH  10   9
BRANCH  12  13
ATOM     13  N   UNL     1       9.855  19.206  14.685  0.00  0.00    -0.281 N 
ATOM     14  C   UNL     1       9.649  18.082  13.903  0.00  0.00    +0.248 C 
ATOM     30  O   UNL     1      10.186  17.884  12.822  0.00  0.00    -0.270 OA
ATOM     31  H   UNL     1       9.204  19.338  15.460  0.00  0.00    +0.155 HD
BRANCH  14  15
ATOM     15  C   UNL     1       8.701  17.031  14.383  0.00  0.00    +0.037 A 
ATOM     16  C   UNL     1       9.051  15.610  14.331  0.00  0.00    +0.013 A 
ATOM     17  C   UNL     1       8.111  14.616  14.785  0.00  0.00    +0.005 A 
ATOM     18  C   UNL     1       6.810  15.042  15.296  0.00  0.00    -0.033 A 
ATOM     28  C   UNL     1       6.490  16.459  15.340  0.00  0.00    +0.005 A 
ATOM     29  C   UNL     1       7.409  17.436  14.896  0.00  0.00    +0.013 A 
BRANCH  18  19
ATOM     19  C   UNL     1       5.737  14.049  15.781  0.00  0.00    +0.119 C 
BRANCH  19  20
ATOM     20  N   UNL     1       4.327  14.538  15.833  0.00  0.00    -0.302 NA
ATOM     21  C   UNL     1       3.810  14.650  17.270  0.00  0.00    +0.066 C 
ATOM     22  C   UNL     1       2.341  15.185  17.307  0.00  0.00    -0.064 C 
ATOM     23  N   UNL     1       1.445  14.262  16.479  0.00  0.00    +0.379 N 
ATOM     24  C   UNL     1       0.053  14.729  16.559  0.00  0.00    -0.096 C 
ATOM     25  H   UNL     1       1.488  13.247  16.939  0.00  0.00    -0.082 HD
ATOM     26  C   UNL     1       1.953  14.143  15.049  0.00  0.00    -0.064 C 
ATOM     27  C   UNL     1       3.423  13.639  15.025  0.00  0.00    +0.066 C 
ENDBRANCH  19  20
ENDBRANCH  18  19
ENDBRANCH  14  15
ENDBRANCH  12  13
TORSDOF 6
ENDMDL
