MODEL 1
REMARK VINA RESULT:      -9.0      0.000      0.000
REMARK  Name = C:\Users\Docking\Desktop\test protocol\1iep_ligandH.pdb
REMARK  8 active torsions:
REMARK  status: ('A' for Active; 'I' for Inactive)
REMARK    1  A    between atoms: _5  and  _11
REMARK    2  A    between atoms: _19  and  _21
REMARK    3  A    between atoms: _22  and  _66
REMARK    4  A    between atoms: _27  and  _30
REMARK    5  A    between atoms: _32  and  _33
REMARK    6  A    between atoms: _38  and  _43
REMARK    7  A    between atoms: _43  and  _46
REMARK    8  A    between atoms: _53  and  _55
REMARK                            x       y       z     vdW  Elec       q    Type
REMARK                         _______ _______ _______ _____ _____    ______ ____
ROOT
ATOM     10  C   UNL     1      57.023  12.075   4.593  0.00  0.00    +0.038 A 
ATOM     11  C   UNL     1      56.929  10.757   4.079  0.00  0.00    +0.047 A 
ATOM     12  C   UNL     1      55.910  10.400   3.104  0.00  0.00    +0.035 A 
ATOM     32  C   UNL     1      55.006  11.413   2.671  0.00  0.00    +0.024 A 
ATOM     33  C   UNL     1      55.087  12.758   3.183  0.00  0.00    +0.007 A 
ATOM     34  C   UNL     1      56.088  13.115   4.147  0.00  0.00    -0.029 A 
ATOM     35  C   UNL     1      56.124  14.571   4.666  0.00  0.00    +0.045 C 
ENDROOT
BRANCH  10   9
ATOM      4  C   UNL     1      61.627  12.338   5.925  0.00  0.00    +0.077 A 
ATOM      5  C   UNL     1      62.083  11.835   4.661  0.00  0.00    +0.048 A 
ATOM      6  C   UNL     1      61.100  11.514   3.698  0.00  0.00    +0.116 A 
ATOM      7  N   UNL     1      59.764  11.687   3.988  0.00  0.00    -0.223 NA
ATOM      8  C   UNL     1      59.358  12.173   5.217  0.00  0.00    +0.220 A 
ATOM      9  N   UNL     1      58.020  12.363   5.527  0.00  0.00    -0.283 N 
ATOM     36  H   UNL     1      57.762  12.716   6.448  0.00  0.00    +0.155 HD
ATOM     37  N   UNL     1      60.277  12.486   6.154  0.00  0.00    -0.214 NA
BRANCH   4   3
ATOM      1  C   UNL     1      64.827  12.915   8.099  0.00  0.00    +0.020 A 
ATOM      2  C   UNL     1      63.986  12.523   6.991  0.00  0.00    +0.013 A 
ATOM      3  C   UNL     1      62.544  12.725   7.043  0.00  0.00    +0.019 A 
ATOM     38  C   UNL     1      61.979  13.332   8.240  0.00  0.00    +0.120 A 
ATOM     39  N   UNL     1      62.814  13.698   9.291  0.00  0.00    -0.263 NA
ATOM     40  C   UNL     1      64.203  13.507   9.253  0.00  0.00    +0.111 A 
ENDBRANCH   4   3
ENDBRANCH  10   9
BRANCH  12  13
ATOM     13  N   UNL     1      55.761   9.075   2.554  0.00  0.00    -0.281 N 
ATOM     14  C   UNL     1      54.753   8.159   2.802  0.00  0.00    +0.248 C 
ATOM     30  O   UNL     1      53.935   8.258   3.705  0.00  0.00    -0.270 OA
ATOM     31  H   UNL     1      56.487   8.778   1.901  0.00  0.00    +0.155 HD
BRANCH  14  15
ATOM     15  C   UNL     1      54.646   6.949   1.931  0.00  0.00    +0.037 A 
ATOM     16  C   UNL     1      54.139   7.043   0.560  0.00  0.00    +0.013 A 
ATOM     17  C   UNL     1      54.030   5.858  -0.254  0.00  0.00    +0.005 A 
ATOM     18  C   UNL     1      54.430   4.568   0.303  0.00  0.00    -0.033 A 
ATOM     28  C   UNL     1      54.934   4.504   1.665  0.00  0.00    +0.005 A 
ATOM     29  C   UNL     1      55.041   5.663   2.466  0.00  0.00    +0.013 A 
BRANCH  18  19
ATOM     19  C   UNL     1      54.328   3.248  -0.485  0.00  0.00    +0.119 C 
BRANCH  19  20
ATOM     20  N   UNL     1      55.529   2.823  -1.265  0.00  0.00    -0.302 NA
ATOM     21  C   UNL     1      56.728   2.532  -0.359  0.00  0.00    +0.066 C 
ATOM     22  C   UNL     1      57.969   2.067  -1.189  0.00  0.00    -0.064 C 
ATOM     23  N   UNL     1      58.318   3.138  -2.223  0.00  0.00    +0.379 N 
ATOM     24  C   UNL     1      59.519   2.730  -2.966  0.00  0.00    -0.096 C 
ATOM     25  H   UNL     1      58.565   4.074  -1.670  0.00  0.00    -0.082 HD
ATOM     26  C   UNL     1      57.130   3.435  -3.126  0.00  0.00    -0.064 C 
ATOM     27  C   UNL     1      55.894   3.869  -2.289  0.00  0.00    +0.066 C 
ENDBRANCH  19  20
ENDBRANCH  18  19
ENDBRANCH  14  15
ENDBRANCH  12  13
TORSDOF 6
ENDMDL
MODEL 2
REMARK VINA RESULT:      -8.7      7.816     14.224
REMARK  Name = C:\Users\Docking\Desktop\test protocol\1iep_ligandH.pdb
REMARK  8 active torsions:
REMARK  status: ('A' for Active; 'I' for Inactive)
REMARK    1  A    between atoms: _5  and  _11
REMARK    2  A    between atoms: _19  and  _21
REMARK    3  A    between atoms: _22  and  _66
REMARK    4  A    between atoms: _27  and  _30
REMARK    5  A    between atoms: _32  and  _33
REMARK    6  A    between atoms: _38  and  _43
REMARK    7  A    between atoms: _43  and  _46
REMARK    8  A    between atoms: _53  and  _55
REMARK                            x       y       z     vdW  Elec       q    Type
REMARK                         _______ _______ _______ _____ _____    ______ ____
ROOT
ATOM     10  C   UNL     1      61.435  13.442   6.482  0.00  0.00    +0.038 A 
ATOM     11  C   UNL     1      61.472  14.858   6.418  0.00  0.00    +0.047 A 
ATOM     12  C   UNL     1      61.009  15.571   5.238  0.00  0.00    +0.035 A 
ATOM     32  C   UNL     1      60.511  14.809   4.141  0.00  0.00    +0.024 A 
ATOM     33  C   UNL     1      60.467  13.368   4.188  0.00  0.00    +0.007 A 
ATOM     34  C   UNL     1      60.925  12.660   5.349  0.00  0.00    -0.029 A 
ATOM     35  C   UNL     1      60.861  11.115   5.342  0.00  0.00    +0.045 C 
ENDROOT
BRANCH  10   9
ATOM      4  C   UNL     1      64.925  11.511   9.153  0.00  0.00    +0.077 A 
ATOM      5  C   UNL     1      65.915  11.759   8.145  0.00  0.00    +0.048 A 
ATOM      6  C   UNL     1      65.483  12.379   6.950  0.00  0.00    +0.116 A 
ATOM      7  N   UNL     1      64.159  12.721   6.788  0.00  0.00    -0.223 NA
ATOM      8  C   UNL     1      63.229  12.466   7.779  0.00  0.00    +0.220 A 
ATOM      9  N   UNL     1      61.893  12.809   7.640  0.00  0.00    -0.283 N 
ATOM     36  H   UNL     1      61.237  12.598   8.392  0.00  0.00    +0.155 HD
ATOM     37  N   UNL     1      63.615  11.874   8.928  0.00  0.00    -0.214 NA
BRANCH   4   3
ATOM      1  C   UNL     1      66.449   9.201  11.917  0.00  0.00    +0.020 A 
ATOM      2  C   UNL     1      66.196   9.789  10.622  0.00  0.00    +0.013 A 
ATOM      3  C   UNL     1      65.225  10.866  10.470  0.00  0.00    +0.019 A 
ATOM     38  C   UNL     1      64.524  11.329  11.658  0.00  0.00    +0.120 A 
ATOM     39  N   UNL     1      64.788  10.743  12.892  0.00  0.00    -0.263 NA
ATOM     40  C   UNL     1      65.718   9.705  13.050  0.00  0.00    +0.111 A 
ENDBRANCH   4   3
ENDBRANCH  10   9
BRANCH  12  13
ATOM     13  N   UNL     1      61.030  17.007   5.113  0.00  0.00    -0.281 N 
ATOM     14  C   UNL     1      60.304  17.936   5.840  0.00  0.00    +0.248 C 
ATOM     30  O   UNL     1      59.362  17.660   6.568  0.00  0.00    -0.270 OA
ATOM     31  H   UNL     1      61.656  17.385   4.401  0.00  0.00    +0.155 HD
BRANCH  14  15
ATOM     15  C   UNL     1      60.668  19.382   5.732  0.00  0.00    +0.037 A 
ATOM     16  C   UNL     1      60.615  20.268   6.898  0.00  0.00    +0.013 A 
ATOM     17  C   UNL     1      60.954  21.662   6.762  0.00  0.00    +0.005 A 
ATOM     18  C   UNL     1      61.352  22.179   5.455  0.00  0.00    -0.033 A 
ATOM     28  C   UNL     1      61.401  21.276   4.316  0.00  0.00    +0.005 A 
ATOM     29  C   UNL     1      61.068  19.909   4.445  0.00  0.00    +0.013 A 
BRANCH  18  19
ATOM     19  C   UNL     1      61.711  23.657   5.213  0.00  0.00    +0.119 C 
BRANCH  19  20
ATOM     20  N   UNL     1      62.854  24.219   5.993  0.00  0.00    -0.302 NA
ATOM     21  C   UNL     1      63.116  25.688   5.649  0.00  0.00    +0.066 C 
ATOM     22  C   UNL     1      64.300  26.267   6.491  0.00  0.00    -0.064 C 
ATOM     23  N   UNL     1      65.553  25.422   6.251  0.00  0.00    +0.379 N 
ATOM     24  C   UNL     1      66.682  25.998   6.996  0.00  0.00    -0.096 C 
ATOM     25  H   UNL     1      65.798  25.481   5.165  0.00  0.00    -0.082 HD
ATOM     26  C   UNL     1      65.300  23.959   6.588  0.00  0.00    -0.064 C 
ATOM     27  C   UNL     1      64.102  23.402   5.768  0.00  0.00    +0.066 C 
ENDBRANCH  19  20
ENDBRANCH  18  19
ENDBRANCH  14  15
ENDBRANCH  12  13
TORSDOF 6
ENDMDL
MODEL 3
REMARK VINA RESULT:      -8.4      2.752     12.018
REMARK  Name = C:\Users\Docking\Desktop\test protocol\1iep_ligandH.pdb
REMARK  8 active torsions:
REMARK  status: ('A' for Active; 'I' for Inactive)
REMARK    1  A    between atoms: _5  and  _11
REMARK    2  A    between atoms: _19  and  _21
REMARK    3  A    between atoms: _22  and  _66
REMARK    4  A    between atoms: _27  and  _30
REMARK    5  A    between atoms: _32  and  _33
REMARK    6  A    between atoms: _38  and  _43
REMARK    7  A    between atoms: _43  and  _46
REMARK    8  A    between atoms: _53  and  _55
REMARK                            x       y       z     vdW  Elec       q    Type
REMARK                         _______ _______ _______ _____ _____    ______ ____
ROOT
ATOM     10  C   UNL     1      56.457  11.451   3.327  0.00  0.00    +0.038 A 
ATOM     11  C   UNL     1      57.689  11.346   4.022  0.00  0.00    +0.047 A 
ATOM     12  C   UNL     1      58.117  12.376   4.955  0.00  0.00    +0.035 A 
ATOM     32  C   UNL     1      57.264  13.499   5.160  0.00  0.00    +0.024 A 
ATOM     33  C   UNL     1      56.009  13.623   4.462  0.00  0.00    +0.007 A 
ATOM     34  C   UNL     1      55.582  12.611   3.538  0.00  0.00    -0.029 A 
ATOM     35  C   UNL     1      54.229  12.799   2.812  0.00  0.00    +0.045 C 
ENDROOT
BRANCH  10   9
ATOM      4  C   UNL     1      54.153   7.371   2.283  0.00  0.00    +0.077 A 
ATOM      5  C   UNL     1      53.650   7.244   3.621  0.00  0.00    +0.048 A 
ATOM      6  C   UNL     1      54.013   8.245   4.549  0.00  0.00    +0.116 A 
ATOM      7  N   UNL     1      54.820   9.292   4.158  0.00  0.00    -0.223 NA
ATOM      8  C   UNL     1      55.289   9.384   2.860  0.00  0.00    +0.220 A 
ATOM      9  N   UNL     1      56.095  10.433   2.443  0.00  0.00    -0.283 N 
ATOM     36  H   UNL     1      56.427  10.461   1.479  0.00  0.00    +0.155 HD
ATOM     37  N   UNL     1      54.958   8.440   1.955  0.00  0.00    -0.214 NA
BRANCH   4   3
ATOM      1  C   UNL     1      54.150   4.172   0.033  0.00  0.00    +0.020 A 
ATOM      2  C   UNL     1      54.473   5.078   1.112  0.00  0.00    +0.013 A 
ATOM      3  C   UNL     1      53.855   6.395   1.188  0.00  0.00    +0.019 A 
ATOM     38  C   UNL     1      52.907   6.769   0.150  0.00  0.00    +0.120 A 
ATOM     39  N   UNL     1      52.616   5.877  -0.878  0.00  0.00    -0.263 NA
ATOM     40  C   UNL     1      53.206   4.606  -0.963  0.00  0.00    +0.111 A 
ENDBRANCH   4   3
ENDBRANCH  10   9
BRANCH  12  13
ATOM     13  N   UNL     1      59.361  12.327   5.683  0.00  0.00    -0.281 N 
ATOM     14  C   UNL     1      60.566  12.924   5.350  0.00  0.00    +0.248 C 
ATOM     30  O   UNL     1      60.815  13.418   4.260  0.00  0.00    -0.270 OA
ATOM     31  H   UNL     1      59.353  11.786   6.548  0.00  0.00    +0.155 HD
BRANCH  14  15
ATOM     15  C   UNL     1      61.657  12.966   6.371  0.00  0.00    +0.037 A 
ATOM     16  C   UNL     1      61.409  13.459   7.728  0.00  0.00    +0.013 A 
ATOM     17  C   UNL     1      62.483  13.505   8.689  0.00  0.00    +0.005 A 
ATOM     18  C   UNL     1      63.816  13.055   8.295  0.00  0.00    -0.033 A 
ATOM     28  C   UNL     1      64.033  12.566   6.943  0.00  0.00    +0.005 A 
ATOM     29  C   UNL     1      62.983  12.521   5.999  0.00  0.00    +0.013 A 
BRANCH  18  19
ATOM     19  C   UNL     1      65.026  13.089   9.247  0.00  0.00    +0.119 C 
BRANCH  19  20
ATOM     20  N   UNL     1      65.068  12.066  10.335  0.00  0.00    -0.302 NA
ATOM     21  C   UNL     1      64.598  10.692   9.850  0.00  0.00    +0.066 C 
ATOM     22  C   UNL     1      64.670   9.629  10.994  0.00  0.00    -0.064 C 
ATOM     23  N   UNL     1      63.828  10.102  12.180  0.00  0.00    +0.379 N 
ATOM     24  C   UNL     1      63.847   9.078  13.235  0.00  0.00    -0.096 C 
ATOM     25  H   UNL     1      62.775  10.205  11.827  0.00  0.00    -0.082 HD
ATOM     26  C   UNL     1      64.287  11.469  12.667  0.00  0.00    -0.064 C 
ATOM     27  C   UNL     1      64.239  12.511  11.514  0.00  0.00    +0.066 C 
ENDBRANCH  19  20
ENDBRANCH  18  19
ENDBRANCH  14  15
ENDBRANCH  12  13
TORSDOF 6
ENDMDL
MODEL 4
REMARK VINA RESULT:      -8.4      7.652     14.233
REMARK  Name = C:\Users\Docking\Desktop\test protocol\1iep_ligandH.pdb
REMARK  8 active torsions:
REMARK  status: ('A' for Active; 'I' for Inactive)
REMARK    1  A    between atoms: _5  and  _11
REMARK    2  A    between atoms: _19  and  _21
REMARK    3  A    between atoms: _22  and  _66
REMARK    4  A    between atoms: _27  and  _30
REMARK    5  A    between atoms: _32  and  _33
REMARK    6  A    between atoms: _38  and  _43
REMARK    7  A    between atoms: _43  and  _46
REMARK    8  A    between atoms: _53  and  _55
REMARK                            x       y       z     vdW  Elec       q    Type
REMARK                         _______ _______ _______ _____ _____    ______ ____
ROOT
ATOM     10  C   UNL     1      61.332  13.313   6.495  0.00  0.00    +0.038 A 
ATOM     11  C   UNL     1      61.544  14.714   6.437  0.00  0.00    +0.047 A 
ATOM     12  C   UNL     1      61.089  15.498   5.299  0.00  0.00    +0.035 A 
ATOM     32  C   UNL     1      60.418  14.822   4.239  0.00  0.00    +0.024 A 
ATOM     33  C   UNL     1      60.194  13.398   4.281  0.00  0.00    +0.007 A 
ATOM     34  C   UNL     1      60.643  12.620   5.400  0.00  0.00    -0.029 A 
ATOM     35  C   UNL     1      60.382  11.096   5.389  0.00  0.00    +0.045 C 
ENDROOT
BRANCH  10   9
ATOM      4  C   UNL     1      64.827  11.246   9.055  0.00  0.00    +0.077 A 
ATOM      5  C   UNL     1      65.820  11.571   8.071  0.00  0.00    +0.048 A 
ATOM      6  C   UNL     1      65.389  12.264   6.918  0.00  0.00    +0.116 A 
ATOM      7  N   UNL     1      64.061  12.603   6.770  0.00  0.00    -0.223 NA
ATOM      8  C   UNL     1      63.129  12.273   7.736  0.00  0.00    +0.220 A 
ATOM      9  N   UNL     1      61.790  12.610   7.612  0.00  0.00    -0.283 N 
ATOM     36  H   UNL     1      61.132  12.342   8.344  0.00  0.00    +0.155 HD
ATOM     37  N   UNL     1      63.515  11.610   8.846  0.00  0.00    -0.214 NA
BRANCH   4   3
ATOM      1  C   UNL     1      66.184   8.636  11.632  0.00  0.00    +0.020 A 
ATOM      2  C   UNL     1      65.923   9.299  10.375  0.00  0.00    +0.013 A 
ATOM      3  C   UNL     1      65.127  10.519  10.328  0.00  0.00    +0.019 A 
ATOM     38  C   UNL     1      64.607  11.046  11.581  0.00  0.00    +0.120 A 
ATOM     39  N   UNL     1      64.873  10.385  12.776  0.00  0.00    -0.263 NA
ATOM     40  C   UNL     1      65.637   9.209  12.833  0.00  0.00    +0.111 A 
ENDBRANCH   4   3
ENDBRANCH  10   9
BRANCH  12  13
ATOM     13  N   UNL     1      61.284  16.922   5.181  0.00  0.00    -0.281 N 
ATOM     14  C   UNL     1      60.399  17.933   5.516  0.00  0.00    +0.248 C 
ATOM     30  O   UNL     1      59.216  17.760   5.771  0.00  0.00    -0.270 OA
ATOM     31  H   UNL     1      62.184  17.220   4.804  0.00  0.00    +0.155 HD
BRANCH  14  15
ATOM     15  C   UNL     1      60.896  19.342   5.561  0.00  0.00    +0.037 A 
ATOM     16  C   UNL     1      61.248  20.063   4.335  0.00  0.00    +0.013 A 
ATOM     17  C   UNL     1      61.741  21.415   4.407  0.00  0.00    +0.005 A 
ATOM     18  C   UNL     1      61.883  22.057   5.712  0.00  0.00    -0.033 A 
ATOM     28  C   UNL     1      61.521  21.321   6.912  0.00  0.00    +0.005 A 
ATOM     29  C   UNL     1      61.039  19.994   6.845  0.00  0.00    +0.013 A 
BRANCH  18  19
ATOM     19  C   UNL     1      62.421  23.490   5.885  0.00  0.00    +0.119 C 
BRANCH  19  20
ATOM     20  N   UNL     1      61.708  24.581   5.156  0.00  0.00    -0.302 NA
ATOM     21  C   UNL     1      62.547  25.859   5.072  0.00  0.00    +0.066 C 
ATOM     22  C   UNL     1      61.795  26.982   4.286  0.00  0.00    -0.064 C 
ATOM     23  N   UNL     1      60.451  27.260   4.961  0.00  0.00    +0.379 N 
ATOM     24  C   UNL     1      59.767  28.356   4.260  0.00  0.00    -0.096 C 
ATOM     25  H   UNL     1      60.659  27.603   6.002  0.00  0.00    -0.082 HD
ATOM     26  C   UNL     1      59.611  25.994   5.052  0.00  0.00    -0.064 C 
ATOM     27  C   UNL     1      60.379  24.874   5.809  0.00  0.00    +0.066 C 
ENDBRANCH  19  20
ENDBRANCH  18  19
ENDBRANCH  14  15
ENDBRANCH  12  13
TORSDOF 6
ENDMDL
MODEL 5
REMARK VINA RESULT:      -8.2      6.346     14.360
REMARK  Name = C:\Users\Docking\Desktop\test protocol\1iep_ligandH.pdb
REMARK  8 active torsions:
REMARK  status: ('A' for Active; 'I' for Inactive)
REMARK    1  A    between atoms: _5  and  _11
REMARK    2  A    between atoms: _19  and  _21
REMARK    3  A    between atoms: _22  and  _66
REMARK    4  A    between atoms: _27  and  _30
REMARK    5  A    between atoms: _32  and  _33
REMARK    6  A    between atoms: _38  and  _43
REMARK    7  A    between atoms: _43  and  _46
REMARK    8  A    between atoms: _53  and  _55
REMARK                            x       y       z     vdW  Elec       q    Type
REMARK                         _______ _______ _______ _____ _____    ______ ____
ROOT
ATOM     10  C   UNL     1      59.407  12.008   4.935  0.00  0.00    +0.038 A 
ATOM     11  C   UNL     1      59.574  13.367   4.563  0.00  0.00    +0.047 A 
ATOM     12  C   UNL     1      60.322  14.290   5.402  0.00  0.00    +0.035 A 
ATOM     32  C   UNL     1      60.890  13.795   6.612  0.00  0.00    +0.024 A 
ATOM     33  C   UNL     1      60.729  12.417   7.005  0.00  0.00    +0.007 A 
ATOM     34  C   UNL     1      59.990  11.502   6.183  0.00  0.00    -0.029 A 
ATOM     35  C   UNL     1      59.845  10.038   6.658  0.00  0.00    +0.045 C 
ENDROOT
BRANCH  10   9
ATOM      4  C   UNL     1      55.275  10.160   3.338  0.00  0.00    +0.077 A 
ATOM      5  C   UNL     1      54.504  10.916   4.282  0.00  0.00    +0.048 A 
ATOM      6  C   UNL     1      55.209  11.764   5.165  0.00  0.00    +0.116 A 
ATOM      7  N   UNL     1      56.583  11.842   5.100  0.00  0.00    -0.223 NA
ATOM      8  C   UNL     1      57.297  11.097   4.179  0.00  0.00    +0.220 A 
ATOM      9  N   UNL     1      58.679  11.166   4.091  0.00  0.00    -0.283 N 
ATOM     36  H   UNL     1      59.169  10.595   3.403  0.00  0.00    +0.155 HD
ATOM     37  N   UNL     1      56.647  10.279   3.326  0.00  0.00    -0.214 NA
BRANCH   4   3
ATOM      1  C   UNL     1      54.413   6.947   1.280  0.00  0.00    +0.020 A 
ATOM      2  C   UNL     1      55.023   7.809   2.266  0.00  0.00    +0.013 A 
ATOM      3  C   UNL     1      54.674   9.223   2.337  0.00  0.00    +0.019 A 
ATOM     38  C   UNL     1      53.697   9.736   1.389  0.00  0.00    +0.120 A 
ATOM     39  N   UNL     1      53.128   8.883   0.449  0.00  0.00    -0.263 NA
ATOM     40  C   UNL     1      53.456   7.521   0.370  0.00  0.00    +0.111 A 
ENDBRANCH   4   3
ENDBRANCH  10   9
BRANCH  12  13
ATOM     13  N   UNL     1      60.517  15.682   5.081  0.00  0.00    -0.281 N 
ATOM     14  C   UNL     1      59.908  16.783   5.659  0.00  0.00    +0.248 C 
ATOM     30  O   UNL     1      58.937  16.727   6.400  0.00  0.00    -0.270 OA
ATOM     31  H   UNL     1      61.186  15.880   4.336  0.00  0.00    +0.155 HD
BRANCH  14  15
ATOM     15  C   UNL     1      60.444  18.146   5.360  0.00  0.00    +0.037 A 
ATOM     16  C   UNL     1      60.575  19.159   6.411  0.00  0.00    +0.013 A 
ATOM     17  C   UNL     1      61.080  20.471   6.092  0.00  0.00    +0.005 A 
ATOM     18  C   UNL     1      61.459  20.777   4.714  0.00  0.00    -0.033 A 
ATOM     28  C   UNL     1      61.324  19.752   3.693  0.00  0.00    +0.005 A 
ATOM     29  C   UNL     1      60.829  18.465   4.001  0.00  0.00    +0.013 A 
BRANCH  18  19
ATOM     19  C   UNL     1      61.987  22.157   4.280  0.00  0.00    +0.119 C 
BRANCH  19  20
ATOM     20  N   UNL     1      62.436  23.088   5.357  0.00  0.00    -0.302 NA
ATOM     21  C   UNL     1      62.103  24.547   5.031  0.00  0.00    +0.066 C 
ATOM     22  C   UNL     1      62.558  25.505   6.180  0.00  0.00    -0.064 C 
ATOM     23  N   UNL     1      64.059  25.332   6.418  0.00  0.00    +0.379 N 
ATOM     24  C   UNL     1      64.502  26.273   7.458  0.00  0.00    -0.096 C 
ATOM     25  H   UNL     1      64.585  25.601   5.473  0.00  0.00    -0.082 HD
ATOM     26  C   UNL     1      64.400  23.884   6.741  0.00  0.00    -0.064 C 
ATOM     27  C   UNL     1      63.916  22.937   5.607  0.00  0.00    +0.066 C 
ENDBRANCH  19  20
ENDBRANCH  18  19
ENDBRANCH  14  15
ENDBRANCH  12  13
TORSDOF 6
ENDMDL
