MODEL 1
REMARK VINA RESULT:      -8.5      0.000      0.000
REMARK  Name = C:\Users\Docking\Desktop\test protocol\1iep_ligandH.pdb
REMARK  8 active torsions:
REMARK  status: ('A' for Active; 'I' for Inactive)
REMARK    1  A    between atoms: _5  and  _11
REMARK    2  A    between atoms: _19  and  _21
REMARK    3  A    between atoms: _22  and  _66
REMARK    4  A    between atoms: _27  and  _30
REMARK    5  A    between atoms: _32  and  _33
REMARK    6  A    between atoms: _38  and  _43
REMARK    7  A    between atoms: _43  and  _46
REMARK    8  A    between atoms: _53  and  _55
REMARK                            x       y       z     vdW  Elec       q    Type
REMARK                         _______ _______ _______ _____ _____    ______ ____
ROOT
ATOM     10  C   UNL     1       4.621  -7.981   8.472  0.00  0.00    +0.038 A 
ATOM     11  C   UNL     1       4.939  -6.833   7.703  0.00  0.00    +0.047 A 
ATOM     12  C   UNL     1       6.215  -6.719   7.013  0.00  0.00    +0.035 A 
ATOM     32  C   UNL     1       7.142  -7.796   7.127  0.00  0.00    +0.024 A 
ATOM     33  C   UNL     1       6.835  -8.970   7.906  0.00  0.00    +0.007 A 
ATOM     34  C   UNL     1       5.579  -9.086   8.590  0.00  0.00    -0.029 A 
ATOM     35  C   UNL     1       5.306 -10.365   9.416  0.00  0.00    +0.045 C 
ENDROOT
BRANCH  10   9
ATOM      4  C   UNL     1      -0.058  -9.047   8.553  0.00  0.00    +0.077 A 
ATOM      5  C   UNL     1      -0.037  -9.507   7.194  0.00  0.00    +0.048 A 
ATOM      6  C   UNL     1       1.196  -9.446   6.507  0.00  0.00    +0.116 A 
ATOM      7  N   UNL     1       2.318  -8.959   7.142  0.00  0.00    -0.223 NA
ATOM      8  C   UNL     1       2.263  -8.522   8.453  0.00  0.00    +0.220 A 
ATOM      9  N   UNL     1       3.381  -8.037   9.113  0.00  0.00    -0.283 N 
ATOM     36  H   UNL     1       3.297  -7.717  10.078  0.00  0.00    +0.155 HD
ATOM     37  N   UNL     1       1.097  -8.569   9.130  0.00  0.00    -0.214 NA
BRANCH   4   3
ATOM      1  C   UNL     1      -3.751  -9.429   9.785  0.00  0.00    +0.020 A 
ATOM      2  C   UNL     1      -2.598  -9.442   8.914  0.00  0.00    +0.013 A 
ATOM      3  C   UNL     1      -1.285  -9.052   9.411  0.00  0.00    +0.019 A 
ATOM     38  C   UNL     1      -1.171  -8.652  10.806  0.00  0.00    +0.120 A 
ATOM     39  N   UNL     1      -2.299  -8.648  11.621  0.00  0.00    -0.263 NA
ATOM     40  C   UNL     1      -3.568  -9.020  11.153  0.00  0.00    +0.111 A 
ENDBRANCH   4   3
ENDBRANCH  10   9
BRANCH  12  13
ATOM     13  N   UNL     1       6.598  -5.575   6.224  0.00  0.00    -0.281 N 
ATOM     14  C   UNL     1       7.616  -4.669   6.475  0.00  0.00    +0.248 C 
ATOM     30  O   UNL     1       8.219  -4.583   7.534  0.00  0.00    -0.270 OA
ATOM     31  H   UNL     1       6.052  -5.412   5.378  0.00  0.00    +0.155 HD
BRANCH  14  15
ATOM     15  C   UNL     1       8.011  -3.711   5.398  0.00  0.00    +0.037 A 
ATOM     16  C   UNL     1       8.407  -2.336   5.712  0.00  0.00    +0.013 A 
ATOM     17  C   UNL     1       8.768  -1.427   4.653  0.00  0.00    +0.005 A 
ATOM     18  C   UNL     1       8.736  -1.893   3.268  0.00  0.00    -0.033 A 
ATOM     28  C   UNL     1       8.345  -3.264   2.985  0.00  0.00    +0.005 A 
ATOM     29  C   UNL     1       7.990  -4.157   4.021  0.00  0.00    +0.013 A 
BRANCH  18  19
ATOM     19  C   UNL     1       9.084  -0.986   2.073  0.00  0.00    +0.119 C 
BRANCH  19  20
ATOM     20  N   UNL     1      10.406  -0.291   2.105  0.00  0.00    -0.302 NA
ATOM     21  C   UNL     1      10.483   0.843   1.079  0.00  0.00    +0.066 C 
ATOM     22  C   UNL     1      11.864   1.574   1.141  0.00  0.00    -0.064 C 
ATOM     23  N   UNL     1      12.985   0.559   0.912  0.00  0.00    +0.379 N 
ATOM     24  C   UNL     1      14.282   1.253   0.912  0.00  0.00    -0.096 C 
ATOM     25  H   UNL     1      12.839   0.116  -0.101  0.00  0.00    -0.082 HD
ATOM     26  C   UNL     1      12.914  -0.573   1.926  0.00  0.00    -0.064 C 
ATOM     27  C   UNL     1      11.528  -1.274   1.876  0.00  0.00    +0.066 C 
ENDBRANCH  19  20
ENDBRANCH  18  19
ENDBRANCH  14  15
ENDBRANCH  12  13
TORSDOF 6
ENDMDL
MODEL 2
REMARK VINA RESULT:      -8.4      7.538     16.224
REMARK  Name = C:\Users\Docking\Desktop\test protocol\1iep_ligandH.pdb
REMARK  8 active torsions:
REMARK  status: ('A' for Active; 'I' for Inactive)
REMARK    1  A    between atoms: _5  and  _11
REMARK    2  A    between atoms: _19  and  _21
REMARK    3  A    between atoms: _22  and  _66
REMARK    4  A    between atoms: _27  and  _30
REMARK    5  A    between atoms: _32  and  _33
REMARK    6  A    between atoms: _38  and  _43
REMARK    7  A    between atoms: _43  and  _46
REMARK    8  A    between atoms: _53  and  _55
REMARK                            x       y       z     vdW  Elec       q    Type
REMARK                         _______ _______ _______ _____ _____    ______ ____
ROOT
ATOM     10  C   UNL     1       3.639  -6.477  12.988  0.00  0.00    +0.038 A 
ATOM     11  C   UNL     1       2.599  -6.992  13.804  0.00  0.00    +0.047 A 
ATOM     12  C   UNL     1       2.690  -6.948  15.255  0.00  0.00    +0.035 A 
ATOM     32  C   UNL     1       3.853  -6.369  15.842  0.00  0.00    +0.024 A 
ATOM     33  C   UNL     1       4.920  -5.843  15.027  0.00  0.00    +0.007 A 
ATOM     34  C   UNL     1       4.837  -5.886  13.595  0.00  0.00    -0.029 A 
ATOM     35  C   UNL     1       6.013  -5.312  12.772  0.00  0.00    +0.045 C 
ENDROOT
BRANCH  10   9
ATOM      4  C   UNL     1       4.112  -8.762   8.793  0.00  0.00    +0.077 A 
ATOM      5  C   UNL     1       4.713  -9.906   9.417  0.00  0.00    +0.048 A 
ATOM      6  C   UNL     1       4.888  -9.864  10.818  0.00  0.00    +0.116 A 
ATOM      7  N   UNL     1       4.489  -8.755  11.533  0.00  0.00    -0.223 NA
ATOM      8  C   UNL     1       3.915  -7.668  10.900  0.00  0.00    +0.220 A 
ATOM      9  N   UNL     1       3.499  -6.545  11.599  0.00  0.00    -0.283 N 
ATOM     36  H   UNL     1       3.087  -5.761  11.095  0.00  0.00    +0.155 HD
ATOM     37  N   UNL     1       3.738  -7.683   9.562  0.00  0.00    -0.214 NA
BRANCH   4   3
ATOM      1  C   UNL     1       2.618  -9.290   5.217  0.00  0.00    +0.020 A 
ATOM      2  C   UNL     1       2.824  -9.428   6.640  0.00  0.00    +0.013 A 
ATOM      3  C   UNL     1       3.857  -8.658   7.322  0.00  0.00    +0.019 A 
ATOM     38  C   UNL     1       4.670  -7.749   6.528  0.00  0.00    +0.120 A 
ATOM     39  N   UNL     1       4.450  -7.638   5.159  0.00  0.00    -0.263 NA
ATOM     40  C   UNL     1       3.460  -8.375   4.492  0.00  0.00    +0.111 A 
ENDBRANCH   4   3
ENDBRANCH  10   9
BRANCH  12  13
ATOM     13  N   UNL     1       1.670  -7.462  16.134  0.00  0.00    -0.281 N 
ATOM     14  C   UNL     1       1.605  -8.714  16.724  0.00  0.00    +0.248 C 
ATOM     30  O   UNL     1       2.310  -9.662  16.411  0.00  0.00    -0.270 OA
ATOM     31  H   UNL     1       0.902  -6.826  16.349  0.00  0.00    +0.155 HD
BRANCH  14  15
ATOM     15  C   UNL     1       0.603  -8.952  17.806  0.00  0.00    +0.037 A 
ATOM     16  C   UNL     1       0.379  -7.964  18.865  0.00  0.00    +0.013 A 
ATOM     17  C   UNL     1      -0.582  -8.226  19.907  0.00  0.00    +0.005 A 
ATOM     18  C   UNL     1      -1.328  -9.482  19.894  0.00  0.00    -0.033 A 
ATOM     28  C   UNL     1      -1.090 -10.442  18.829  0.00  0.00    +0.005 A 
ATOM     29  C   UNL     1      -0.148 -10.189  17.807  0.00  0.00    +0.013 A 
BRANCH  18  19
ATOM     19  C   UNL     1      -2.358  -9.854  20.977  0.00  0.00    +0.119 C 
BRANCH  19  20
ATOM     20  N   UNL     1      -2.253 -11.216  21.581  0.00  0.00    -0.302 NA
ATOM     21  C   UNL     1      -3.596 -11.706  22.129  0.00  0.00    +0.066 C 
ATOM     22  C   UNL     1      -3.474 -13.142  22.736  0.00  0.00    -0.064 C 
ATOM     23  N   UNL     1      -2.409 -13.139  23.834  0.00  0.00    +0.379 N 
ATOM     24  C   UNL     1      -2.332 -14.473  24.447  0.00  0.00    -0.096 C 
ATOM     25  H   UNL     1      -2.739 -12.423  24.623  0.00  0.00    -0.082 HD
ATOM     26  C   UNL     1      -1.071 -12.650  23.298  0.00  0.00    -0.064 C 
ATOM     27  C   UNL     1      -1.210 -11.235  22.671  0.00  0.00    +0.066 C 
ENDBRANCH  19  20
ENDBRANCH  18  19
ENDBRANCH  14  15
ENDBRANCH  12  13
TORSDOF 6
ENDMDL
MODEL 3
REMARK VINA RESULT:      -8.4      6.559     10.885
REMARK  Name = C:\Users\Docking\Desktop\test protocol\1iep_ligandH.pdb
REMARK  8 active torsions:
REMARK  status: ('A' for Active; 'I' for Inactive)
REMARK    1  A    between atoms: _5  and  _11
REMARK    2  A    between atoms: _19  and  _21
REMARK    3  A    between atoms: _22  and  _66
REMARK    4  A    between atoms: _27  and  _30
REMARK    5  A    between atoms: _32  and  _33
REMARK    6  A    between atoms: _38  and  _43
REMARK    7  A    between atoms: _43  and  _46
REMARK    8  A    between atoms: _53  and  _55
REMARK                            x       y       z     vdW  Elec       q    Type
REMARK                         _______ _______ _______ _____ _____    ______ ____
ROOT
ATOM     10  C   UNL     1       1.841 -10.607  16.030  0.00  0.00    +0.038 A 
ATOM     11  C   UNL     1       1.466 -10.662  14.664  0.00  0.00    +0.047 A 
ATOM     12  C   UNL     1       2.302 -10.071  13.630  0.00  0.00    +0.035 A 
ATOM     32  C   UNL     1       3.515  -9.434  14.023  0.00  0.00    +0.024 A 
ATOM     33  C   UNL     1       3.911  -9.368  15.408  0.00  0.00    +0.007 A 
ATOM     34  C   UNL     1       3.090  -9.947  16.433  0.00  0.00    -0.029 A 
ATOM     35  C   UNL     1       3.561  -9.841  17.902  0.00  0.00    +0.045 C 
ENDROOT
BRANCH  10   9
ATOM      4  C   UNL     1      -1.623 -10.354  19.343  0.00  0.00    +0.077 A 
ATOM      5  C   UNL     1      -1.752  -8.934  19.184  0.00  0.00    +0.048 A 
ATOM      6  C   UNL     1      -0.904  -8.306  18.245  0.00  0.00    +0.116 A 
ATOM      7  N   UNL     1       0.003  -9.052  17.524  0.00  0.00    -0.223 NA
ATOM      8  C   UNL     1       0.103 -10.420  17.702  0.00  0.00    +0.220 A 
ATOM      9  N   UNL     1       1.002 -11.191  16.981  0.00  0.00    -0.283 N 
ATOM     36  H   UNL     1       1.050 -12.196  17.147  0.00  0.00    +0.155 HD
ATOM     37  N   UNL     1      -0.695 -11.043  18.594  0.00  0.00    -0.214 NA
BRANCH   4   3
ATOM      1  C   UNL     1      -4.359 -12.725  20.825  0.00  0.00    +0.020 A 
ATOM      2  C   UNL     1      -3.592 -11.962  19.867  0.00  0.00    +0.013 A 
ATOM      3  C   UNL     1      -2.451 -11.162  20.293  0.00  0.00    +0.019 A 
ATOM     38  C   UNL     1      -2.109 -11.156  21.707  0.00  0.00    +0.120 A 
ATOM     39  N   UNL     1      -2.866 -11.899  22.607  0.00  0.00    -0.263 NA
ATOM     40  C   UNL     1      -3.968 -12.671  22.209  0.00  0.00    +0.111 A 
ENDBRANCH   4   3
ENDBRANCH  10   9
BRANCH  12  13
ATOM     13  N   UNL     1       1.968 -10.088  12.227  0.00  0.00    -0.281 N 
ATOM     14  C   UNL     1       0.784  -9.691  11.628  0.00  0.00    +0.248 C 
ATOM     30  O   UNL     1      -0.252  -9.458  12.233  0.00  0.00    -0.270 OA
ATOM     31  H   UNL     1       2.693 -10.436  11.599  0.00  0.00    +0.155 HD
BRANCH  14  15
ATOM     15  C   UNL     1       0.741  -9.544  10.141  0.00  0.00    +0.037 A 
ATOM     16  C   UNL     1      -0.382 -10.068   9.359  0.00  0.00    +0.013 A 
ATOM     17  C   UNL     1      -0.390  -9.929   7.924  0.00  0.00    +0.005 A 
ATOM     18  C   UNL     1       0.728  -9.260   7.263  0.00  0.00    -0.033 A 
ATOM     28  C   UNL     1       1.825  -8.745   8.064  0.00  0.00    +0.005 A 
ATOM     29  C   UNL     1       1.838  -8.881   9.470  0.00  0.00    +0.013 A 
BRANCH  18  19
ATOM     19  C   UNL     1       0.812  -9.085   5.735  0.00  0.00    +0.119 C 
BRANCH  19  20
ATOM     20  N   UNL     1       2.174  -9.071   5.122  0.00  0.00    -0.302 NA
ATOM     21  C   UNL     1       2.693  -7.646   4.909  0.00  0.00    +0.066 C 
ATOM     22  C   UNL     1       4.128  -7.650   4.288  0.00  0.00    -0.064 C 
ATOM     23  N   UNL     1       4.108  -8.423   2.968  0.00  0.00    +0.379 N 
ATOM     24  C   UNL     1       5.443  -8.379   2.354  0.00  0.00    -0.096 C 
ATOM     25  H   UNL     1       3.402  -7.900   2.282  0.00  0.00    -0.082 HD
ATOM     26  C   UNL     1       3.590  -9.840   3.171  0.00  0.00    -0.064 C 
ATOM     27  C   UNL     1       2.176  -9.825   3.815  0.00  0.00    +0.066 C 
ENDBRANCH  19  20
ENDBRANCH  18  19
ENDBRANCH  14  15
ENDBRANCH  12  13
TORSDOF 6
ENDMDL
MODEL 4
REMARK VINA RESULT:      -8.4      1.479      2.269
REMARK  Name = C:\Users\Docking\Desktop\test protocol\1iep_ligandH.pdb
REMARK  8 active torsions:
REMARK  status: ('A' for Active; 'I' for Inactive)
REMARK    1  A    between atoms: _5  and  _11
REMARK    2  A    between atoms: _19  and  _21
REMARK    3  A    between atoms: _22  and  _66
REMARK    4  A    between atoms: _27  and  _30
REMARK    5  A    between atoms: _32  and  _33
REMARK    6  A    between atoms: _38  and  _43
REMARK    7  A    between atoms: _43  and  _46
REMARK    8  A    between atoms: _53  and  _55
REMARK                            x       y       z     vdW  Elec       q    Type
REMARK                         _______ _______ _______ _____ _____    ______ ____
ROOT
ATOM     10  C   UNL     1       4.616  -8.144   8.572  0.00  0.00    +0.038 A 
ATOM     11  C   UNL     1       4.953  -7.053   7.731  0.00  0.00    +0.047 A 
ATOM     12  C   UNL     1       6.243  -6.989   7.061  0.00  0.00    +0.035 A 
ATOM     32  C   UNL     1       7.166  -8.055   7.269  0.00  0.00    +0.024 A 
ATOM     33  C   UNL     1       6.841  -9.171   8.122  0.00  0.00    +0.007 A 
ATOM     34  C   UNL     1       5.571  -9.239   8.786  0.00  0.00    -0.029 A 
ATOM     35  C   UNL     1       5.278 -10.457   9.694  0.00  0.00    +0.045 C 
ENDROOT
BRANCH  10   9
ATOM      4  C   UNL     1      -0.087  -9.098   8.586  0.00  0.00    +0.077 A 
ATOM      5  C   UNL     1      -0.052  -9.592   7.240  0.00  0.00    +0.048 A 
ATOM      6  C   UNL     1       1.196  -9.577   6.576  0.00  0.00    +0.116 A 
ATOM      7  N   UNL     1       2.317  -9.102   7.221  0.00  0.00    -0.223 NA
ATOM      8  C   UNL     1       2.247  -8.631   8.519  0.00  0.00    +0.220 A 
ATOM      9  N   UNL     1       3.364  -8.155   9.189  0.00  0.00    -0.283 N 
ATOM     36  H   UNL     1       3.269  -7.809  10.144  0.00  0.00    +0.155 HD
ATOM     37  N   UNL     1       1.068  -8.633   9.174  0.00  0.00    -0.214 NA
BRANCH   4   3
ATOM      1  C   UNL     1      -3.822  -9.285   9.734  0.00  0.00    +0.020 A 
ATOM      2  C   UNL     1      -2.654  -9.343   8.886  0.00  0.00    +0.013 A 
ATOM      3  C   UNL     1      -1.330  -9.052   9.420  0.00  0.00    +0.019 A 
ATOM     38  C   UNL     1      -1.221  -8.705  10.829  0.00  0.00    +0.120 A 
ATOM     39  N   UNL     1      -2.363  -8.656  11.622  0.00  0.00    -0.263 NA
ATOM     40  C   UNL     1      -3.643  -8.931  11.118  0.00  0.00    +0.111 A 
ENDBRANCH   4   3
ENDBRANCH  10   9
BRANCH  12  13
ATOM     13  N   UNL     1       6.643  -5.902   6.202  0.00  0.00    -0.281 N 
ATOM     14  C   UNL     1       7.223  -4.698   6.566  0.00  0.00    +0.248 C 
ATOM     30  O   UNL     1       7.289  -4.282   7.714  0.00  0.00    -0.270 OA
ATOM     31  H   UNL     1       6.480  -6.037   5.204  0.00  0.00    +0.155 HD
BRANCH  14  15
ATOM     15  C   UNL     1       7.799  -3.822   5.501  0.00  0.00    +0.037 A 
ATOM     16  C   UNL     1       7.985  -4.312   4.133  0.00  0.00    +0.013 A 
ATOM     17  C   UNL     1       8.559  -3.452   3.128  0.00  0.00    +0.005 A 
ATOM     18  C   UNL     1       8.949  -2.091   3.488  0.00  0.00    -0.033 A 
ATOM     28  C   UNL     1       8.748  -1.629   4.852  0.00  0.00    +0.005 A 
ATOM     29  C   UNL     1       8.187  -2.469   5.839  0.00  0.00    +0.013 A 
BRANCH  18  19
ATOM     19  C   UNL     1       9.587  -1.112   2.486  0.00  0.00    +0.119 C 
BRANCH  19  20
ATOM     20  N   UNL     1       8.832  -0.829   1.230  0.00  0.00    -0.302 NA
ATOM     21  C   UNL     1       9.236  -1.770   0.092  0.00  0.00    +0.066 C 
ATOM     22  C   UNL     1       8.420  -1.475  -1.209  0.00  0.00    -0.064 C 
ATOM     23  N   UNL     1       8.624  -0.015  -1.615  0.00  0.00    +0.379 N 
ATOM     24  C   UNL     1       7.904   0.250  -2.870  0.00  0.00    -0.096 C 
ATOM     25  H   UNL     1       9.711   0.132  -1.812  0.00  0.00    -0.082 HD
ATOM     26  C   UNL     1       8.226   0.928  -0.488  0.00  0.00    -0.064 C 
ATOM     27  C   UNL     1       9.022   0.607   0.807  0.00  0.00    +0.066 C 
ENDBRANCH  19  20
ENDBRANCH  18  19
ENDBRANCH  14  15
ENDBRANCH  12  13
TORSDOF 6
ENDMDL
MODEL 5
REMARK VINA RESULT:      -8.3      5.773      8.167
REMARK  Name = C:\Users\Docking\Desktop\test protocol\1iep_ligandH.pdb
REMARK  8 active torsions:
REMARK  status: ('A' for Active; 'I' for Inactive)
REMARK    1  A    between atoms: _5  and  _11
REMARK    2  A    between atoms: _19  and  _21
REMARK    3  A    between atoms: _22  and  _66
REMARK    4  A    between atoms: _27  and  _30
REMARK    5  A    between atoms: _32  and  _33
REMARK    6  A    between atoms: _38  and  _43
REMARK    7  A    between atoms: _43  and  _46
REMARK    8  A    between atoms: _53  and  _55
REMARK                            x       y       z     vdW  Elec       q    Type
REMARK                         _______ _______ _______ _____ _____    ______ ____
ROOT
ATOM     10  C   UNL     1       0.619  -8.480  10.205  0.00  0.00    +0.038 A 
ATOM     11  C   UNL     1       1.570  -8.477   9.154  0.00  0.00    +0.047 A 
ATOM     12  C   UNL     1       1.198  -8.860   7.801  0.00  0.00    +0.035 A 
ATOM     32  C   UNL     1      -0.154  -9.238   7.553  0.00  0.00    +0.024 A 
ATOM     33  C   UNL     1      -1.134  -9.247   8.611  0.00  0.00    +0.007 A 
ATOM     34  C   UNL     1      -0.772  -8.873   9.948  0.00  0.00    -0.029 A 
ATOM     35  C   UNL     1      -1.863  -8.908  11.043  0.00  0.00    +0.045 C 
ENDROOT
BRANCH  10   9
ATOM      4  C   UNL     1       2.219  -9.511  14.611  0.00  0.00    +0.077 A 
ATOM      5  C   UNL     1       2.207 -10.921  14.350  0.00  0.00    +0.048 A 
ATOM      6  C   UNL     1       1.775 -11.341  13.071  0.00  0.00    +0.116 A 
ATOM      7  N   UNL     1       1.387 -10.410  12.132  0.00  0.00    -0.223 NA
ATOM      8  C   UNL     1       1.409  -9.057  12.417  0.00  0.00    +0.220 A 
ATOM      9  N   UNL     1       1.031  -8.103  11.485  0.00  0.00    -0.283 N 
ATOM     36  H   UNL     1       1.054  -7.115  11.737  0.00  0.00    +0.155 HD
ATOM     37  N   UNL     1       1.816  -8.631  13.631  0.00  0.00    -0.214 NA
BRANCH   4   3
ATOM      1  C   UNL     1       3.602  -9.078  18.244  0.00  0.00    +0.020 A 
ATOM      2  C   UNL     1       3.198  -9.705  17.007  0.00  0.00    +0.013 A 
ATOM      3  C   UNL     1       2.652  -8.912  15.913  0.00  0.00    +0.019 A 
ATOM     38  C   UNL     1       2.527  -7.475  16.105  0.00  0.00    +0.120 A 
ATOM     39  N   UNL     1       2.923  -6.899  17.308  0.00  0.00    -0.263 NA
ATOM     40  C   UNL     1       3.448  -7.652  18.368  0.00  0.00    +0.111 A 
ENDBRANCH   4   3
ENDBRANCH  10   9
BRANCH  12  13
ATOM     13  N   UNL     1       2.123  -8.884   6.694  0.00  0.00    -0.281 N 
ATOM     14  C   UNL     1       2.302  -7.923   5.713  0.00  0.00    +0.248 C 
ATOM     30  O   UNL     1       1.541  -6.987   5.515  0.00  0.00    -0.270 OA
ATOM     31  H   UNL     1       2.717  -9.710   6.627  0.00  0.00    +0.155 HD
BRANCH  14  15
ATOM     15  C   UNL     1       3.491  -8.023   4.813  0.00  0.00    +0.037 A 
ATOM     16  C   UNL     1       4.814  -7.568   5.248  0.00  0.00    +0.013 A 
ATOM     17  C   UNL     1       5.941  -7.660   4.353  0.00  0.00    +0.005 A 
ATOM     18  C   UNL     1       5.749  -8.212   3.014  0.00  0.00    -0.033 A 
ATOM     28  C   UNL     1       4.426  -8.661   2.611  0.00  0.00    +0.005 A 
ATOM     29  C   UNL     1       3.319  -8.571   3.484  0.00  0.00    +0.013 A 
BRANCH  18  19
ATOM     19  C   UNL     1       6.889  -8.329   1.986  0.00  0.00    +0.119 C 
BRANCH  19  20
ATOM     20  N   UNL     1       6.627  -9.144   0.763  0.00  0.00    -0.302 NA
ATOM     21  C   UNL     1       7.189 -10.563   0.886  0.00  0.00    +0.066 C 
ATOM     22  C   UNL     1       6.885 -11.409  -0.393  0.00  0.00    -0.064 C 
ATOM     23  N   UNL     1       7.466 -10.701  -1.619  0.00  0.00    +0.379 N 
ATOM     24  C   UNL     1       7.233 -11.522  -2.816  0.00  0.00    -0.096 C 
ATOM     25  H   UNL     1       8.568 -10.621  -1.472  0.00  0.00    -0.082 HD
ATOM     26  C   UNL     1       6.915  -9.288  -1.747  0.00  0.00    -0.064 C 
ATOM     27  C   UNL     1       7.196  -8.465  -0.459  0.00  0.00    +0.066 C 
ENDBRANCH  19  20
ENDBRANCH  18  19
ENDBRANCH  14  15
ENDBRANCH  12  13
TORSDOF 6
ENDMDL
