MODEL 1
REMARK VINA RESULT:      -8.8      0.000      0.000
REMARK  Name = C:\Users\Docking\Desktop\test protocol\1iep_ligandH.pdb
REMARK  8 active torsions:
REMARK  status: ('A' for Active; 'I' for Inactive)
REMARK    1  A    between atoms: _5  and  _11
REMARK    2  A    between atoms: _19  and  _21
REMARK    3  A    between atoms: _22  and  _66
REMARK    4  A    between atoms: _27  and  _30
REMARK    5  A    between atoms: _32  and  _33
REMARK    6  A    between atoms: _38  and  _43
REMARK    7  A    between atoms: _43  and  _46
REMARK    8  A    between atoms: _53  and  _55
REMARK                            x       y       z     vdW  Elec       q    Type
REMARK                         _______ _______ _______ _____ _____    ______ ____
ROOT
ATOM     10  C   UNL     1      35.027  -0.734  -8.689  0.00  0.00    +0.038 A 
ATOM     11  C   UNL     1      34.731   0.131  -7.605  0.00  0.00    +0.047 A 
ATOM     12  C   UNL     1      33.371   0.581  -7.351  0.00  0.00    +0.035 A 
ATOM     32  C   UNL     1      32.336   0.127  -8.219  0.00  0.00    +0.024 A 
ATOM     33  C   UNL     1      32.619  -0.752  -9.326  0.00  0.00    +0.007 A 
ATOM     34  C   UNL     1      33.959  -1.196  -9.584  0.00  0.00    -0.029 A 
ATOM     35  C   UNL     1      34.205  -2.133 -10.789  0.00  0.00    +0.045 C 
ENDROOT
BRANCH  10   9
ATOM      4  C   UNL     1      39.377  -0.159 -10.635  0.00  0.00    +0.077 A 
ATOM      5  C   UNL     1      38.971   1.024 -11.338  0.00  0.00    +0.048 A 
ATOM      6  C   UNL     1      37.633   1.447 -11.177  0.00  0.00    +0.116 A 
ATOM      7  N   UNL     1      36.773   0.733 -10.371  0.00  0.00    -0.223 NA
ATOM      8  C   UNL     1      37.196  -0.405  -9.709  0.00  0.00    +0.220 A 
ATOM      9  N   UNL     1      36.351  -1.134  -8.887  0.00  0.00    -0.283 N 
ATOM     36  H   UNL     1      36.699  -1.972  -8.422  0.00  0.00    +0.155 HD
ATOM     37  N   UNL     1      38.469  -0.831  -9.847  0.00  0.00    -0.214 NA
BRANCH   4   3
ATOM      1  C   UNL     1      43.039  -1.188  -9.721  0.00  0.00    +0.020 A 
ATOM      2  C   UNL     1      41.716  -0.618  -9.607  0.00  0.00    +0.013 A 
ATOM      3  C   UNL     1      40.759  -0.730 -10.701  0.00  0.00    +0.019 A 
ATOM     38  C   UNL     1      41.176  -1.432 -11.905  0.00  0.00    +0.120 A 
ATOM     39  N   UNL     1      42.456  -1.970 -11.987  0.00  0.00    -0.263 NA
ATOM     40  C   UNL     1      43.386  -1.866 -10.942  0.00  0.00    +0.111 A 
ENDBRANCH   4   3
ENDBRANCH  10   9
BRANCH  12  13
ATOM     13  N   UNL     1      33.012   1.466  -6.270  0.00  0.00    -0.281 N 
ATOM     14  C   UNL     1      33.372   2.793  -6.101  0.00  0.00    +0.248 C 
ATOM     30  O   UNL     1      34.238   3.362  -6.748  0.00  0.00    -0.270 OA
ATOM     31  H   UNL     1      32.420   1.065  -5.542  0.00  0.00    +0.155 HD
BRANCH  14  15
ATOM     15  C   UNL     1      32.679   3.600  -5.051  0.00  0.00    +0.037 A 
ATOM     16  C   UNL     1      31.255   3.927  -5.160  0.00  0.00    +0.013 A 
ATOM     17  C   UNL     1      30.615   4.722  -4.142  0.00  0.00    +0.005 A 
ATOM     18  C   UNL     1      31.400   5.194  -3.004  0.00  0.00    -0.033 A 
ATOM     28  C   UNL     1      32.810   4.851  -2.918  0.00  0.00    +0.005 A 
ATOM     29  C   UNL     1      33.440   4.073  -3.914  0.00  0.00    +0.013 A 
BRANCH  18  19
ATOM     19  C   UNL     1      30.805   6.066  -1.882  0.00  0.00    +0.119 C 
BRANCH  19  20
ATOM     20  N   UNL     1      30.505   5.395  -0.582  0.00  0.00    -0.302 NA
ATOM     21  C   UNL     1      29.039   4.960  -0.485  0.00  0.00    +0.066 C 
ATOM     22  C   UNL     1      28.748   4.240   0.872  0.00  0.00    -0.064 C 
ATOM     23  N   UNL     1      29.114   5.171   2.029  0.00  0.00    +0.379 N 
ATOM     24  C   UNL     1      28.787   4.519   3.305  0.00  0.00    -0.096 C 
ATOM     25  H   UNL     1      28.480   6.083   1.943  0.00  0.00    -0.082 HD
ATOM     26  C   UNL     1      30.569   5.610   1.939  0.00  0.00    -0.064 C 
ATOM     27  C   UNL     1      30.855   6.298   0.575  0.00  0.00    +0.066 C 
ENDBRANCH  19  20
ENDBRANCH  18  19
ENDBRANCH  14  15
ENDBRANCH  12  13
TORSDOF 6
ENDMDL
MODEL 2
REMARK VINA RESULT:      -8.3      7.052     12.590
REMARK  Name = C:\Users\Docking\Desktop\test protocol\1iep_ligandH.pdb
REMARK  8 active torsions:
REMARK  status: ('A' for Active; 'I' for Inactive)
REMARK    1  A    between atoms: _5  and  _11
REMARK    2  A    between atoms: _19  and  _21
REMARK    3  A    between atoms: _22  and  _66
REMARK    4  A    between atoms: _27  and  _30
REMARK    5  A    between atoms: _32  and  _33
REMARK    6  A    between atoms: _38  and  _43
REMARK    7  A    between atoms: _43  and  _46
REMARK    8  A    between atoms: _53  and  _55
REMARK                            x       y       z     vdW  Elec       q    Type
REMARK                         _______ _______ _______ _____ _____    ______ ____
ROOT
ATOM     10  C   UNL     1      30.289   5.769   1.009  0.00  0.00    +0.038 A 
ATOM     11  C   UNL     1      30.684   7.013   1.563  0.00  0.00    +0.047 A 
ATOM     12  C   UNL     1      29.890   7.664   2.594  0.00  0.00    +0.035 A 
ATOM     32  C   UNL     1      28.700   7.018   3.039  0.00  0.00    +0.024 A 
ATOM     33  C   UNL     1      28.283   5.753   2.486  0.00  0.00    +0.007 A 
ATOM     34  C   UNL     1      29.061   5.108   1.468  0.00  0.00    -0.029 A 
ATOM     35  C   UNL     1      28.562   3.756   0.906  0.00  0.00    +0.045 C 
ENDROOT
BRANCH  10   9
ATOM      4  C   UNL     1      31.348   4.850  -3.581  0.00  0.00    +0.077 A 
ATOM      5  C   UNL     1      30.196   5.563  -4.051  0.00  0.00    +0.048 A 
ATOM      6  C   UNL     1      29.352   6.146  -3.079  0.00  0.00    +0.116 A 
ATOM      7  N   UNL     1      29.648   6.019  -1.740  0.00  0.00    -0.223 NA
ATOM      8  C   UNL     1      30.767   5.323  -1.320  0.00  0.00    +0.220 A 
ATOM      9  N   UNL     1      31.088   5.189   0.022  0.00  0.00    -0.283 N 
ATOM     36  H   UNL     1      31.918   4.661   0.292  0.00  0.00    +0.155 HD
ATOM     37  N   UNL     1      31.588   4.756  -2.228  0.00  0.00    -0.214 NA
BRANCH   4   3
ATOM      1  C   UNL     1      32.979   2.457  -6.210  0.00  0.00    +0.020 A 
ATOM      2  C   UNL     1      31.987   3.066  -5.355  0.00  0.00    +0.013 A 
ATOM      3  C   UNL     1      32.337   4.182  -4.485  0.00  0.00    +0.019 A 
ATOM     38  C   UNL     1      33.710   4.662  -4.505  0.00  0.00    +0.120 A 
ATOM     39  N   UNL     1      34.645   4.054  -5.338  0.00  0.00    -0.263 NA
ATOM     40  C   UNL     1      34.320   2.979  -6.178  0.00  0.00    +0.111 A 
ENDBRANCH   4   3
ENDBRANCH  10   9
BRANCH  12  13
ATOM     13  N   UNL     1      30.237   8.932   3.188  0.00  0.00    -0.281 N 
ATOM     14  C   UNL     1      30.692   9.173   4.474  0.00  0.00    +0.248 C 
ATOM     30  O   UNL     1      30.667   8.355   5.381  0.00  0.00    -0.270 OA
ATOM     31  H   UNL     1      30.134   9.750   2.588  0.00  0.00    +0.155 HD
BRANCH  14  15
ATOM     15  C   UNL     1      31.242  10.524   4.803  0.00  0.00    +0.037 A 
ATOM     16  C   UNL     1      30.528  11.747   4.428  0.00  0.00    +0.013 A 
ATOM     17  C   UNL     1      31.089  13.037   4.743  0.00  0.00    +0.005 A 
ATOM     18  C   UNL     1      32.371  13.110   5.438  0.00  0.00    -0.033 A 
ATOM     28  C   UNL     1      33.056  11.881   5.803  0.00  0.00    +0.005 A 
ATOM     29  C   UNL     1      32.510  10.614   5.496  0.00  0.00    +0.013 A 
BRANCH  18  19
ATOM     19  C   UNL     1      33.054  14.443   5.795  0.00  0.00    +0.119 C 
BRANCH  19  20
ATOM     20  N   UNL     1      33.415  14.665   7.228  0.00  0.00    -0.302 NA
ATOM     21  C   UNL     1      32.226  15.171   8.048  0.00  0.00    +0.066 C 
ATOM     22  C   UNL     1      32.616  15.376   9.548  0.00  0.00    -0.064 C 
ATOM     23  N   UNL     1      33.790  16.351   9.639  0.00  0.00    +0.379 N 
ATOM     24  C   UNL     1      34.122  16.590  11.051  0.00  0.00    -0.096 C 
ATOM     25  H   UNL     1      33.459  17.321   9.200  0.00  0.00    -0.082 HD
ATOM     26  C   UNL     1      34.977  15.856   8.823  0.00  0.00    -0.064 C 
ATOM     27  C   UNL     1      34.571  15.628   7.340  0.00  0.00    +0.066 C 
ENDBRANCH  19  20
ENDBRANCH  18  19
ENDBRANCH  14  15
ENDBRANCH  12  13
TORSDOF 6
ENDMDL
MODEL 3
REMARK VINA RESULT:      -8.3      6.744     12.544
REMARK  Name = C:\Users\Docking\Desktop\test protocol\1iep_ligandH.pdb
REMARK  8 active torsions:
REMARK  status: ('A' for Active; 'I' for Inactive)
REMARK    1  A    between atoms: _5  and  _11
REMARK    2  A    between atoms: _19  and  _21
REMARK    3  A    between atoms: _22  and  _66
REMARK    4  A    between atoms: _27  and  _30
REMARK    5  A    between atoms: _32  and  _33
REMARK    6  A    between atoms: _38  and  _43
REMARK    7  A    between atoms: _43  and  _46
REMARK    8  A    between atoms: _53  and  _55
REMARK                            x       y       z     vdW  Elec       q    Type
REMARK                         _______ _______ _______ _____ _____    ______ ____
ROOT
ATOM     10  C   UNL     1      30.234   5.826   1.091  0.00  0.00    +0.038 A 
ATOM     11  C   UNL     1      30.551   7.104   1.617  0.00  0.00    +0.047 A 
ATOM     12  C   UNL     1      29.716   7.728   2.632  0.00  0.00    +0.035 A 
ATOM     32  C   UNL     1      28.566   7.021   3.090  0.00  0.00    +0.024 A 
ATOM     33  C   UNL     1      28.228   5.721   2.565  0.00  0.00    +0.007 A 
ATOM     34  C   UNL     1      29.047   5.101   1.562  0.00  0.00    -0.029 A 
ATOM     35  C   UNL     1      28.633   3.709   1.030  0.00  0.00    +0.045 C 
ENDROOT
BRANCH  10   9
ATOM      4  C   UNL     1      31.385   4.912  -3.478  0.00  0.00    +0.077 A 
ATOM      5  C   UNL     1      30.206   5.567  -3.968  0.00  0.00    +0.048 A 
ATOM      6  C   UNL     1      29.326   6.119  -3.011  0.00  0.00    +0.116 A 
ATOM      7  N   UNL     1      29.613   6.019  -1.667  0.00  0.00    -0.223 NA
ATOM      8  C   UNL     1      30.758   5.379  -1.228  0.00  0.00    +0.220 A 
ATOM      9  N   UNL     1      31.070   5.273   0.118  0.00  0.00    -0.283 N 
ATOM     36  H   UNL     1      31.921   4.787   0.402  0.00  0.00    +0.155 HD
ATOM     37  N   UNL     1      31.614   4.842  -2.122  0.00  0.00    -0.214 NA
BRANCH   4   3
ATOM      1  C   UNL     1      34.773   4.019  -5.217  0.00  0.00    +0.020 A 
ATOM      2  C   UNL     1      33.821   4.660  -4.340  0.00  0.00    +0.013 A 
ATOM      3  C   UNL     1      32.413   4.281  -4.365  0.00  0.00    +0.019 A 
ATOM     38  C   UNL     1      32.000   3.242  -5.296  0.00  0.00    +0.120 A 
ATOM     39  N   UNL     1      32.939   2.644  -6.130  0.00  0.00    -0.263 NA
ATOM     40  C   UNL     1      34.296   3.002  -6.116  0.00  0.00    +0.111 A 
ENDBRANCH   4   3
ENDBRANCH  10   9
BRANCH  12  13
ATOM     13  N   UNL     1      29.983   9.027   3.198  0.00  0.00    -0.281 N 
ATOM     14  C   UNL     1      30.590   9.320   4.408  0.00  0.00    +0.248 C 
ATOM     30  O   UNL     1      30.805   8.502   5.290  0.00  0.00    -0.270 OA
ATOM     31  H   UNL     1      29.689   9.828   2.638  0.00  0.00    +0.155 HD
BRANCH  14  15
ATOM     15  C   UNL     1      31.007  10.729   4.684  0.00  0.00    +0.037 A 
ATOM     16  C   UNL     1      32.270  11.029   5.362  0.00  0.00    +0.013 A 
ATOM     17  C   UNL     1      32.640  12.396   5.632  0.00  0.00    +0.005 A 
ATOM     18  C   UNL     1      31.744  13.474   5.221  0.00  0.00    -0.033 A 
ATOM     28  C   UNL     1      30.499  13.149   4.545  0.00  0.00    +0.005 A 
ATOM     29  C   UNL     1      30.133  11.810   4.280  0.00  0.00    +0.013 A 
BRANCH  18  19
ATOM     19  C   UNL     1      32.047  14.961   5.487  0.00  0.00    +0.119 C 
BRANCH  19  20
ATOM     20  N   UNL     1      33.188  15.570   4.740  0.00  0.00    -0.302 NA
ATOM     21  C   UNL     1      33.638  16.896   5.360  0.00  0.00    +0.066 C 
ATOM     22  C   UNL     1      34.847  17.507   4.580  0.00  0.00    -0.064 C 
ATOM     23  N   UNL     1      34.459  17.699   3.112  0.00  0.00    +0.379 N 
ATOM     24  C   UNL     1      35.574  18.328   2.388  0.00  0.00    -0.096 C 
ATOM     25  H   UNL     1      33.595  18.403   3.081  0.00  0.00    -0.082 HD
ATOM     26  C   UNL     1      34.008  16.386   2.489  0.00  0.00    -0.064 C 
ATOM     27  C   UNL     1      32.825  15.772   3.289  0.00  0.00    +0.066 C 
ENDBRANCH  19  20
ENDBRANCH  18  19
ENDBRANCH  14  15
ENDBRANCH  12  13
TORSDOF 6
ENDMDL
MODEL 4
REMARK VINA RESULT:      -7.7      4.764      8.798
REMARK  Name = C:\Users\Docking\Desktop\test protocol\1iep_ligandH.pdb
REMARK  8 active torsions:
REMARK  status: ('A' for Active; 'I' for Inactive)
REMARK    1  A    between atoms: _5  and  _11
REMARK    2  A    between atoms: _19  and  _21
REMARK    3  A    between atoms: _22  and  _66
REMARK    4  A    between atoms: _27  and  _30
REMARK    5  A    between atoms: _32  and  _33
REMARK    6  A    between atoms: _38  and  _43
REMARK    7  A    between atoms: _43  and  _46
REMARK    8  A    between atoms: _53  and  _55
REMARK                            x       y       z     vdW  Elec       q    Type
REMARK                         _______ _______ _______ _____ _____    ______ ____
ROOT
ATOM     10  C   UNL     1      30.816  -0.689  -9.431  0.00  0.00    +0.038 A 
ATOM     11  C   UNL     1      30.763   0.215  -8.339  0.00  0.00    +0.047 A 
ATOM     12  C   UNL     1      31.944   0.497  -7.537  0.00  0.00    +0.035 A 
ATOM     32  C   UNL     1      33.164  -0.158  -7.878  0.00  0.00    +0.024 A 
ATOM     33  C   UNL     1      33.235  -1.081  -8.984  0.00  0.00    +0.007 A 
ATOM     34  C   UNL     1      32.073  -1.364  -9.776  0.00  0.00    -0.029 A 
ATOM     35  C   UNL     1      32.206  -2.367 -10.946  0.00  0.00    +0.045 C 
ENDROOT
BRANCH  10   9
ATOM      4  C   UNL     1      26.390  -2.487  -9.892  0.00  0.00    +0.077 A 
ATOM      5  C   UNL     1      26.409  -3.031  -8.565  0.00  0.00    +0.048 A 
ATOM      6  C   UNL     1      27.579  -2.832  -7.799  0.00  0.00    +0.116 A 
ATOM      7  N   UNL     1      28.645  -2.139  -8.330  0.00  0.00    -0.223 NA
ATOM      8  C   UNL     1      28.595  -1.629  -9.614  0.00  0.00    +0.220 A 
ATOM      9  N   UNL     1      29.652  -0.922 -10.166  0.00  0.00    -0.283 N 
ATOM     36  H   UNL     1      29.579  -0.568 -11.120  0.00  0.00    +0.155 HD
ATOM     37  N   UNL     1      27.489  -1.807 -10.367  0.00  0.00    -0.214 NA
BRANCH   4   3
ATOM      1  C   UNL     1      22.860  -2.086 -11.529  0.00  0.00    +0.020 A 
ATOM      2  C   UNL     1      23.954  -1.933 -10.598  0.00  0.00    +0.013 A 
ATOM      3  C   UNL     1      25.224  -2.611 -10.823  0.00  0.00    +0.019 A 
ATOM     38  C   UNL     1      25.356  -3.443 -12.010  0.00  0.00    +0.120 A 
ATOM     39  N   UNL     1      24.284  -3.573 -12.888  0.00  0.00    -0.263 NA
ATOM     40  C   UNL     1      23.056  -2.926 -12.680  0.00  0.00    +0.111 A 
ENDBRANCH   4   3
ENDBRANCH  10   9
BRANCH  12  13
ATOM     13  N   UNL     1      31.949   1.399  -6.412  0.00  0.00    -0.281 N 
ATOM     14  C   UNL     1      32.550   2.643  -6.322  0.00  0.00    +0.248 C 
ATOM     30  O   UNL     1      33.360   3.080  -7.126  0.00  0.00    -0.270 OA
ATOM     31  H   UNL     1      31.449   1.081  -5.582  0.00  0.00    +0.155 HD
BRANCH  14  15
ATOM     15  C   UNL     1      32.214   3.525  -5.162  0.00  0.00    +0.037 A 
ATOM     16  C   UNL     1      33.213   3.849  -4.140  0.00  0.00    +0.013 A 
ATOM     17  C   UNL     1      32.857   4.688  -3.023  0.00  0.00    +0.005 A 
ATOM     18  C   UNL     1      31.496   5.209  -2.923  0.00  0.00    -0.033 A 
ATOM     28  C   UNL     1      30.527   4.876  -3.954  0.00  0.00    +0.005 A 
ATOM     29  C   UNL     1      30.872   4.053  -5.050  0.00  0.00    +0.013 A 
BRANCH  18  19
ATOM     19  C   UNL     1      31.023   6.094  -1.754  0.00  0.00    +0.119 C 
BRANCH  19  20
ATOM     20  N   UNL     1      30.648   5.405  -0.483  0.00  0.00    -0.302 NA
ATOM     21  C   UNL     1      29.170   5.003  -0.463  0.00  0.00    +0.066 C 
ATOM     22  C   UNL     1      28.800   4.264   0.864  0.00  0.00    -0.064 C 
ATOM     23  N   UNL     1      29.133   5.163   2.056  0.00  0.00    +0.379 N 
ATOM     24  C   UNL     1      28.733   4.494   3.302  0.00  0.00    -0.096 C 
ATOM     25  H   UNL     1      28.524   6.092   1.959  0.00  0.00    -0.082 HD
ATOM     26  C   UNL     1      30.600   5.570   2.041  0.00  0.00    -0.064 C 
ATOM     27  C   UNL     1      30.965   6.277   0.706  0.00  0.00    +0.066 C 
ENDBRANCH  19  20
ENDBRANCH  18  19
ENDBRANCH  14  15
ENDBRANCH  12  13
TORSDOF 6
ENDMDL
MODEL 5
REMARK VINA RESULT:      -7.5     12.355     18.715
REMARK  Name = C:\Users\Docking\Desktop\test protocol\1iep_ligandH.pdb
REMARK  8 active torsions:
REMARK  status: ('A' for Active; 'I' for Inactive)
REMARK    1  A    between atoms: _5  and  _11
REMARK    2  A    between atoms: _19  and  _21
REMARK    3  A    between atoms: _22  and  _66
REMARK    4  A    between atoms: _27  and  _30
REMARK    5  A    between atoms: _32  and  _33
REMARK    6  A    between atoms: _38  and  _43
REMARK    7  A    between atoms: _43  and  _46
REMARK    8  A    between atoms: _53  and  _55
REMARK                            x       y       z     vdW  Elec       q    Type
REMARK                         _______ _______ _______ _____ _____    ______ ____
ROOT
ATOM     10  C   UNL     1      32.674  12.101   5.531  0.00  0.00    +0.038 A 
ATOM     11  C   UNL     1      32.991  13.171   4.656  0.00  0.00    +0.047 A 
ATOM     12  C   UNL     1      33.249  14.509   5.165  0.00  0.00    +0.035 A 
ATOM     32  C   UNL     1      33.178  14.721   6.572  0.00  0.00    +0.024 A 
ATOM     33  C   UNL     1      32.857  13.646   7.477  0.00  0.00    +0.007 A 
ATOM     34  C   UNL     1      32.599  12.324   6.980  0.00  0.00    -0.029 A 
ATOM     35  C   UNL     1      32.252  11.211   7.996  0.00  0.00    +0.045 C 
ENDROOT
BRANCH  10   9
ATOM      4  C   UNL     1      29.743   8.744   3.750  0.00  0.00    +0.077 A 
ATOM      5  C   UNL     1      28.585   9.568   3.942  0.00  0.00    +0.048 A 
ATOM      6  C   UNL     1      28.786  10.847   4.508  0.00  0.00    +0.116 A 
ATOM      7  N   UNL     1      30.055  11.260   4.853  0.00  0.00    -0.223 NA
ATOM      8  C   UNL     1      31.150  10.439   4.656  0.00  0.00    +0.220 A 
ATOM      9  N   UNL     1      32.436  10.836   4.988  0.00  0.00    -0.283 N 
ATOM     36  H   UNL     1      33.217  10.199   4.834  0.00  0.00    +0.155 HD
ATOM     37  N   UNL     1      30.984   9.213   4.118  0.00  0.00    -0.214 NA
BRANCH   4   3
ATOM      1  C   UNL     1      29.607   4.855   3.351  0.00  0.00    +0.020 A 
ATOM      2  C   UNL     1      29.654   6.159   3.971  0.00  0.00    +0.013 A 
ATOM      3  C   UNL     1      29.694   7.369   3.159  0.00  0.00    +0.019 A 
ATOM     38  C   UNL     1      29.683   7.223   1.711  0.00  0.00    +0.120 A 
ATOM     39  N   UNL     1      29.639   5.954   1.142  0.00  0.00    -0.263 NA
ATOM     40  C   UNL     1      29.602   4.783   1.913  0.00  0.00    +0.111 A 
ENDBRANCH   4   3
ENDBRANCH  10   9
BRANCH  12  13
ATOM     13  N   UNL     1      33.568  15.635   4.323  0.00  0.00    -0.281 N 
ATOM     14  C   UNL     1      34.488  15.693   3.290  0.00  0.00    +0.248 C 
ATOM     30  O   UNL     1      35.335  14.840   3.070  0.00  0.00    -0.270 OA
ATOM     31  H   UNL     1      33.052  16.495   4.512  0.00  0.00    +0.155 HD
BRANCH  14  15
ATOM     15  C   UNL     1      34.476  16.877   2.377  0.00  0.00    +0.037 A 
ATOM     16  C   UNL     1      33.556  16.948   1.238  0.00  0.00    +0.013 A 
ATOM     17  C   UNL     1      33.577  18.094   0.363  0.00  0.00    +0.005 A 
ATOM     18  C   UNL     1      34.520  19.178   0.625  0.00  0.00    -0.033 A 
ATOM     28  C   UNL     1      35.417  19.084   1.765  0.00  0.00    +0.005 A 
ATOM     29  C   UNL     1      35.401  17.962   2.624  0.00  0.00    +0.013 A 
BRANCH  18  19
ATOM     19  C   UNL     1      34.626  20.428  -0.268  0.00  0.00    +0.119 C 
BRANCH  19  20
ATOM     20  N   UNL     1      35.714  21.402   0.044  0.00  0.00    -0.302 NA
ATOM     21  C   UNL     1      35.163  22.740   0.543  0.00  0.00    +0.066 C 
ATOM     22  C   UNL     1      36.316  23.738   0.886  0.00  0.00    -0.064 C 
ATOM     23  N   UNL     1      37.195  23.942  -0.349  0.00  0.00    +0.379 N 
ATOM     24  C   UNL     1      38.246  24.925  -0.046  0.00  0.00    -0.096 C 
ATOM     25  H   UNL     1      36.553  24.370  -1.154  0.00  0.00    -0.082 HD
ATOM     26  C   UNL     1      37.745  22.616  -0.854  0.00  0.00    -0.064 C 
ATOM     27  C   UNL     1      36.592  21.621  -1.164  0.00  0.00    +0.066 C 
ENDBRANCH  19  20
ENDBRANCH  18  19
ENDBRANCH  14  15
ENDBRANCH  12  13
TORSDOF 6
ENDMDL
