MODEL 1
REMARK VINA RESULT:     -11.8      0.000      0.000
REMARK  Name = C:\Users\Docking\Desktop\test protocol\1iep_ligandH.pdb
REMARK  8 active torsions:
REMARK  status: ('A' for Active; 'I' for Inactive)
REMARK    1  A    between atoms: _5  and  _11
REMARK    2  A    between atoms: _19  and  _21
REMARK    3  A    between atoms: _22  and  _66
REMARK    4  A    between atoms: _27  and  _30
REMARK    5  A    between atoms: _32  and  _33
REMARK    6  A    between atoms: _38  and  _43
REMARK    7  A    between atoms: _43  and  _46
REMARK    8  A    between atoms: _53  and  _55
REMARK                            x       y       z     vdW  Elec       q    Type
REMARK                         _______ _______ _______ _____ _____    ______ ____
ROOT
ATOM     10  C   UNL     1      -2.214   1.094  35.004  0.00  0.00    +0.038 A 
ATOM     11  C   UNL     1      -1.624   2.159  35.730  0.00  0.00    +0.047 A 
ATOM     12  C   UNL     1      -1.476   3.481  35.140  0.00  0.00    +0.035 A 
ATOM     32  C   UNL     1      -1.943   3.683  33.809  0.00  0.00    +0.024 A 
ATOM     33  C   UNL     1      -2.545   2.610  33.056  0.00  0.00    +0.007 A 
ATOM     34  C   UNL     1      -2.691   1.304  33.631  0.00  0.00    -0.029 A 
ATOM     35  C   UNL     1      -3.337   0.190  32.775  0.00  0.00    +0.045 C 
ENDROOT
BRANCH  10   9
ATOM      4  C   UNL     1      -0.669  -3.372  35.845  0.00  0.00    +0.077 A 
ATOM      5  C   UNL     1       0.452  -3.213  34.964  0.00  0.00    +0.048 A 
ATOM      6  C   UNL     1       0.591  -1.970  34.308  0.00  0.00    +0.116 A 
ATOM      7  N   UNL     1      -0.329  -0.966  34.525  0.00  0.00    -0.223 NA
ATOM      8  C   UNL     1      -1.399  -1.153  35.380  0.00  0.00    +0.220 A 
ATOM      9  N   UNL     1      -2.331  -0.155  35.619  0.00  0.00    -0.283 N 
ATOM     36  H   UNL     1      -3.111  -0.334  36.251  0.00  0.00    +0.155 HD
ATOM     37  N   UNL     1      -1.555  -2.332  36.017  0.00  0.00    -0.214 NA
BRANCH   4   3
ATOM      1  C   UNL     1      -1.354  -5.891  38.758  0.00  0.00    +0.020 A 
ATOM      2  C   UNL     1      -1.082  -4.653  38.064  0.00  0.00    +0.013 A 
ATOM      3  C   UNL     1      -0.950  -4.626  36.613  0.00  0.00    +0.019 A 
ATOM     38  C   UNL     1      -1.100  -5.878  35.887  0.00  0.00    +0.120 A 
ATOM     39  N   UNL     1      -1.361  -7.055  36.582  0.00  0.00    -0.263 NA
ATOM     40  C   UNL     1      -1.488  -7.094  37.979  0.00  0.00    +0.111 A 
ENDBRANCH   4   3
ENDBRANCH  10   9
BRANCH  12  13
ATOM     13  N   UNL     1      -0.877   4.599  35.826  0.00  0.00    -0.281 N 
ATOM     14  C   UNL     1      -1.502   5.741  36.301  0.00  0.00    +0.248 C 
ATOM     30  O   UNL     1      -2.643   6.073  36.016  0.00  0.00    -0.270 OA
ATOM     31  H   UNL     1       0.129   4.542  35.981  0.00  0.00    +0.155 HD
BRANCH  14  15
ATOM     15  C   UNL     1      -0.745   6.653  37.211  0.00  0.00    +0.037 A 
ATOM     16  C   UNL     1      -1.440   7.565  38.123  0.00  0.00    +0.013 A 
ATOM     17  C   UNL     1      -0.686   8.447  38.978  0.00  0.00    +0.005 A 
ATOM     18  C   UNL     1       0.774   8.418  38.927  0.00  0.00    -0.033 A 
ATOM     28  C   UNL     1       1.438   7.499  38.017  0.00  0.00    +0.005 A 
ATOM     29  C   UNL     1       0.702   6.635  37.176  0.00  0.00    +0.013 A 
BRANCH  18  19
ATOM     19  C   UNL     1       1.659   9.338  39.788  0.00  0.00    +0.119 C 
BRANCH  19  20
ATOM     20  N   UNL     1       2.603   8.682  40.742  0.00  0.00    -0.302 NA
ATOM     21  C   UNL     1       2.371   9.139  42.185  0.00  0.00    +0.066 C 
ATOM     22  C   UNL     1       3.352   8.426  43.172  0.00  0.00    -0.064 C 
ATOM     23  N   UNL     1       4.794   8.701  42.742  0.00  0.00    +0.379 N 
ATOM     24  C   UNL     1       5.719   8.080  43.701  0.00  0.00    -0.096 C 
ATOM     25  H   UNL     1       4.954   9.803  42.782  0.00  0.00    -0.082 HD
ATOM     26  C   UNL     1       5.032   8.252  41.307  0.00  0.00    -0.064 C 
ATOM     27  C   UNL     1       4.033   8.944  40.338  0.00  0.00    +0.066 C 
ENDBRANCH  19  20
ENDBRANCH  18  19
ENDBRANCH  14  15
ENDBRANCH  12  13
TORSDOF 6
ENDMDL
MODEL 2
REMARK VINA RESULT:     -11.6      2.116     12.335
REMARK  Name = C:\Users\Docking\Desktop\test protocol\1iep_ligandH.pdb
REMARK  8 active torsions:
REMARK  status: ('A' for Active; 'I' for Inactive)
REMARK    1  A    between atoms: _5  and  _11
REMARK    2  A    between atoms: _19  and  _21
REMARK    3  A    between atoms: _22  and  _66
REMARK    4  A    between atoms: _27  and  _30
REMARK    5  A    between atoms: _32  and  _33
REMARK    6  A    between atoms: _38  and  _43
REMARK    7  A    between atoms: _43  and  _46
REMARK    8  A    between atoms: _53  and  _55
REMARK                            x       y       z     vdW  Elec       q    Type
REMARK                         _______ _______ _______ _____ _____    ______ ____
ROOT
ATOM     10  C   UNL     1       1.222   9.429  40.649  0.00  0.00    +0.038 A 
ATOM     11  C   UNL     1       0.931   8.414  39.702  0.00  0.00    +0.047 A 
ATOM     12  C   UNL     1      -0.421   8.217  39.202  0.00  0.00    +0.035 A 
ATOM     32  C   UNL     1      -1.452   9.073  39.686  0.00  0.00    +0.024 A 
ATOM     33  C   UNL     1      -1.174  10.109  40.650  0.00  0.00    +0.007 A 
ATOM     34  C   UNL     1       0.157  10.307  41.148  0.00  0.00    -0.029 A 
ATOM     35  C   UNL     1       0.396  11.429  42.186  0.00  0.00    +0.045 C 
ENDROOT
BRANCH  10   9
ATOM      4  C   UNL     1       4.814   8.373  43.652  0.00  0.00    +0.077 A 
ATOM      5  C   UNL     1       3.993   7.477  44.413  0.00  0.00    +0.048 A 
ATOM      6  C   UNL     1       2.650   7.321  44.003  0.00  0.00    +0.116 A 
ATOM      7  N   UNL     1       2.174   8.014  42.912  0.00  0.00    -0.223 NA
ATOM      8  C   UNL     1       2.993   8.873  42.200  0.00  0.00    +0.220 A 
ATOM      9  N   UNL     1       2.538   9.574  41.095  0.00  0.00    -0.283 N 
ATOM     36  H   UNL     1       3.171  10.203  40.601  0.00  0.00    +0.155 HD
ATOM     37  N   UNL     1       4.279   9.040  42.573  0.00  0.00    -0.214 NA
BRANCH   4   3
ATOM      1  C   UNL     1       8.124   9.296  45.521  0.00  0.00    +0.020 A 
ATOM      2  C   UNL     1       6.722   9.049  45.278  0.00  0.00    +0.013 A 
ATOM      3  C   UNL     1       6.255   8.642  43.958  0.00  0.00    +0.019 A 
ATOM     38  C   UNL     1       7.241   8.490  42.899  0.00  0.00    +0.120 A 
ATOM     39  N   UNL     1       8.585   8.735  43.163  0.00  0.00    -0.263 NA
ATOM     40  C   UNL     1       9.046   9.130  44.428  0.00  0.00    +0.111 A 
ENDBRANCH   4   3
ENDBRANCH  10   9
BRANCH  12  13
ATOM     13  N   UNL     1      -0.778   7.198  38.246  0.00  0.00    -0.281 N 
ATOM     14  C   UNL     1      -0.297   7.033  36.957  0.00  0.00    +0.248 C 
ATOM     30  O   UNL     1       0.360   7.868  36.352  0.00  0.00    -0.270 OA
ATOM     31  H   UNL     1      -1.469   6.515  38.557  0.00  0.00    +0.155 HD
BRANCH  14  15
ATOM     15  C   UNL     1      -0.601   5.763  36.230  0.00  0.00    +0.037 A 
ATOM     16  C   UNL     1       0.443   5.033  35.506  0.00  0.00    +0.013 A 
ATOM     17  C   UNL     1       0.119   3.820  34.798  0.00  0.00    +0.005 A 
ATOM     18  C   UNL     1      -1.257   3.328  34.813  0.00  0.00    -0.033 A 
ATOM     28  C   UNL     1      -2.271   4.069  35.544  0.00  0.00    +0.005 A 
ATOM     29  C   UNL     1      -1.958   5.259  36.238  0.00  0.00    +0.013 A 
BRANCH  18  19
ATOM     19  C   UNL     1      -1.697   2.054  34.068  0.00  0.00    +0.119 C 
BRANCH  19  20
ATOM     20  N   UNL     1      -0.956   0.793  34.372  0.00  0.00    -0.302 NA
ATOM     21  C   UNL     1      -1.325  -0.337  33.408  0.00  0.00    +0.066 C 
ATOM     22  C   UNL     1      -0.524  -1.642  33.727  0.00  0.00    -0.064 C 
ATOM     23  N   UNL     1      -0.787  -2.057  35.175  0.00  0.00    +0.379 N 
ATOM     24  C   UNL     1      -0.081  -3.315  35.460  0.00  0.00    -0.096 C 
ATOM     25  H   UNL     1      -1.880  -2.252  35.278  0.00  0.00    -0.082 HD
ATOM     26  C   UNL     1      -0.425  -0.938  36.140  0.00  0.00    -0.064 C 
ATOM     27  C   UNL     1      -1.204   0.362  35.797  0.00  0.00    +0.066 C 
ENDBRANCH  19  20
ENDBRANCH  18  19
ENDBRANCH  14  15
ENDBRANCH  12  13
TORSDOF 6
ENDMDL
MODEL 3
REMARK VINA RESULT:     -11.5      1.781      2.765
REMARK  Name = C:\Users\Docking\Desktop\test protocol\1iep_ligandH.pdb
REMARK  8 active torsions:
REMARK  status: ('A' for Active; 'I' for Inactive)
REMARK    1  A    between atoms: _5  and  _11
REMARK    2  A    between atoms: _19  and  _21
REMARK    3  A    between atoms: _22  and  _66
REMARK    4  A    between atoms: _27  and  _30
REMARK    5  A    between atoms: _32  and  _33
REMARK    6  A    between atoms: _38  and  _43
REMARK    7  A    between atoms: _43  and  _46
REMARK    8  A    between atoms: _53  and  _55
REMARK                            x       y       z     vdW  Elec       q    Type
REMARK                         _______ _______ _______ _____ _____    ______ ____
ROOT
ATOM     10  C   UNL     1      -2.014   1.002  35.142  0.00  0.00    +0.038 A 
ATOM     11  C   UNL     1      -1.391   2.025  35.901  0.00  0.00    +0.047 A 
ATOM     12  C   UNL     1      -1.166   3.348  35.338  0.00  0.00    +0.035 A 
ATOM     32  C   UNL     1      -1.592   3.594  34.000  0.00  0.00    +0.024 A 
ATOM     33  C   UNL     1      -2.226   2.565  33.215  0.00  0.00    +0.007 A 
ATOM     34  C   UNL     1      -2.448   1.258  33.763  0.00  0.00    -0.029 A 
ATOM     35  C   UNL     1      -3.126   0.190  32.873  0.00  0.00    +0.045 C 
ENDROOT
BRANCH  10   9
ATOM      4  C   UNL     1      -0.701  -3.545  35.941  0.00  0.00    +0.077 A 
ATOM      5  C   UNL     1       0.448  -3.425  35.090  0.00  0.00    +0.048 A 
ATOM      6  C   UNL     1       0.661  -2.179  34.460  0.00  0.00    +0.116 A 
ATOM      7  N   UNL     1      -0.215  -1.137  34.672  0.00  0.00    -0.223 NA
ATOM      8  C   UNL     1      -1.315  -1.287  35.498  0.00  0.00    +0.220 A 
ATOM      9  N   UNL     1      -2.205  -0.250  35.732  0.00  0.00    -0.283 N 
ATOM     36  H   UNL     1      -3.007  -0.403  36.342  0.00  0.00    +0.155 HD
ATOM     37  N   UNL     1      -1.541  -2.467  36.110  0.00  0.00    -0.214 NA
BRANCH   4   3
ATOM      1  C   UNL     1      -1.674  -6.058  38.776  0.00  0.00    +0.020 A 
ATOM      2  C   UNL     1      -1.332  -4.822  38.111  0.00  0.00    +0.013 A 
ATOM      3  C   UNL     1      -1.059  -4.797  36.680  0.00  0.00    +0.019 A 
ATOM     38  C   UNL     1      -1.143  -6.050  35.944  0.00  0.00    +0.120 A 
ATOM     39  N   UNL     1      -1.473  -7.225  36.612  0.00  0.00    -0.263 NA
ATOM     40  C   UNL     1      -1.736  -7.262  37.989  0.00  0.00    +0.111 A 
ENDBRANCH   4   3
ENDBRANCH  10   9
BRANCH  12  13
ATOM     13  N   UNL     1      -0.532   4.424  36.058  0.00  0.00    -0.281 N 
ATOM     14  C   UNL     1      -0.896   5.761  36.087  0.00  0.00    +0.248 C 
ATOM     30  O   UNL     1      -1.701   6.274  35.325  0.00  0.00    -0.270 OA
ATOM     31  H   UNL     1       0.286   4.170  36.613  0.00  0.00    +0.155 HD
BRANCH  14  15
ATOM     15  C   UNL     1      -0.264   6.659  37.100  0.00  0.00    +0.037 A 
ATOM     16  C   UNL     1       1.192   6.793  37.195  0.00  0.00    +0.013 A 
ATOM     17  C   UNL     1       1.776   7.653  38.193  0.00  0.00    +0.005 A 
ATOM     18  C   UNL     1       0.902   8.389  39.104  0.00  0.00    -0.033 A 
ATOM     28  C   UNL     1      -0.539   8.243  38.984  0.00  0.00    +0.005 A 
ATOM     29  C   UNL     1      -1.115   7.399  38.008  0.00  0.00    +0.013 A 
BRANCH  18  19
ATOM     19  C   UNL     1       1.439   9.314  40.212  0.00  0.00    +0.119 C 
BRANCH  19  20
ATOM     20  N   UNL     1       0.586  10.475  40.607  0.00  0.00    -0.302 NA
ATOM     21  C   UNL     1       0.628  11.598  39.566  0.00  0.00    +0.066 C 
ATOM     22  C   UNL     1      -0.287  12.795  39.984  0.00  0.00    -0.064 C 
ATOM     23  N   UNL     1       0.149  13.312  41.356  0.00  0.00    +0.379 N 
ATOM     24  C   UNL     1      -0.672  14.474  41.725  0.00  0.00    -0.096 C 
ATOM     25  H   UNL     1       1.205  13.657  41.268  0.00  0.00    -0.082 HD
ATOM     26  C   UNL     1       0.112  12.201  42.396  0.00  0.00    -0.064 C 
ATOM     27  C   UNL     1       1.001  11.004  41.957  0.00  0.00    +0.066 C 
ENDBRANCH  19  20
ENDBRANCH  18  19
ENDBRANCH  14  15
ENDBRANCH  12  13
TORSDOF 6
ENDMDL
MODEL 4
REMARK VINA RESULT:     -11.5      4.090      7.937
REMARK  Name = C:\Users\Docking\Desktop\test protocol\1iep_ligandH.pdb
REMARK  8 active torsions:
REMARK  status: ('A' for Active; 'I' for Inactive)
REMARK    1  A    between atoms: _5  and  _11
REMARK    2  A    between atoms: _19  and  _21
REMARK    3  A    between atoms: _22  and  _66
REMARK    4  A    between atoms: _27  and  _30
REMARK    5  A    between atoms: _32  and  _33
REMARK    6  A    between atoms: _38  and  _43
REMARK    7  A    between atoms: _43  and  _46
REMARK    8  A    between atoms: _53  and  _55
REMARK                            x       y       z     vdW  Elec       q    Type
REMARK                         _______ _______ _______ _____ _____    ______ ____
ROOT
ATOM     10  C   UNL     1      -1.300   8.477  38.548  0.00  0.00    +0.038 A 
ATOM     11  C   UNL     1      -0.279   8.190  39.489  0.00  0.00    +0.047 A 
ATOM     12  C   UNL     1       0.472   9.257  40.133  0.00  0.00    +0.035 A 
ATOM     32  C   UNL     1       0.154  10.605  39.797  0.00  0.00    +0.024 A 
ATOM     33  C   UNL     1      -0.881  10.914  38.842  0.00  0.00    +0.007 A 
ATOM     34  C   UNL     1      -1.623   9.866  38.201  0.00  0.00    -0.029 A 
ATOM     35  C   UNL     1      -2.717  10.256  37.180  0.00  0.00    +0.045 C 
ENDROOT
BRANCH  10   9
ATOM      4  C   UNL     1      -1.455   4.505  35.858  0.00  0.00    +0.077 A 
ATOM      5  C   UNL     1      -0.049   4.567  35.579  0.00  0.00    +0.048 A 
ATOM      6  C   UNL     1       0.676   5.642  36.141  0.00  0.00    +0.116 A 
ATOM      7  N   UNL     1       0.034   6.577  36.923  0.00  0.00    -0.223 NA
ATOM      8  C   UNL     1      -1.324   6.488  37.170  0.00  0.00    +0.220 A 
ATOM      9  N   UNL     1      -1.989   7.414  37.960  0.00  0.00    -0.283 N 
ATOM     36  H   UNL     1      -2.993   7.317  38.112  0.00  0.00    +0.155 HD
ATOM     37  N   UNL     1      -2.039   5.473  36.644  0.00  0.00    -0.214 NA
BRANCH   4   3
ATOM      1  C   UNL     1      -4.468   2.630  34.212  0.00  0.00    +0.020 A 
ATOM      2  C   UNL     1      -3.635   3.706  34.696  0.00  0.00    +0.013 A 
ATOM      3  C   UNL     1      -2.357   3.428  35.339  0.00  0.00    +0.019 A 
ATOM     38  C   UNL     1      -1.947   2.038  35.476  0.00  0.00    +0.120 A 
ATOM     39  N   UNL     1      -2.771   1.023  35.002  0.00  0.00    -0.263 NA
ATOM     40  C   UNL     1      -4.004   1.278  34.383  0.00  0.00    +0.111 A 
ENDBRANCH   4   3
ENDBRANCH  10   9
BRANCH  12  13
ATOM     13  N   UNL     1       1.525   9.026  41.091  0.00  0.00    -0.281 N 
ATOM     14  C   UNL     1       2.545   8.091  41.026  0.00  0.00    +0.248 C 
ATOM     30  O   UNL     1       2.582   7.162  40.232  0.00  0.00    -0.270 OA
ATOM     31  H   UNL     1       1.518   9.625  41.916  0.00  0.00    +0.155 HD
BRANCH  14  15
ATOM     15  C   UNL     1       3.681   8.194  41.992  0.00  0.00    +0.037 A 
ATOM     16  C   UNL     1       3.449   8.466  43.412  0.00  0.00    +0.013 A 
ATOM     17  C   UNL     1       4.563   8.577  44.319  0.00  0.00    +0.005 A 
ATOM     18  C   UNL     1       5.922   8.414  43.808  0.00  0.00    -0.033 A 
ATOM     28  C   UNL     1       6.124   8.139  42.395  0.00  0.00    +0.005 A 
ATOM     29  C   UNL     1       5.033   8.031  41.503  0.00  0.00    +0.013 A 
BRANCH  18  19
ATOM     19  C   UNL     1       7.172   8.537  44.699  0.00  0.00    +0.119 C 
BRANCH  19  20
ATOM     20  N   UNL     1       7.679   9.913  44.980  0.00  0.00    -0.302 NA
ATOM     21  C   UNL     1       8.619  10.415  43.881  0.00  0.00    +0.066 C 
ATOM     22  C   UNL     1       9.121  11.865  44.180  0.00  0.00    -0.064 C 
ATOM     23  N   UNL     1       9.819  11.890  45.541  0.00  0.00    +0.379 N 
ATOM     24  C   UNL     1      10.343  13.238  45.799  0.00  0.00    -0.096 C 
ATOM     25  H   UNL     1      10.687  11.193  45.488  0.00  0.00    -0.082 HD
ATOM     26  C   UNL     1       8.892  11.389  46.640  0.00  0.00    -0.064 C 
ATOM     27  C   UNL     1       8.374   9.959  46.318  0.00  0.00    +0.066 C 
ENDBRANCH  19  20
ENDBRANCH  18  19
ENDBRANCH  14  15
ENDBRANCH  12  13
TORSDOF 6
ENDMDL
MODEL 5
REMARK VINA RESULT:     -11.3      3.792     12.700
REMARK  Name = C:\Users\Docking\Desktop\test protocol\1iep_ligandH.pdb
REMARK  8 active torsions:
REMARK  status: ('A' for Active; 'I' for Inactive)
REMARK    1  A    between atoms: _5  and  _11
REMARK    2  A    between atoms: _19  and  _21
REMARK    3  A    between atoms: _22  and  _66
REMARK    4  A    between atoms: _27  and  _30
REMARK    5  A    between atoms: _32  and  _33
REMARK    6  A    between atoms: _38  and  _43
REMARK    7  A    between atoms: _43  and  _46
REMARK    8  A    between atoms: _53  and  _55
REMARK                            x       y       z     vdW  Elec       q    Type
REMARK                         _______ _______ _______ _____ _____    ______ ____
ROOT
ATOM     10  C   UNL     1       1.374   9.307  40.453  0.00  0.00    +0.038 A 
ATOM     11  C   UNL     1       1.078   8.209  39.605  0.00  0.00    +0.047 A 
ATOM     12  C   UNL     1      -0.259   8.012  39.068  0.00  0.00    +0.035 A 
ATOM     32  C   UNL     1      -1.272   8.954  39.414  0.00  0.00    +0.024 A 
ATOM     33  C   UNL     1      -0.989  10.075  40.276  0.00  0.00    +0.007 A 
ATOM     34  C   UNL     1       0.328  10.273  40.810  0.00  0.00    -0.029 A 
ATOM     35  C   UNL     1       0.572  11.489  41.734  0.00  0.00    +0.045 C 
ENDROOT
BRANCH  10   9
ATOM      4  C   UNL     1       4.831   8.330  43.636  0.00  0.00    +0.077 A 
ATOM      5  C   UNL     1       3.964   7.489  44.409  0.00  0.00    +0.048 A 
ATOM      6  C   UNL     1       2.633   7.339  43.957  0.00  0.00    +0.116 A 
ATOM      7  N   UNL     1       2.213   7.987  42.816  0.00  0.00    -0.223 NA
ATOM      8  C   UNL     1       3.074   8.793  42.095  0.00  0.00    +0.220 A 
ATOM      9  N   UNL     1       2.675   9.448  40.941  0.00  0.00    -0.283 N 
ATOM     36  H   UNL     1       3.339  10.040  40.441  0.00  0.00    +0.155 HD
ATOM     37  N   UNL     1       4.349   8.953  42.507  0.00  0.00    -0.214 NA
BRANCH   4   3
ATOM      1  C   UNL     1       8.105   9.148  45.615  0.00  0.00    +0.020 A 
ATOM      2  C   UNL     1       6.708   8.911  45.333  0.00  0.00    +0.013 A 
ATOM      3  C   UNL     1       6.265   8.585  43.983  0.00  0.00    +0.019 A 
ATOM     38  C   UNL     1       7.269   8.504  42.933  0.00  0.00    +0.120 A 
ATOM     39  N   UNL     1       8.607   8.739  43.234  0.00  0.00    -0.263 NA
ATOM     40  C   UNL     1       9.045   9.055  44.529  0.00  0.00    +0.111 A 
ENDBRANCH   4   3
ENDBRANCH  10   9
BRANCH  12  13
ATOM     13  N   UNL     1      -0.620   6.912  38.209  0.00  0.00    -0.281 N 
ATOM     14  C   UNL     1      -0.308   6.739  36.870  0.00  0.00    +0.248 C 
ATOM     30  O   UNL     1       0.151   7.612  36.149  0.00  0.00    -0.270 OA
ATOM     31  H   UNL     1      -1.173   6.171  38.640  0.00  0.00    +0.155 HD
BRANCH  14  15
ATOM     15  C   UNL     1      -0.555   5.407  36.238  0.00  0.00    +0.037 A 
ATOM     16  C   UNL     1       0.472   4.749  35.426  0.00  0.00    +0.013 A 
ATOM     17  C   UNL     1       0.202   3.473  34.813  0.00  0.00    +0.005 A 
ATOM     18  C   UNL     1      -1.102   2.845  35.011  0.00  0.00    -0.033 A 
ATOM     28  C   UNL     1      -2.101   3.518  35.825  0.00  0.00    +0.005 A 
ATOM     29  C   UNL     1      -1.840   4.769  36.427  0.00  0.00    +0.013 A 
BRANCH  18  19
ATOM     19  C   UNL     1      -1.485   1.495  34.377  0.00  0.00    +0.119 C 
BRANCH  19  20
ATOM     20  N   UNL     1      -2.777   1.431  33.632  0.00  0.00    -0.302 NA
ATOM     21  C   UNL     1      -3.070   0.022  33.109  0.00  0.00    +0.066 C 
ATOM     22  C   UNL     1      -4.437  -0.031  32.351  0.00  0.00    -0.064 C 
ATOM     23  N   UNL     1      -4.420   0.979  31.203  0.00  0.00    +0.379 N 
ATOM     24  C   UNL     1      -5.681   0.891  30.453  0.00  0.00    -0.096 C 
ATOM     25  H   UNL     1      -3.594   0.692  30.512  0.00  0.00    -0.082 HD
ATOM     26  C   UNL     1      -4.126   2.383  31.713  0.00  0.00    -0.064 C 
ATOM     27  C   UNL     1      -2.781   2.419  32.491  0.00  0.00    +0.066 C 
ENDBRANCH  19  20
ENDBRANCH  18  19
ENDBRANCH  14  15
ENDBRANCH  12  13
TORSDOF 6
ENDMDL
