MODEL 1
REMARK VINA RESULT:     -10.2      0.000      0.000
REMARK  Name = C:\Users\Docking\Desktop\test protocol\1iep_ligandH.pdb
REMARK  8 active torsions:
REMARK  status: ('A' for Active; 'I' for Inactive)
REMARK    1  A    between atoms: _5  and  _11
REMARK    2  A    between atoms: _19  and  _21
REMARK    3  A    between atoms: _22  and  _66
REMARK    4  A    between atoms: _27  and  _30
REMARK    5  A    between atoms: _32  and  _33
REMARK    6  A    between atoms: _38  and  _43
REMARK    7  A    between atoms: _43  and  _46
REMARK    8  A    between atoms: _53  and  _55
REMARK                            x       y       z     vdW  Elec       q    Type
REMARK                         _______ _______ _______ _____ _____    ______ ____
ROOT
ATOM     10  C   UNL     1       0.063  -0.135  35.690  0.00  0.00    +0.038 A 
ATOM     11  C   UNL     1      -0.521  -1.097  36.554  0.00  0.00    +0.047 A 
ATOM     12  C   UNL     1      -0.471  -2.517  36.242  0.00  0.00    +0.035 A 
ATOM     32  C   UNL     1       0.184  -2.923  35.043  0.00  0.00    +0.024 A 
ATOM     33  C   UNL     1       0.782  -1.959  34.153  0.00  0.00    +0.007 A 
ATOM     34  C   UNL     1       0.734  -0.556  34.454  0.00  0.00    -0.029 A 
ATOM     35  C   UNL     1       1.385   0.433  33.460  0.00  0.00    +0.045 C 
ENDROOT
BRANCH  10   9
ATOM      4  C   UNL     1      -2.203   4.095  35.760  0.00  0.00    +0.077 A 
ATOM      5  C   UNL     1      -3.315   3.578  35.016  0.00  0.00    +0.048 A 
ATOM      6  C   UNL     1      -3.262   2.221  34.628  0.00  0.00    +0.116 A 
ATOM      7  N   UNL     1      -2.173   1.447  34.965  0.00  0.00    -0.223 NA
ATOM      8  C   UNL     1      -1.116   1.977  35.682  0.00  0.00    +0.220 A 
ATOM      9  N   UNL     1      -0.014   1.215  36.039  0.00  0.00    -0.283 N 
ATOM     36  H   UNL     1       0.748   1.645  36.561  0.00  0.00    +0.155 HD
ATOM     37  N   UNL     1      -1.142   3.271  36.063  0.00  0.00    -0.214 NA
BRANCH   4   3
ATOM      1  C   UNL     1      -2.331   7.280  38.027  0.00  0.00    +0.020 A 
ATOM      2  C   UNL     1      -2.434   5.900  37.611  0.00  0.00    +0.013 A 
ATOM      3  C   UNL     1      -2.114   5.509  36.244  0.00  0.00    +0.019 A 
ATOM     38  C   UNL     1      -1.688   6.546  35.316  0.00  0.00    +0.120 A 
ATOM     39  N   UNL     1      -1.599   7.867  35.745  0.00  0.00    -0.263 NA
ATOM     40  C   UNL     1      -1.906   8.255  37.058  0.00  0.00    +0.111 A 
ENDBRANCH   4   3
ENDBRANCH  10   9
BRANCH  12  13
ATOM     13  N   UNL     1      -1.052  -3.539  37.077  0.00  0.00    -0.281 N 
ATOM     14  C   UNL     1      -1.140  -4.898  36.824  0.00  0.00    +0.248 C 
ATOM     30  O   UNL     1      -0.919  -5.414  35.738  0.00  0.00    -0.270 OA
ATOM     31  H   UNL     1      -1.448  -3.221  37.962  0.00  0.00    +0.155 HD
BRANCH  14  15
ATOM     15  C   UNL     1      -1.544  -5.815  37.933  0.00  0.00    +0.037 A 
ATOM     16  C   UNL     1      -0.855  -5.793  39.226  0.00  0.00    +0.013 A 
ATOM     17  C   UNL     1      -1.253  -6.699  40.273  0.00  0.00    +0.005 A 
ATOM     18  C   UNL     1      -2.349  -7.635  40.031  0.00  0.00    -0.033 A 
ATOM     28  C   UNL     1      -3.018  -7.632  38.741  0.00  0.00    +0.005 A 
ATOM     29  C   UNL     1      -2.630  -6.746  37.712  0.00  0.00    +0.013 A 
BRANCH  18  19
ATOM     19  C   UNL     1      -2.827  -8.653  41.084  0.00  0.00    +0.119 C 
BRANCH  19  20
ATOM     20  N   UNL     1      -2.060  -9.929  41.199  0.00  0.00    -0.302 NA
ATOM     21  C   UNL     1      -1.493 -10.382  39.851  0.00  0.00    +0.066 C 
ATOM     22  C   UNL     1      -0.674 -11.707  39.994  0.00  0.00    -0.064 C 
ATOM     23  N   UNL     1      -1.567 -12.792  40.598  0.00  0.00    +0.379 N 
ATOM     24  C   UNL     1      -0.818 -14.054  40.680  0.00  0.00    -0.096 C 
ATOM     25  H   UNL     1      -2.423 -12.951  39.903  0.00  0.00    -0.082 HD
ATOM     26  C   UNL     1      -2.137 -12.348  41.938  0.00  0.00    -0.064 C 
ATOM     27  C   UNL     1      -2.924 -11.016  41.790  0.00  0.00    +0.066 C 
ENDBRANCH  19  20
ENDBRANCH  18  19
ENDBRANCH  14  15
ENDBRANCH  12  13
TORSDOF 6
ENDMDL
MODEL 2
REMARK VINA RESULT:     -10.2      1.600      2.042
REMARK  Name = C:\Users\Docking\Desktop\test protocol\1iep_ligandH.pdb
REMARK  8 active torsions:
REMARK  status: ('A' for Active; 'I' for Inactive)
REMARK    1  A    between atoms: _5  and  _11
REMARK    2  A    between atoms: _19  and  _21
REMARK    3  A    between atoms: _22  and  _66
REMARK    4  A    between atoms: _27  and  _30
REMARK    5  A    between atoms: _32  and  _33
REMARK    6  A    between atoms: _38  and  _43
REMARK    7  A    between atoms: _43  and  _46
REMARK    8  A    between atoms: _53  and  _55
REMARK                            x       y       z     vdW  Elec       q    Type
REMARK                         _______ _______ _______ _____ _____    ______ ____
ROOT
ATOM     10  C   UNL     1      -0.948   1.200  35.400  0.00  0.00    +0.038 A 
ATOM     11  C   UNL     1      -1.321   0.018  36.089  0.00  0.00    +0.047 A 
ATOM     12  C   UNL     1      -1.264  -1.282  35.438  0.00  0.00    +0.035 A 
ATOM     32  C   UNL     1      -0.819  -1.341  34.085  0.00  0.00    +0.024 A 
ATOM     33  C   UNL     1      -0.436  -0.149  33.370  0.00  0.00    +0.007 A 
ATOM     34  C   UNL     1      -0.493   1.136  34.006  0.00  0.00    -0.029 A 
ATOM     35  C   UNL     1      -0.077   2.381  33.189  0.00  0.00    +0.045 C 
ENDROOT
BRANCH  10   9
ATOM      4  C   UNL     1      -3.032   5.435  36.268  0.00  0.00    +0.077 A 
ATOM      5  C   UNL     1      -4.044   5.207  35.277  0.00  0.00    +0.048 A 
ATOM      6  C   UNL     1      -3.988   3.990  34.560  0.00  0.00    +0.116 A 
ATOM      7  N   UNL     1      -2.991   3.077  34.825  0.00  0.00    -0.223 NA
ATOM      8  C   UNL     1      -2.029   3.329  35.786  0.00  0.00    +0.220 A 
ATOM      9  N   UNL     1      -1.022   2.421  36.074  0.00  0.00    -0.283 N 
ATOM     36  H   UNL     1      -0.327   2.648  36.785  0.00  0.00    +0.155 HD
ATOM     37  N   UNL     1      -2.060   4.484  36.483  0.00  0.00    -0.214 NA
BRANCH   4   3
ATOM      1  C   UNL     1      -2.239   7.933  39.172  0.00  0.00    +0.020 A 
ATOM      2  C   UNL     1      -2.281   6.713  38.399  0.00  0.00    +0.013 A 
ATOM      3  C   UNL     1      -2.959   6.671  37.109  0.00  0.00    +0.019 A 
ATOM     38  C   UNL     1      -3.588   7.891  36.626  0.00  0.00    +0.120 A 
ATOM     39  N   UNL     1      -3.533   9.051  37.393  0.00  0.00    -0.263 NA
ATOM     40  C   UNL     1      -2.885   9.102  38.636  0.00  0.00    +0.111 A 
ENDBRANCH   4   3
ENDBRANCH  10   9
BRANCH  12  13
ATOM     13  N   UNL     1      -1.639  -2.516  36.084  0.00  0.00    -0.281 N 
ATOM     14  C   UNL     1      -0.837  -3.612  36.356  0.00  0.00    +0.248 C 
ATOM     30  O   UNL     1       0.279  -3.784  35.890  0.00  0.00    -0.270 OA
ATOM     31  H   UNL     1      -2.614  -2.589  36.376  0.00  0.00    +0.155 HD
BRANCH  14  15
ATOM     15  C   UNL     1      -1.357  -4.679  37.264  0.00  0.00    +0.037 A 
ATOM     16  C   UNL     1      -0.579  -5.141  38.417  0.00  0.00    +0.013 A 
ATOM     17  C   UNL     1      -1.096  -6.184  39.267  0.00  0.00    +0.005 A 
ATOM     18  C   UNL     1      -2.401  -6.770  38.969  0.00  0.00    -0.033 A 
ATOM     28  C   UNL     1      -3.154  -6.289  37.823  0.00  0.00    +0.005 A 
ATOM     29  C   UNL     1      -2.650  -5.268  36.986  0.00  0.00    +0.013 A 
BRANCH  18  19
ATOM     19  C   UNL     1      -3.021  -7.902  39.810  0.00  0.00    +0.119 C 
BRANCH  19  20
ATOM     20  N   UNL     1      -2.617  -9.301  39.478  0.00  0.00    -0.302 NA
ATOM     21  C   UNL     1      -1.421  -9.767  40.314  0.00  0.00    +0.066 C 
ATOM     22  C   UNL     1      -1.026 -11.240  39.971  0.00  0.00    -0.064 C 
ATOM     23  N   UNL     1      -0.717 -11.346  38.476  0.00  0.00    +0.379 N 
ATOM     24  C   UNL     1      -0.289 -12.717  38.161  0.00  0.00    -0.096 C 
ATOM     25  H   UNL     1       0.139 -10.666  38.259  0.00  0.00    -0.082 HD
ATOM     26  C   UNL     1      -1.899 -10.882  37.638  0.00  0.00    -0.064 C 
ATOM     27  C   UNL     1      -2.303  -9.428  38.008  0.00  0.00    +0.066 C 
ENDBRANCH  19  20
ENDBRANCH  18  19
ENDBRANCH  14  15
ENDBRANCH  12  13
TORSDOF 6
ENDMDL
MODEL 3
REMARK VINA RESULT:      -9.9      1.829      2.494
REMARK  Name = C:\Users\Docking\Desktop\test protocol\1iep_ligandH.pdb
REMARK  8 active torsions:
REMARK  status: ('A' for Active; 'I' for Inactive)
REMARK    1  A    between atoms: _5  and  _11
REMARK    2  A    between atoms: _19  and  _21
REMARK    3  A    between atoms: _22  and  _66
REMARK    4  A    between atoms: _27  and  _30
REMARK    5  A    between atoms: _32  and  _33
REMARK    6  A    between atoms: _38  and  _43
REMARK    7  A    between atoms: _43  and  _46
REMARK    8  A    between atoms: _53  and  _55
REMARK                            x       y       z     vdW  Elec       q    Type
REMARK                         _______ _______ _______ _____ _____    ______ ____
ROOT
ATOM     10  C   UNL     1      -2.228   1.250  34.600  0.00  0.00    +0.038 A 
ATOM     11  C   UNL     1      -2.266   0.047  35.350  0.00  0.00    +0.047 A 
ATOM     12  C   UNL     1      -1.846  -1.218  34.766  0.00  0.00    +0.035 A 
ATOM     32  C   UNL     1      -1.391  -1.219  33.415  0.00  0.00    +0.024 A 
ATOM     33  C   UNL     1      -1.347  -0.006  32.638  0.00  0.00    +0.007 A 
ATOM     34  C   UNL     1      -1.762   1.244  33.208  0.00  0.00    -0.029 A 
ATOM     35  C   UNL     1      -1.700   2.513  32.327  0.00  0.00    +0.045 C 
ENDROOT
BRANCH  10   9
ATOM      4  C   UNL     1      -1.329   5.510  36.621  0.00  0.00    +0.077 A 
ATOM      5  C   UNL     1       0.089   5.348  36.471  0.00  0.00    +0.048 A 
ATOM      6  C   UNL     1       0.546   4.151  35.875  0.00  0.00    +0.116 A 
ATOM      7  N   UNL     1      -0.357   3.194  35.464  0.00  0.00    -0.223 NA
ATOM      8  C   UNL     1      -1.717   3.381  35.625  0.00  0.00    +0.220 A 
ATOM      9  N   UNL     1      -2.643   2.435  35.211  0.00  0.00    -0.283 N 
ATOM     36  H   UNL     1      -3.638   2.607  35.355  0.00  0.00    +0.155 HD
ATOM     37  N   UNL     1      -2.179   4.515  36.192  0.00  0.00    -0.214 NA
BRANCH   4   3
ATOM      1  C   UNL     1      -2.595   8.165  39.199  0.00  0.00    +0.020 A 
ATOM      2  C   UNL     1      -1.966   6.980  38.663  0.00  0.00    +0.013 A 
ATOM      3  C   UNL     1      -1.966   6.720  37.229  0.00  0.00    +0.019 A 
ATOM     38  C   UNL     1      -2.616   7.688  36.357  0.00  0.00    +0.120 A 
ATOM     39  N   UNL     1      -3.215   8.819  36.902  0.00  0.00    -0.263 NA
ATOM     40  C   UNL     1      -3.223   9.079  38.280  0.00  0.00    +0.111 A 
ENDBRANCH   4   3
ENDBRANCH  10   9
BRANCH  12  13
ATOM     13  N   UNL     1      -1.870  -2.473  35.476  0.00  0.00    -0.281 N 
ATOM     14  C   UNL     1      -1.102  -2.849  36.565  0.00  0.00    +0.248 C 
ATOM     30  O   UNL     1      -0.122  -2.239  36.964  0.00  0.00    -0.270 OA
ATOM     31  H   UNL     1      -2.534  -3.167  35.133  0.00  0.00    +0.155 HD
BRANCH  14  15
ATOM     15  C   UNL     1      -1.468  -4.092  37.311  0.00  0.00    +0.037 A 
ATOM     16  C   UNL     1      -0.877  -4.397  38.616  0.00  0.00    +0.013 A 
ATOM     17  C   UNL     1      -1.234  -5.611  39.306  0.00  0.00    +0.005 A 
ATOM     18  C   UNL     1      -2.189  -6.530  38.692  0.00  0.00    -0.033 A 
ATOM     28  C   UNL     1      -2.764  -6.200  37.398  0.00  0.00    +0.005 A 
ATOM     29  C   UNL     1      -2.416  -5.012  36.718  0.00  0.00    +0.013 A 
BRANCH  18  19
ATOM     19  C   UNL     1      -2.612  -7.858  39.346  0.00  0.00    +0.119 C 
BRANCH  19  20
ATOM     20  N   UNL     1      -1.827  -9.077  38.988  0.00  0.00    -0.302 NA
ATOM     21  C   UNL     1      -2.453  -9.839  37.816  0.00  0.00    +0.066 C 
ATOM     22  C   UNL     1      -1.608 -11.099  37.439  0.00  0.00    -0.064 C 
ATOM     23  N   UNL     1      -1.474 -12.005  38.665  0.00  0.00    +0.379 N 
ATOM     24  C   UNL     1      -0.729 -13.218  38.299  0.00  0.00    -0.096 C 
ATOM     25  H   UNL     1      -2.501 -12.317  38.968  0.00  0.00    -0.082 HD
ATOM     26  C   UNL     1      -0.855 -11.254  39.835  0.00  0.00    -0.064 C 
ATOM     27  C   UNL     1      -1.687  -9.988  40.182  0.00  0.00    +0.066 C 
ENDBRANCH  19  20
ENDBRANCH  18  19
ENDBRANCH  14  15
ENDBRANCH  12  13
TORSDOF 6
ENDMDL
MODEL 4
REMARK VINA RESULT:      -9.7      3.834     14.226
REMARK  Name = C:\Users\Docking\Desktop\test protocol\1iep_ligandH.pdb
REMARK  8 active torsions:
REMARK  status: ('A' for Active; 'I' for Inactive)
REMARK    1  A    between atoms: _5  and  _11
REMARK    2  A    between atoms: _19  and  _21
REMARK    3  A    between atoms: _22  and  _66
REMARK    4  A    between atoms: _27  and  _30
REMARK    5  A    between atoms: _32  and  _33
REMARK    6  A    between atoms: _38  and  _43
REMARK    7  A    between atoms: _43  and  _46
REMARK    8  A    between atoms: _53  and  _55
REMARK                            x       y       z     vdW  Elec       q    Type
REMARK                         _______ _______ _______ _____ _____    ______ ____
ROOT
ATOM     10  C   UNL     1      -2.131   1.136  34.998  0.00  0.00    +0.038 A 
ATOM     11  C   UNL     1      -1.747   2.222  35.825  0.00  0.00    +0.047 A 
ATOM     12  C   UNL     1      -1.555   3.555  35.276  0.00  0.00    +0.035 A 
ATOM     32  C   UNL     1      -1.766   3.748  33.880  0.00  0.00    +0.024 A 
ATOM     33  C   UNL     1      -2.156   2.655  33.024  0.00  0.00    +0.007 A 
ATOM     34  C   UNL     1      -2.344   1.337  33.559  0.00  0.00    -0.029 A 
ATOM     35  C   UNL     1      -2.756   0.202  32.593  0.00  0.00    +0.045 C 
ENDROOT
BRANCH  10   9
ATOM      4  C   UNL     1      -0.648  -3.335  35.920  0.00  0.00    +0.077 A 
ATOM      5  C   UNL     1       0.555  -3.155  35.160  0.00  0.00    +0.048 A 
ATOM      6  C   UNL     1       0.751  -1.900  34.541  0.00  0.00    +0.116 A 
ATOM      7  N   UNL     1      -0.192  -0.906  34.680  0.00  0.00    -0.223 NA
ATOM      8  C   UNL     1      -1.343  -1.112  35.419  0.00  0.00    +0.220 A 
ATOM      9  N   UNL     1      -2.301  -0.123  35.578  0.00  0.00    -0.283 N 
ATOM     36  H   UNL     1      -3.140  -0.317  36.124  0.00  0.00    +0.155 HD
ATOM     37  N   UNL     1      -1.554  -2.302  36.018  0.00  0.00    -0.214 NA
BRANCH   4   3
ATOM      1  C   UNL     1      -1.505  -7.073  36.687  0.00  0.00    +0.020 A 
ATOM      2  C   UNL     1      -1.169  -5.877  35.950  0.00  0.00    +0.013 A 
ATOM      3  C   UNL     1      -0.997  -4.603  36.635  0.00  0.00    +0.019 A 
ATOM     38  C   UNL     1      -1.172  -4.572  38.080  0.00  0.00    +0.120 A 
ATOM     39  N   UNL     1      -1.497  -5.740  38.763  0.00  0.00    -0.263 NA
ATOM     40  C   UNL     1      -1.667  -6.972  38.114  0.00  0.00    +0.111 A 
ENDBRANCH   4   3
ENDBRANCH  10   9
BRANCH  12  13
ATOM     13  N   UNL     1      -1.157   4.694  36.066  0.00  0.00    -0.281 N 
ATOM     14  C   UNL     1      -1.963   5.695  36.584  0.00  0.00    +0.248 C 
ATOM     30  O   UNL     1      -3.129   5.878  36.265  0.00  0.00    -0.270 OA
ATOM     31  H   UNL     1      -0.160   4.773  36.267  0.00  0.00    +0.155 HD
BRANCH  14  15
ATOM     15  C   UNL     1      -1.388   6.637  37.591  0.00  0.00    +0.037 A 
ATOM     16  C   UNL     1       0.031   7.004  37.565  0.00  0.00    +0.013 A 
ATOM     17  C   UNL     1       0.564   7.902  38.559  0.00  0.00    +0.005 A 
ATOM     18  C   UNL     1      -0.323   8.439  39.587  0.00  0.00    -0.033 A 
ATOM     28  C   UNL     1      -1.727   8.063  39.587  0.00  0.00    +0.005 A 
ATOM     29  C   UNL     1      -2.253   7.182  38.615  0.00  0.00    +0.013 A 
BRANCH  18  19
ATOM     19  C   UNL     1       0.164   9.387  40.700  0.00  0.00    +0.119 C 
BRANCH  19  20
ATOM     20  N   UNL     1      -0.511  10.714  40.812  0.00  0.00    -0.302 NA
ATOM     21  C   UNL     1       0.176  11.782  39.955  0.00  0.00    +0.066 C 
ATOM     22  C   UNL     1      -0.556  13.159  40.067  0.00  0.00    -0.064 C 
ATOM     23  N   UNL     1      -0.606  13.590  41.533  0.00  0.00    +0.379 N 
ATOM     24  C   UNL     1      -1.242  14.911  41.635  0.00  0.00    -0.096 C 
ATOM     25  H   UNL     1       0.445  13.692  41.891  0.00  0.00    -0.082 HD
ATOM     26  C   UNL     1      -1.285  12.533  42.392  0.00  0.00    -0.064 C 
ATOM     27  C   UNL     1      -0.567  11.161  42.252  0.00  0.00    +0.066 C 
ENDBRANCH  19  20
ENDBRANCH  18  19
ENDBRANCH  14  15
ENDBRANCH  12  13
TORSDOF 6
ENDMDL
MODEL 5
REMARK VINA RESULT:      -9.4      4.313     13.283
REMARK  Name = C:\Users\Docking\Desktop\test protocol\1iep_ligandH.pdb
REMARK  8 active torsions:
REMARK  status: ('A' for Active; 'I' for Inactive)
REMARK    1  A    between atoms: _5  and  _11
REMARK    2  A    between atoms: _19  and  _21
REMARK    3  A    between atoms: _22  and  _66
REMARK    4  A    between atoms: _27  and  _30
REMARK    5  A    between atoms: _32  and  _33
REMARK    6  A    between atoms: _38  and  _43
REMARK    7  A    between atoms: _43  and  _46
REMARK    8  A    between atoms: _53  and  _55
REMARK                            x       y       z     vdW  Elec       q    Type
REMARK                         _______ _______ _______ _____ _____    ______ ____
ROOT
ATOM     10  C   UNL     1      -2.212   1.242  35.159  0.00  0.00    +0.038 A 
ATOM     11  C   UNL     1      -1.740   2.310  35.964  0.00  0.00    +0.047 A 
ATOM     12  C   UNL     1      -1.572   3.648  35.417  0.00  0.00    +0.035 A 
ATOM     32  C   UNL     1      -1.898   3.863  34.046  0.00  0.00    +0.024 A 
ATOM     33  C   UNL     1      -2.378   2.789  33.213  0.00  0.00    +0.007 A 
ATOM     34  C   UNL     1      -2.543   1.467  33.747  0.00  0.00    -0.029 A 
ATOM     35  C   UNL     1      -3.056   0.352  32.805  0.00  0.00    +0.045 C 
ENDROOT
BRANCH  10   9
ATOM      4  C   UNL     1      -0.690  -3.237  35.966  0.00  0.00    +0.077 A 
ATOM      5  C   UNL     1       0.474  -3.052  35.148  0.00  0.00    +0.048 A 
ATOM      6  C   UNL     1       0.640  -1.792  34.532  0.00  0.00    +0.116 A 
ATOM      7  N   UNL     1      -0.294  -0.798  34.726  0.00  0.00    -0.223 NA
ATOM      8  C   UNL     1      -1.407  -1.010  35.520  0.00  0.00    +0.220 A 
ATOM      9  N   UNL     1      -2.355  -0.022  35.736  0.00  0.00    -0.283 N 
ATOM     36  H   UNL     1      -3.165  -0.220  36.322  0.00  0.00    +0.155 HD
ATOM     37  N   UNL     1      -1.589  -2.205  36.119  0.00  0.00    -0.214 NA
BRANCH   4   3
ATOM      1  C   UNL     1      -1.463  -6.991  36.748  0.00  0.00    +0.020 A 
ATOM      2  C   UNL     1      -1.161  -5.790  36.005  0.00  0.00    +0.013 A 
ATOM      3  C   UNL     1      -1.004  -4.512  36.687  0.00  0.00    +0.019 A 
ATOM     38  C   UNL     1      -1.159  -4.484  38.134  0.00  0.00    +0.120 A 
ATOM     39  N   UNL     1      -1.452  -5.657  38.822  0.00  0.00    -0.263 NA
ATOM     40  C   UNL     1      -1.607  -6.892  38.176  0.00  0.00    +0.111 A 
ENDBRANCH   4   3
ENDBRANCH  10   9
BRANCH  12  13
ATOM     13  N   UNL     1      -1.089   4.769  36.184  0.00  0.00    -0.281 N 
ATOM     14  C   UNL     1      -1.830   5.780  36.774  0.00  0.00    +0.248 C 
ATOM     30  O   UNL     1      -3.012   5.991  36.551  0.00  0.00    -0.270 OA
ATOM     31  H   UNL     1      -0.078   4.824  36.307  0.00  0.00    +0.155 HD
BRANCH  14  15
ATOM     15  C   UNL     1      -1.156   6.698  37.742  0.00  0.00    +0.037 A 
ATOM     16  C   UNL     1      -1.901   7.332  38.833  0.00  0.00    +0.013 A 
ATOM     17  C   UNL     1      -1.230   8.227  39.742  0.00  0.00    +0.005 A 
ATOM     18  C   UNL     1       0.196   8.492  39.566  0.00  0.00    -0.033 A 
ATOM     28  C   UNL     1       0.912   7.845  38.479  0.00  0.00    +0.005 A 
ATOM     29  C   UNL     1       0.257   6.968  37.585  0.00  0.00    +0.013 A 
BRANCH  18  19
ATOM     19  C   UNL     1       0.988   9.449  40.476  0.00  0.00    +0.119 C 
BRANCH  19  20
ATOM     20  N   UNL     1       2.013   8.843  41.378  0.00  0.00    -0.302 NA
ATOM     21  C   UNL     1       2.004   9.484  42.768  0.00  0.00    +0.066 C 
ATOM     22  C   UNL     1       3.067   8.823  43.706  0.00  0.00    -0.064 C 
ATOM     23  N   UNL     1       4.451   8.939  43.064  0.00  0.00    +0.379 N 
ATOM     24  C   UNL     1       5.460   8.371  43.969  0.00  0.00    -0.096 C 
ATOM     25  H   UNL     1       4.677  10.024  42.943  0.00  0.00    -0.082 HD
ATOM     26  C   UNL     1       4.467   8.307  41.680  0.00  0.00    -0.064 C 
ATOM     27  C   UNL     1       3.388   8.951  40.765  0.00  0.00    +0.066 C 
ENDBRANCH  19  20
ENDBRANCH  18  19
ENDBRANCH  14  15
ENDBRANCH  12  13
TORSDOF 6
ENDMDL
