MODEL 1
REMARK VINA RESULT:     -11.1      0.000      0.000
REMARK  Name = C:\Users\Docking\Desktop\test protocol\1iep_ligandH.pdb
REMARK  8 active torsions:
REMARK  status: ('A' for Active; 'I' for Inactive)
REMARK    1  A    between atoms: _5  and  _11
REMARK    2  A    between atoms: _19  and  _21
REMARK    3  A    between atoms: _22  and  _66
REMARK    4  A    between atoms: _27  and  _30
REMARK    5  A    between atoms: _32  and  _33
REMARK    6  A    between atoms: _38  and  _43
REMARK    7  A    between atoms: _43  and  _46
REMARK    8  A    between atoms: _53  and  _55
REMARK                            x       y       z     vdW  Elec       q    Type
REMARK                         _______ _______ _______ _____ _____    ______ ____
ROOT
ATOM     10  C   UNL     1      12.781  -9.405   8.904  0.00  0.00    +0.038 A 
ATOM     11  C   UNL     1      11.515  -8.994   8.414  0.00  0.00    +0.047 A 
ATOM     12  C   UNL     1      10.513  -8.425   9.302  0.00  0.00    +0.035 A 
ATOM     32  C   UNL     1      10.836  -8.288  10.684  0.00  0.00    +0.024 A 
ATOM     33  C   UNL     1      12.117  -8.702  11.199  0.00  0.00    +0.007 A 
ATOM     34  C   UNL     1      13.108  -9.266  10.328  0.00  0.00    -0.029 A 
ATOM     35  C   UNL     1      14.463  -9.699  10.936  0.00  0.00    +0.045 C 
ENDROOT
BRANCH  10   9
ATOM      4  C   UNL     1      14.682 -13.093   6.489  0.00  0.00    +0.077 A 
ATOM      5  C   UNL     1      13.773 -14.029   7.087  0.00  0.00    +0.048 A 
ATOM      6  C   UNL     1      12.837 -13.522   8.016  0.00  0.00    +0.116 A 
ATOM      7  N   UNL     1      12.820 -12.177   8.317  0.00  0.00    -0.223 NA
ATOM      8  C   UNL     1      13.711 -11.302   7.724  0.00  0.00    +0.220 A 
ATOM      9  N   UNL     1      13.706  -9.944   8.006  0.00  0.00    -0.283 N 
ATOM     36  H   UNL     1      14.384  -9.333   7.553  0.00  0.00    +0.155 HD
ATOM     37  N   UNL     1      14.615 -11.761   6.835  0.00  0.00    -0.214 NA
BRANCH   4   3
ATOM      1  C   UNL     1      17.337 -12.938   3.622  0.00  0.00    +0.020 A 
ATOM      2  C   UNL     1      16.332 -12.517   4.570  0.00  0.00    +0.013 A 
ATOM      3  C   UNL     1      15.726 -13.475   5.487  0.00  0.00    +0.019 A 
ATOM     38  C   UNL     1      16.164 -14.861   5.418  0.00  0.00    +0.120 A 
ATOM     39  N   UNL     1      17.133 -15.237   4.494  0.00  0.00    -0.263 NA
ATOM     40  C   UNL     1      17.722 -14.325   3.605  0.00  0.00    +0.111 A 
ENDBRANCH   4   3
ENDBRANCH  10   9
BRANCH  12  13
ATOM     13  N   UNL     1       9.208  -7.997   8.864  0.00  0.00    -0.281 N 
ATOM     14  C   UNL     1       7.980  -8.285   9.437  0.00  0.00    +0.248 C 
ATOM     30  O   UNL     1       7.801  -9.136  10.295  0.00  0.00    -0.270 OA
ATOM     31  H   UNL     1       9.187  -7.410   8.030  0.00  0.00    +0.155 HD
BRANCH  14  15
ATOM     15  C   UNL     1       6.775  -7.529   8.980  0.00  0.00    +0.037 A 
ATOM     16  C   UNL     1       5.694  -7.188   9.909  0.00  0.00    +0.013 A 
ATOM     17  C   UNL     1       4.535  -6.473   9.438  0.00  0.00    +0.005 A 
ATOM     18  C   UNL     1       4.451  -6.092   8.030  0.00  0.00    -0.033 A 
ATOM     28  C   UNL     1       5.540  -6.438   7.132  0.00  0.00    +0.005 A 
ATOM     29  C   UNL     1       6.677  -7.140   7.589  0.00  0.00    +0.013 A 
BRANCH  18  19
ATOM     19  C   UNL     1       3.242  -5.346   7.436  0.00  0.00    +0.119 C 
BRANCH  19  20
ATOM     20  N   UNL     1       2.993  -5.503   5.972  0.00  0.00    -0.302 NA
ATOM     21  C   UNL     1       2.713  -4.162   5.289  0.00  0.00    +0.066 C 
ATOM     22  C   UNL     1       2.477  -4.342   3.754  0.00  0.00    -0.064 C 
ATOM     23  N   UNL     1       1.319  -5.316   3.530  0.00  0.00    +0.379 N 
ATOM     24  C   UNL     1       1.057  -5.443   2.089  0.00  0.00    -0.096 C 
ATOM     25  H   UNL     1       0.410  -4.875   4.002  0.00  0.00    -0.082 HD
ATOM     26  C   UNL     1       1.588  -6.652   4.208  0.00  0.00    -0.064 C 
ATOM     27  C   UNL     1       1.850  -6.458   5.728  0.00  0.00    +0.066 C 
ENDBRANCH  19  20
ENDBRANCH  18  19
ENDBRANCH  14  15
ENDBRANCH  12  13
TORSDOF 6
ENDMDL
MODEL 2
REMARK VINA RESULT:     -10.9      6.780     12.536
REMARK  Name = C:\Users\Docking\Desktop\test protocol\1iep_ligandH.pdb
REMARK  8 active torsions:
REMARK  status: ('A' for Active; 'I' for Inactive)
REMARK    1  A    between atoms: _5  and  _11
REMARK    2  A    between atoms: _19  and  _21
REMARK    3  A    between atoms: _22  and  _66
REMARK    4  A    between atoms: _27  and  _30
REMARK    5  A    between atoms: _32  and  _33
REMARK    6  A    between atoms: _38  and  _43
REMARK    7  A    between atoms: _43  and  _46
REMARK    8  A    between atoms: _53  and  _55
REMARK                            x       y       z     vdW  Elec       q    Type
REMARK                         _______ _______ _______ _____ _____    ______ ____
ROOT
ATOM     10  C   UNL     1       2.668  -4.622   4.486  0.00  0.00    +0.038 A 
ATOM     11  C   UNL     1       2.600  -3.233   4.205  0.00  0.00    +0.047 A 
ATOM     12  C   UNL     1       1.430  -2.651   3.565  0.00  0.00    +0.035 A 
ATOM     32  C   UNL     1       0.346  -3.513   3.228  0.00  0.00    +0.024 A 
ATOM     33  C   UNL     1       0.399  -4.926   3.505  0.00  0.00    +0.007 A 
ATOM     34  C   UNL     1       1.551  -5.507   4.133  0.00  0.00    -0.029 A 
ATOM     35  C   UNL     1       1.555  -7.030   4.401  0.00  0.00    +0.045 C 
ENDROOT
BRANCH  10   9
ATOM      4  C   UNL     1       4.968  -6.511   8.251  0.00  0.00    +0.077 A 
ATOM      5  C   UNL     1       3.791  -6.463   9.070  0.00  0.00    +0.048 A 
ATOM      6  C   UNL     1       2.616  -5.938   8.486  0.00  0.00    +0.116 A 
ATOM      7  N   UNL     1       2.629  -5.497   7.180  0.00  0.00    -0.223 NA
ATOM      8  C   UNL     1       3.781  -5.557   6.419  0.00  0.00    +0.220 A 
ATOM      9  N   UNL     1       3.815  -5.127   5.101  0.00  0.00    -0.283 N 
ATOM     36  H   UNL     1       4.687  -5.181   4.576  0.00  0.00    +0.155 HD
ATOM     37  N   UNL     1       4.917  -6.053   6.954  0.00  0.00    -0.214 NA
BRANCH   4   3
ATOM      1  C   UNL     1       7.791  -8.046  10.481  0.00  0.00    +0.020 A 
ATOM      2  C   UNL     1       6.499  -7.544  10.075  0.00  0.00    +0.013 A 
ATOM      3  C   UNL     1       6.286  -7.042   8.724  0.00  0.00    +0.019 A 
ATOM     38  C   UNL     1       7.409  -7.062   7.800  0.00  0.00    +0.120 A 
ATOM     39  N   UNL     1       8.643  -7.550   8.219  0.00  0.00    -0.263 NA
ATOM     40  C   UNL     1       8.861  -8.035   9.518  0.00  0.00    +0.111 A 
ENDBRANCH   4   3
ENDBRANCH  10   9
BRANCH  12  13
ATOM     13  N   UNL     1       1.308  -1.250   3.248  0.00  0.00    -0.281 N 
ATOM     14  C   UNL     1       1.467  -0.167   4.097  0.00  0.00    +0.248 C 
ATOM     30  O   UNL     1       1.529  -0.248   5.315  0.00  0.00    -0.270 OA
ATOM     31  H   UNL     1       1.076  -1.029   2.279  0.00  0.00    +0.155 HD
BRANCH  14  15
ATOM     15  C   UNL     1       1.555   1.204   3.510  0.00  0.00    +0.037 A 
ATOM     16  C   UNL     1       2.711   1.615   2.709  0.00  0.00    +0.013 A 
ATOM     17  C   UNL     1       2.779   2.950   2.169  0.00  0.00    +0.005 A 
ATOM     18  C   UNL     1       1.685   3.884   2.427  0.00  0.00    -0.033 A 
ATOM     28  C   UNL     1       0.548   3.448   3.221  0.00  0.00    +0.005 A 
ATOM     29  C   UNL     1       0.479   2.141   3.753  0.00  0.00    +0.013 A 
BRANCH  18  19
ATOM     19  C   UNL     1       1.683   5.334   1.908  0.00  0.00    +0.119 C 
BRANCH  19  20
ATOM     20  N   UNL     1       2.848   6.193   2.276  0.00  0.00    -0.302 NA
ATOM     21  C   UNL     1       3.055   6.262   3.791  0.00  0.00    +0.066 C 
ATOM     22  C   UNL     1       4.291   7.147   4.157  0.00  0.00    -0.064 C 
ATOM     23  N   UNL     1       4.103   8.548   3.572  0.00  0.00    +0.379 N 
ATOM     24  C   UNL     1       5.236   9.399   3.963  0.00  0.00    -0.096 C 
ATOM     25  H   UNL     1       3.181   8.982   4.025  0.00  0.00    -0.082 HD
ATOM     26  C   UNL     1       3.893   8.488   2.065  0.00  0.00    -0.064 C 
ATOM     27  C   UNL     1       2.681   7.583   1.711  0.00  0.00    +0.066 C 
ENDBRANCH  19  20
ENDBRANCH  18  19
ENDBRANCH  14  15
ENDBRANCH  12  13
TORSDOF 6
ENDMDL
MODEL 3
REMARK VINA RESULT:     -10.7      1.977      2.240
REMARK  Name = C:\Users\Docking\Desktop\test protocol\1iep_ligandH.pdb
REMARK  8 active torsions:
REMARK  status: ('A' for Active; 'I' for Inactive)
REMARK    1  A    between atoms: _5  and  _11
REMARK    2  A    between atoms: _19  and  _21
REMARK    3  A    between atoms: _22  and  _66
REMARK    4  A    between atoms: _27  and  _30
REMARK    5  A    between atoms: _32  and  _33
REMARK    6  A    between atoms: _38  and  _43
REMARK    7  A    between atoms: _43  and  _46
REMARK    8  A    between atoms: _53  and  _55
REMARK                            x       y       z     vdW  Elec       q    Type
REMARK                         _______ _______ _______ _____ _____    ______ ____
ROOT
ATOM     10  C   UNL     1      11.491 -10.274   8.769  0.00  0.00    +0.038 A 
ATOM     11  C   UNL     1      10.199  -9.889   8.329  0.00  0.00    +0.047 A 
ATOM     12  C   UNL     1       9.529  -8.726   8.888  0.00  0.00    +0.035 A 
ATOM     32  C   UNL     1      10.205  -7.975   9.893  0.00  0.00    +0.024 A 
ATOM     33  C   UNL     1      11.519  -8.352  10.353  0.00  0.00    +0.007 A 
ATOM     34  C   UNL     1      12.183  -9.501   9.806  0.00  0.00    -0.029 A 
ATOM     35  C   UNL     1      13.588  -9.863  10.342  0.00  0.00    +0.045 C 
ENDROOT
BRANCH  10   9
ATOM      4  C   UNL     1      12.385 -13.155   5.035  0.00  0.00    +0.077 A 
ATOM      5  C   UNL     1      11.572 -12.365   4.155  0.00  0.00    +0.048 A 
ATOM      6  C   UNL     1      10.936 -11.229   4.705  0.00  0.00    +0.116 A 
ATOM      7  N   UNL     1      11.107 -10.916   6.036  0.00  0.00    -0.223 NA
ATOM      8  C   UNL     1      11.896 -11.700   6.857  0.00  0.00    +0.220 A 
ATOM      9  N   UNL     1      12.088 -11.400   8.197  0.00  0.00    -0.283 N 
ATOM     36  H   UNL     1      12.671 -12.008   8.771  0.00  0.00    +0.155 HD
ATOM     37  N   UNL     1      12.513 -12.791   6.357  0.00  0.00    -0.214 NA
BRANCH   4   3
ATOM      1  C   UNL     1      13.792 -16.100   2.879  0.00  0.00    +0.020 A 
ATOM      2  C   UNL     1      13.058 -14.911   3.246  0.00  0.00    +0.013 A 
ATOM      3  C   UNL     1      13.124 -14.383   4.603  0.00  0.00    +0.019 A 
ATOM     38  C   UNL     1      13.949 -15.087   5.572  0.00  0.00    +0.120 A 
ATOM     39  N   UNL     1      14.644 -16.231   5.191  0.00  0.00    -0.263 NA
ATOM     40  C   UNL     1      14.587 -16.749   3.889  0.00  0.00    +0.111 A 
ENDBRANCH   4   3
ENDBRANCH  10   9
BRANCH  12  13
ATOM     13  N   UNL     1       8.214  -8.292   8.486  0.00  0.00    -0.281 N 
ATOM     14  C   UNL     1       7.164  -7.892   9.297  0.00  0.00    +0.248 C 
ATOM     30  O   UNL     1       7.127  -8.051  10.508  0.00  0.00    -0.270 OA
ATOM     31  H   UNL     1       8.035  -8.277   7.482  0.00  0.00    +0.155 HD
BRANCH  14  15
ATOM     15  C   UNL     1       5.978  -7.232   8.671  0.00  0.00    +0.037 A 
ATOM     16  C   UNL     1       4.707  -7.114   9.389  0.00  0.00    +0.013 A 
ATOM     17  C   UNL     1       3.573  -6.489   8.755  0.00  0.00    +0.005 A 
ATOM     18  C   UNL     1       3.707  -5.975   7.394  0.00  0.00    -0.033 A 
ATOM     28  C   UNL     1       4.982  -6.101   6.707  0.00  0.00    +0.005 A 
ATOM     29  C   UNL     1       6.094  -6.714   7.324  0.00  0.00    +0.013 A 
BRANCH  18  19
ATOM     19  C   UNL     1       2.545  -5.312   6.632  0.00  0.00    +0.119 C 
BRANCH  19  20
ATOM     20  N   UNL     1       2.295  -5.769   5.233  0.00  0.00    -0.302 NA
ATOM     21  C   UNL     1       1.201  -4.947   4.546  0.00  0.00    +0.066 C 
ATOM     22  C   UNL     1       0.968  -5.424   3.076  0.00  0.00    -0.064 C 
ATOM     23  N   UNL     1       0.609  -6.911   3.075  0.00  0.00    +0.379 N 
ATOM     24  C   UNL     1       0.334  -7.349   1.699  0.00  0.00    -0.096 C 
ATOM     25  H   UNL     1      -0.330  -7.032   3.664  0.00  0.00    -0.082 HD
ATOM     26  C   UNL     1       1.691  -7.735   3.759  0.00  0.00    -0.064 C 
ATOM     27  C   UNL     1       1.935  -7.234   5.209  0.00  0.00    +0.066 C 
ENDBRANCH  19  20
ENDBRANCH  18  19
ENDBRANCH  14  15
ENDBRANCH  12  13
TORSDOF 6
ENDMDL
MODEL 4
REMARK VINA RESULT:     -10.6      1.826      2.272
REMARK  Name = C:\Users\Docking\Desktop\test protocol\1iep_ligandH.pdb
REMARK  8 active torsions:
REMARK  status: ('A' for Active; 'I' for Inactive)
REMARK    1  A    between atoms: _5  and  _11
REMARK    2  A    between atoms: _19  and  _21
REMARK    3  A    between atoms: _22  and  _66
REMARK    4  A    between atoms: _27  and  _30
REMARK    5  A    between atoms: _32  and  _33
REMARK    6  A    between atoms: _38  and  _43
REMARK    7  A    between atoms: _43  and  _46
REMARK    8  A    between atoms: _53  and  _55
REMARK                            x       y       z     vdW  Elec       q    Type
REMARK                         _______ _______ _______ _____ _____    ______ ____
ROOT
ATOM     10  C   UNL     1      11.629 -10.221   8.855  0.00  0.00    +0.038 A 
ATOM     11  C   UNL     1      10.330  -9.861   8.411  0.00  0.00    +0.047 A 
ATOM     12  C   UNL     1       9.620  -8.735   8.996  0.00  0.00    +0.035 A 
ATOM     32  C   UNL     1      10.264  -7.993  10.030  0.00  0.00    +0.024 A 
ATOM     33  C   UNL     1      11.583  -8.346  10.494  0.00  0.00    +0.007 A 
ATOM     34  C   UNL     1      12.287  -9.457   9.922  0.00  0.00    -0.029 A 
ATOM     35  C   UNL     1      13.697  -9.793  10.462  0.00  0.00    +0.045 C 
ENDROOT
BRANCH  10   9
ATOM      4  C   UNL     1      12.479 -13.091   5.103  0.00  0.00    +0.077 A 
ATOM      5  C   UNL     1      11.558 -12.372   4.269  0.00  0.00    +0.048 A 
ATOM      6  C   UNL     1      10.881 -11.275   4.846  0.00  0.00    +0.116 A 
ATOM      7  N   UNL     1      11.115 -10.930   6.160  0.00  0.00    -0.223 NA
ATOM      8  C   UNL     1      12.008 -11.645   6.937  0.00  0.00    +0.220 A 
ATOM      9  N   UNL     1      12.264 -11.311   8.258  0.00  0.00    -0.283 N 
ATOM     36  H   UNL     1      12.925 -11.869   8.799  0.00  0.00    +0.155 HD
ATOM     37  N   UNL     1      12.666 -12.698   6.409  0.00  0.00    -0.214 NA
BRANCH   4   3
ATOM      1  C   UNL     1      14.682 -16.323   5.050  0.00  0.00    +0.020 A 
ATOM      2  C   UNL     1      13.927 -15.197   5.552  0.00  0.00    +0.013 A 
ATOM      3  C   UNL     1      13.273 -14.271   4.636  0.00  0.00    +0.019 A 
ATOM     38  C   UNL     1      13.401 -14.514   3.207  0.00  0.00    +0.120 A 
ATOM     39  N   UNL     1      14.136 -15.605   2.753  0.00  0.00    -0.263 NA
ATOM     40  C   UNL     1      14.771 -16.502   3.624  0.00  0.00    +0.111 A 
ENDBRANCH   4   3
ENDBRANCH  10   9
BRANCH  12  13
ATOM     13  N   UNL     1       8.297  -8.328   8.593  0.00  0.00    -0.281 N 
ATOM     14  C   UNL     1       7.279  -7.830   9.389  0.00  0.00    +0.248 C 
ATOM     30  O   UNL     1       7.281  -7.859  10.611  0.00  0.00    -0.270 OA
ATOM     31  H   UNL     1       8.086  -8.418   7.599  0.00  0.00    +0.155 HD
BRANCH  14  15
ATOM     15  C   UNL     1       6.080  -7.225   8.734  0.00  0.00    +0.037 A 
ATOM     16  C   UNL     1       6.125  -6.762   7.345  0.00  0.00    +0.013 A 
ATOM     17  C   UNL     1       4.959  -6.167   6.742  0.00  0.00    +0.005 A 
ATOM     18  C   UNL     1       3.736  -6.031   7.530  0.00  0.00    -0.033 A 
ATOM     28  C   UNL     1       3.717  -6.503   8.904  0.00  0.00    +0.005 A 
ATOM     29  C   UNL     1       4.859  -7.087   9.498  0.00  0.00    +0.013 A 
BRANCH  18  19
ATOM     19  C   UNL     1       2.451  -5.389   6.975  0.00  0.00    +0.119 C 
BRANCH  19  20
ATOM     20  N   UNL     1       2.250  -5.429   5.495  0.00  0.00    -0.302 NA
ATOM     21  C   UNL     1       1.954  -4.042   4.918  0.00  0.00    +0.066 C 
ATOM     22  C   UNL     1       1.769  -4.098   3.367  0.00  0.00    -0.064 C 
ATOM     23  N   UNL     1       0.645  -5.078   3.025  0.00  0.00    +0.379 N 
ATOM     24  C   UNL     1       0.430  -5.090   1.571  0.00  0.00    -0.096 C 
ATOM     25  H   UNL     1      -0.289  -4.701   3.503  0.00  0.00    -0.082 HD
ATOM     26  C   UNL     1       0.930  -6.459   3.598  0.00  0.00    -0.064 C 
ATOM     27  C   UNL     1       1.142  -6.387   5.136  0.00  0.00    +0.066 C 
ENDBRANCH  19  20
ENDBRANCH  18  19
ENDBRANCH  14  15
ENDBRANCH  12  13
TORSDOF 6
ENDMDL
MODEL 5
REMARK VINA RESULT:     -10.6      2.851     13.223
REMARK  Name = C:\Users\Docking\Desktop\test protocol\1iep_ligandH.pdb
REMARK  8 active torsions:
REMARK  status: ('A' for Active; 'I' for Inactive)
REMARK    1  A    between atoms: _5  and  _11
REMARK    2  A    between atoms: _19  and  _21
REMARK    3  A    between atoms: _22  and  _66
REMARK    4  A    between atoms: _27  and  _30
REMARK    5  A    between atoms: _32  and  _33
REMARK    6  A    between atoms: _38  and  _43
REMARK    7  A    between atoms: _43  and  _46
REMARK    8  A    between atoms: _53  and  _55
REMARK                            x       y       z     vdW  Elec       q    Type
REMARK                         _______ _______ _______ _____ _____    ______ ____
ROOT
ATOM     10  C   UNL     1       3.942  -5.668   6.811  0.00  0.00    +0.038 A 
ATOM     11  C   UNL     1       5.268  -6.170   6.778  0.00  0.00    +0.047 A 
ATOM     12  C   UNL     1       5.814  -6.927   7.894  0.00  0.00    +0.035 A 
ATOM     32  C   UNL     1       4.980  -7.155   9.027  0.00  0.00    +0.024 A 
ATOM     33  C   UNL     1       3.631  -6.651   9.078  0.00  0.00    +0.007 A 
ATOM     34  C   UNL     1       3.087  -5.903   7.981  0.00  0.00    -0.029 A 
ATOM     35  C   UNL     1       1.636  -5.381   8.093  0.00  0.00    +0.045 C 
ENDROOT
BRANCH  10   9
ATOM      4  C   UNL     1       1.228  -5.254   2.873  0.00  0.00    +0.077 A 
ATOM      5  C   UNL     1       0.732  -6.593   3.003  0.00  0.00    +0.048 A 
ATOM      6  C   UNL     1       1.205  -7.359   4.092  0.00  0.00    +0.116 A 
ATOM      7  N   UNL     1       2.107  -6.814   4.980  0.00  0.00    -0.223 NA
ATOM      8  C   UNL     1       2.567  -5.519   4.826  0.00  0.00    +0.220 A 
ATOM      9  N   UNL     1       3.468  -4.949   5.711  0.00  0.00    -0.283 N 
ATOM     36  H   UNL     1       3.789  -3.993   5.558  0.00  0.00    +0.155 HD
ATOM     37  N   UNL     1       2.132  -4.769   3.793  0.00  0.00    -0.214 NA
BRANCH   4   3
ATOM      1  C   UNL     1      -0.622  -2.481   0.827  0.00  0.00    +0.020 A 
ATOM      2  C   UNL     1      -0.268  -3.360   1.917  0.00  0.00    +0.013 A 
ATOM      3  C   UNL     1       0.820  -4.320   1.777  0.00  0.00    +0.019 A 
ATOM     38  C   UNL     1       1.536  -4.363   0.511  0.00  0.00    +0.120 A 
ATOM     39  N   UNL     1       1.172  -3.504  -0.522  0.00  0.00    -0.263 NA
ATOM     40  C   UNL     1       0.125  -2.578  -0.399  0.00  0.00    +0.111 A 
ENDBRANCH   4   3
ENDBRANCH  10   9
BRANCH  12  13
ATOM     13  N   UNL     1       7.156  -7.454   7.920  0.00  0.00    -0.281 N 
ATOM     14  C   UNL     1       8.111  -7.302   8.912  0.00  0.00    +0.248 C 
ATOM     30  O   UNL     1       8.028  -6.506   9.835  0.00  0.00    -0.270 OA
ATOM     31  H   UNL     1       7.435  -8.007   7.110  0.00  0.00    +0.155 HD
BRANCH  14  15
ATOM     15  C   UNL     1       9.344  -8.146   8.863  0.00  0.00    +0.037 A 
ATOM     16  C   UNL     1      10.128  -8.275   7.632  0.00  0.00    +0.013 A 
ATOM     17  C   UNL     1      11.303  -9.109   7.607  0.00  0.00    +0.005 A 
ATOM     18  C   UNL     1      11.702  -9.821   8.819  0.00  0.00    -0.033 A 
ATOM     28  C   UNL     1      10.909  -9.671  10.028  0.00  0.00    +0.005 A 
ATOM     29  C   UNL     1       9.756  -8.855  10.056  0.00  0.00    +0.013 A 
BRANCH  18  19
ATOM     19  C   UNL     1      12.929 -10.749   8.878  0.00  0.00    +0.119 C 
BRANCH  19  20
ATOM     20  N   UNL     1      14.231 -10.137   9.280  0.00  0.00    -0.302 NA
ATOM     21  C   UNL     1      15.421 -11.033   8.925  0.00  0.00    +0.066 C 
ATOM     22  C   UNL     1      16.776 -10.368   9.332  0.00  0.00    -0.064 C 
ATOM     23  N   UNL     1      16.759 -10.058  10.830  0.00  0.00    +0.379 N 
ATOM     24  C   UNL     1      18.053  -9.485  11.227  0.00  0.00    -0.096 C 
ATOM     25  H   UNL     1      16.635 -11.023  11.374  0.00  0.00    -0.082 HD
ATOM     26  C   UNL     1      15.577  -9.169  11.192  0.00  0.00    -0.064 C 
ATOM     27  C   UNL     1      14.238  -9.826  10.757  0.00  0.00    +0.066 C 
ENDBRANCH  19  20
ENDBRANCH  18  19
ENDBRANCH  14  15
ENDBRANCH  12  13
TORSDOF 6
ENDMDL
