MODEL 1
REMARK VINA RESULT:      -8.5      0.000      0.000
REMARK  Name = C:\Users\Docking\Desktop\test protocol\1iep_ligandH.pdb
REMARK  8 active torsions:
REMARK  status: ('A' for Active; 'I' for Inactive)
REMARK    1  A    between atoms: _5  and  _11
REMARK    2  A    between atoms: _19  and  _21
REMARK    3  A    between atoms: _22  and  _66
REMARK    4  A    between atoms: _27  and  _30
REMARK    5  A    between atoms: _32  and  _33
REMARK    6  A    between atoms: _38  and  _43
REMARK    7  A    between atoms: _43  and  _46
REMARK    8  A    between atoms: _53  and  _55
REMARK                            x       y       z     vdW  Elec       q    Type
REMARK                         _______ _______ _______ _____ _____    ______ ____
ROOT
ATOM     10  C   UNL     1       9.811  19.322  23.163  0.00  0.00    +0.038 A 
ATOM     11  C   UNL     1      10.916  18.700  23.800  0.00  0.00    +0.047 A 
ATOM     12  C   UNL     1      10.829  18.240  25.178  0.00  0.00    +0.035 A 
ATOM     32  C   UNL     1       9.601  18.428  25.876  0.00  0.00    +0.024 A 
ATOM     33  C   UNL     1       8.469  19.059  25.245  0.00  0.00    +0.007 A 
ATOM     34  C   UNL     1       8.549  19.517  23.887  0.00  0.00    -0.029 A 
ATOM     35  C   UNL     1       7.306  20.192  23.263  0.00  0.00    +0.045 C 
ENDROOT
BRANCH  10   9
ATOM      4  C   UNL     1       9.385  18.628  18.433  0.00  0.00    +0.077 A 
ATOM      5  C   UNL     1       8.868  17.302  18.615  0.00  0.00    +0.048 A 
ATOM      6  C   UNL     1       8.733  16.834  19.941  0.00  0.00    +0.116 A 
ATOM      7  N   UNL     1       9.093  17.640  20.999  0.00  0.00    -0.223 NA
ATOM      8  C   UNL     1       9.590  18.913  20.789  0.00  0.00    +0.220 A 
ATOM      9  N   UNL     1       9.950  19.744  21.839  0.00  0.00    -0.283 N 
ATOM     36  H   UNL     1      10.320  20.673  21.643  0.00  0.00    +0.155 HD
ATOM     37  N   UNL     1       9.729  19.383  19.532  0.00  0.00    -0.214 NA
BRANCH   4   3
ATOM      1  C   UNL     1       9.000  20.957  15.314  0.00  0.00    +0.020 A 
ATOM      2  C   UNL     1       8.768  20.376  16.617  0.00  0.00    +0.013 A 
ATOM      3  C   UNL     1       9.583  19.265  17.093  0.00  0.00    +0.019 A 
ATOM     38  C   UNL     1      10.632  18.762  16.220  0.00  0.00    +0.120 A 
ATOM     39  N   UNL     1      10.832  19.339  14.970  0.00  0.00    -0.263 NA
ATOM     40  C   UNL     1      10.053  20.408  14.501  0.00  0.00    +0.111 A 
ENDBRANCH   4   3
ENDBRANCH  10   9
BRANCH  12  13
ATOM     13  N   UNL     1      11.919  17.609  25.879  0.00  0.00    -0.281 N 
ATOM     14  C   UNL     1      12.579  18.060  27.011  0.00  0.00    +0.248 C 
ATOM     30  O   UNL     1      12.470  19.187  27.470  0.00  0.00    -0.270 OA
ATOM     31  H   UNL     1      12.245  16.722  25.494  0.00  0.00    +0.155 HD
BRANCH  14  15
ATOM     15  C   UNL     1      13.502  17.129  27.728  0.00  0.00    +0.037 A 
ATOM     16  C   UNL     1      13.030  15.847  28.256  0.00  0.00    +0.013 A 
ATOM     17  C   UNL     1      13.938  14.976  28.958  0.00  0.00    +0.005 A 
ATOM     18  C   UNL     1      15.330  15.383  29.135  0.00  0.00    -0.033 A 
ATOM     28  C   UNL     1      15.773  16.658  28.596  0.00  0.00    +0.005 A 
ATOM     29  C   UNL     1      14.886  17.516  27.908  0.00  0.00    +0.013 A 
BRANCH  18  19
ATOM     19  C   UNL     1      16.363  14.526  29.889  0.00  0.00    +0.119 C 
BRANCH  19  20
ATOM     20  N   UNL     1      17.806  14.850  29.678  0.00  0.00    -0.302 NA
ATOM     21  C   UNL     1      18.496  13.832  28.766  0.00  0.00    +0.066 C 
ATOM     22  C   UNL     1      19.998  14.199  28.538  0.00  0.00    -0.064 C 
ATOM     23  N   UNL     1      20.710  14.287  29.889  0.00  0.00    +0.379 N 
ATOM     24  C   UNL     1      22.136  14.575  29.674  0.00  0.00    -0.096 C 
ATOM     25  H   UNL     1      20.637  13.286  30.375  0.00  0.00    -0.082 HD
ATOM     26  C   UNL     1      20.029  15.296  30.802  0.00  0.00    -0.064 C 
ATOM     27  C   UNL     1      18.529  14.938  30.999  0.00  0.00    +0.066 C 
ENDBRANCH  19  20
ENDBRANCH  18  19
ENDBRANCH  14  15
ENDBRANCH  12  13
TORSDOF 6
ENDMDL
MODEL 2
REMARK VINA RESULT:      -8.2      4.318      6.921
REMARK  Name = C:\Users\Docking\Desktop\test protocol\1iep_ligandH.pdb
REMARK  8 active torsions:
REMARK  status: ('A' for Active; 'I' for Inactive)
REMARK    1  A    between atoms: _5  and  _11
REMARK    2  A    between atoms: _19  and  _21
REMARK    3  A    between atoms: _22  and  _66
REMARK    4  A    between atoms: _27  and  _30
REMARK    5  A    between atoms: _32  and  _33
REMARK    6  A    between atoms: _38  and  _43
REMARK    7  A    between atoms: _43  and  _46
REMARK    8  A    between atoms: _53  and  _55
REMARK                            x       y       z     vdW  Elec       q    Type
REMARK                         _______ _______ _______ _____ _____    ______ ____
ROOT
ATOM     10  C   UNL     1       7.419  21.187  19.637  0.00  0.00    +0.038 A 
ATOM     11  C   UNL     1       8.202  20.824  20.763  0.00  0.00    +0.047 A 
ATOM     12  C   UNL     1       9.128  19.704  20.706  0.00  0.00    +0.035 A 
ATOM     32  C   UNL     1       9.233  18.976  19.484  0.00  0.00    +0.024 A 
ATOM     33  C   UNL     1       8.444  19.331  18.331  0.00  0.00    +0.007 A 
ATOM     34  C   UNL     1       7.527  20.433  18.382  0.00  0.00    -0.029 A 
ATOM     35  C   UNL     1       6.702  20.765  17.117  0.00  0.00    +0.045 C 
ENDROOT
BRANCH  10   9
ATOM      4  C   UNL     1       3.497  23.298  21.426  0.00  0.00    +0.077 A 
ATOM      5  C   UNL     1       3.143  22.132  22.184  0.00  0.00    +0.048 A 
ATOM      6  C   UNL     1       3.992  21.008  22.080  0.00  0.00    +0.116 A 
ATOM      7  N   UNL     1       5.110  21.058  21.276  0.00  0.00    -0.223 NA
ATOM      8  C   UNL     1       5.422  22.197  20.557  0.00  0.00    +0.220 A 
ATOM      9  N   UNL     1       6.546  22.272  19.748  0.00  0.00    -0.283 N 
ATOM     36  H   UNL     1       6.737  23.128  19.228  0.00  0.00    +0.155 HD
ATOM     37  N   UNL     1       4.626  23.283  20.638  0.00  0.00    -0.214 NA
BRANCH   4   3
ATOM      1  C   UNL     1       1.737  26.608  20.310  0.00  0.00    +0.020 A 
ATOM      2  C   UNL     1       2.516  25.393  20.248  0.00  0.00    +0.013 A 
ATOM      3  C   UNL     1       2.701  24.566  21.434  0.00  0.00    +0.019 A 
ATOM     38  C   UNL     1       2.079  25.001  22.676  0.00  0.00    +0.120 A 
ATOM     39  N   UNL     1       1.336  26.177  22.706  0.00  0.00    -0.263 NA
ATOM     40  C   UNL     1       1.153  26.981  21.571  0.00  0.00    +0.111 A 
ENDBRANCH   4   3
ENDBRANCH  10   9
BRANCH  12  13
ATOM     13  N   UNL     1       9.943  19.284  21.818  0.00  0.00    -0.281 N 
ATOM     14  C   UNL     1      10.415  20.055  22.868  0.00  0.00    +0.248 C 
ATOM     30  O   UNL     1      10.384  21.277  22.895  0.00  0.00    -0.270 OA
ATOM     31  H   UNL     1      10.204  18.298  21.835  0.00  0.00    +0.155 HD
BRANCH  14  15
ATOM     15  C   UNL     1      11.020  19.372  24.051  0.00  0.00    +0.037 A 
ATOM     16  C   UNL     1      12.319  18.701  23.958  0.00  0.00    +0.013 A 
ATOM     17  C   UNL     1      12.873  18.035  25.111  0.00  0.00    +0.005 A 
ATOM     18  C   UNL     1      12.127  18.039  26.367  0.00  0.00    -0.033 A 
ATOM     28  C   UNL     1      10.843  18.717  26.432  0.00  0.00    +0.005 A 
ATOM     29  C   UNL     1      10.297  19.370  25.305  0.00  0.00    +0.013 A 
BRANCH  18  19
ATOM     19  C   UNL     1      12.632  17.335  27.641  0.00  0.00    +0.119 C 
BRANCH  19  20
ATOM     20  N   UNL     1      13.850  16.482  27.514  0.00  0.00    -0.302 NA
ATOM     21  C   UNL     1      13.735  15.190  28.328  0.00  0.00    +0.066 C 
ATOM     22  C   UNL     1      15.008  14.298  28.166  0.00  0.00    -0.064 C 
ATOM     23  N   UNL     1      16.243  15.096  28.588  0.00  0.00    +0.379 N 
ATOM     24  C   UNL     1      17.436  14.242  28.492  0.00  0.00    -0.096 C 
ATOM     25  H   UNL     1      16.114  15.377  29.659  0.00  0.00    -0.082 HD
ATOM     26  C   UNL     1      16.365  16.384  27.785  0.00  0.00    -0.064 C 
ATOM     27  C   UNL     1      15.081  17.248  27.930  0.00  0.00    +0.066 C 
ENDBRANCH  19  20
ENDBRANCH  18  19
ENDBRANCH  14  15
ENDBRANCH  12  13
TORSDOF 6
ENDMDL
MODEL 3
REMARK VINA RESULT:      -8.1      6.571     14.351
REMARK  Name = C:\Users\Docking\Desktop\test protocol\1iep_ligandH.pdb
REMARK  8 active torsions:
REMARK  status: ('A' for Active; 'I' for Inactive)
REMARK    1  A    between atoms: _5  and  _11
REMARK    2  A    between atoms: _19  and  _21
REMARK    3  A    between atoms: _22  and  _66
REMARK    4  A    between atoms: _27  and  _30
REMARK    5  A    between atoms: _32  and  _33
REMARK    6  A    between atoms: _38  and  _43
REMARK    7  A    between atoms: _43  and  _46
REMARK    8  A    between atoms: _53  and  _55
REMARK                            x       y       z     vdW  Elec       q    Type
REMARK                         _______ _______ _______ _____ _____    ______ ____
ROOT
ATOM     10  C   UNL     1       8.551  20.324  19.735  0.00  0.00    +0.038 A 
ATOM     11  C   UNL     1       7.606  21.313  20.109  0.00  0.00    +0.047 A 
ATOM     12  C   UNL     1       6.517  21.688  19.220  0.00  0.00    +0.035 A 
ATOM     32  C   UNL     1       6.419  21.032  17.958  0.00  0.00    +0.024 A 
ATOM     33  C   UNL     1       7.372  20.025  17.562  0.00  0.00    +0.007 A 
ATOM     34  C   UNL     1       8.449  19.653  18.433  0.00  0.00    -0.029 A 
ATOM     35  C   UNL     1       9.445  18.572  17.953  0.00  0.00    +0.045 C 
ENDROOT
BRANCH  10   9
ATOM      4  C   UNL     1      10.123  18.739  23.984  0.00  0.00    +0.077 A 
ATOM      5  C   UNL     1       8.788  18.559  24.477  0.00  0.00    +0.048 A 
ATOM      6  C   UNL     1       7.725  18.893  23.609  0.00  0.00    +0.116 A 
ATOM      7  N   UNL     1       7.989  19.370  22.343  0.00  0.00    -0.223 NA
ATOM      8  C   UNL     1       9.288  19.533  21.899  0.00  0.00    +0.220 A 
ATOM      9  N   UNL     1       9.577  20.003  20.627  0.00  0.00    -0.283 N 
ATOM     36  H   UNL     1      10.549  20.116  20.340  0.00  0.00    +0.155 HD
ATOM     37  N   UNL     1      10.321  19.222  22.710  0.00  0.00    -0.214 NA
BRANCH   4   3
ATOM      1  C   UNL     1      12.518  17.669  26.886  0.00  0.00    +0.020 A 
ATOM      2  C   UNL     1      11.302  17.956  26.160  0.00  0.00    +0.013 A 
ATOM      3  C   UNL     1      11.351  18.427  24.782  0.00  0.00    +0.019 A 
ATOM     38  C   UNL     1      12.656  18.597  24.161  0.00  0.00    +0.120 A 
ATOM     39  N   UNL     1      13.810  18.314  24.885  0.00  0.00    -0.263 NA
ATOM     40  C   UNL     1      13.776  17.862  26.213  0.00  0.00    +0.111 A 
ENDBRANCH   4   3
ENDBRANCH  10   9
BRANCH  12  13
ATOM     13  N   UNL     1       5.533  22.691  19.542  0.00  0.00    -0.281 N 
ATOM     14  C   UNL     1       4.616  22.682  20.581  0.00  0.00    +0.248 C 
ATOM     30  O   UNL     1       4.360  21.704  21.268  0.00  0.00    -0.270 OA
ATOM     31  H   UNL     1       5.508  23.506  18.930  0.00  0.00    +0.155 HD
BRANCH  14  15
ATOM     15  C   UNL     1       3.865  23.936  20.892  0.00  0.00    +0.037 A 
ATOM     16  C   UNL     1       4.493  25.034  21.631  0.00  0.00    +0.013 A 
ATOM     17  C   UNL     1       3.741  26.226  21.933  0.00  0.00    +0.005 A 
ATOM     18  C   UNL     1       2.352  26.327  21.493  0.00  0.00    -0.033 A 
ATOM     28  C   UNL     1       1.755  25.224  20.757  0.00  0.00    +0.005 A 
ATOM     29  C   UNL     1       2.489  24.054  20.461  0.00  0.00    +0.013 A 
BRANCH  18  19
ATOM     19  C   UNL     1       1.467  27.552  21.790  0.00  0.00    +0.119 C 
BRANCH  19  20
ATOM     20  N   UNL     1       2.026  28.595  22.701  0.00  0.00    -0.302 NA
ATOM     21  C   UNL     1       1.640  28.347  24.162  0.00  0.00    +0.066 C 
ATOM     22  C   UNL     1       2.252  29.434  25.105  0.00  0.00    -0.064 C 
ATOM     23  N   UNL     1       1.789  30.819  24.650  0.00  0.00    +0.379 N 
ATOM     24  C   UNL     1       2.316  31.839  25.568  0.00  0.00    -0.096 C 
ATOM     25  H   UNL     1       0.677  30.843  24.719  0.00  0.00    -0.082 HD
ATOM     26  C   UNL     1       2.167  31.072  23.197  0.00  0.00    -0.064 C 
ATOM     27  C   UNL     1       1.578  29.970  22.273  0.00  0.00    +0.066 C 
ENDBRANCH  19  20
ENDBRANCH  18  19
ENDBRANCH  14  15
ENDBRANCH  12  13
TORSDOF 6
ENDMDL
