MODEL 1
REMARK VINA RESULT:     -10.4      0.000      0.000
REMARK  Name = C:\Users\Docking\Desktop\test protocol\1iep_ligandH.pdb
REMARK  8 active torsions:
REMARK  status: ('A' for Active; 'I' for Inactive)
REMARK    1  A    between atoms: _5  and  _11
REMARK    2  A    between atoms: _19  and  _21
REMARK    3  A    between atoms: _22  and  _66
REMARK    4  A    between atoms: _27  and  _30
REMARK    5  A    between atoms: _32  and  _33
REMARK    6  A    between atoms: _38  and  _43
REMARK    7  A    between atoms: _43  and  _46
REMARK    8  A    between atoms: _53  and  _55
REMARK                            x       y       z     vdW  Elec       q    Type
REMARK                         _______ _______ _______ _____ _____    ______ ____
ROOT
ATOM     10  C   UNL     1      17.980  45.043  57.310  0.00  0.00    +0.038 A 
ATOM     11  C   UNL     1      18.966  44.877  56.304  0.00  0.00    +0.047 A 
ATOM     12  C   UNL     1      19.557  43.574  56.038  0.00  0.00    +0.035 A 
ATOM     32  C   UNL     1      19.119  42.463  56.815  0.00  0.00    +0.024 A 
ATOM     33  C   UNL     1      18.120  42.614  57.843  0.00  0.00    +0.007 A 
ATOM     34  C   UNL     1      17.535  43.897  58.111  0.00  0.00    -0.029 A 
ATOM     35  C   UNL     1      16.472  44.002  59.230  0.00  0.00    +0.045 C 
ENDROOT
BRANCH  10   9
ATOM      4  C   UNL     1      14.830  48.529  56.331  0.00  0.00    +0.077 A 
ATOM      5  C   UNL     1      14.213  47.760  55.289  0.00  0.00    +0.048 A 
ATOM      6  C   UNL     1      14.741  46.475  55.032  0.00  0.00    +0.116 A 
ATOM      7  N   UNL     1      15.806  46.004  55.768  0.00  0.00    -0.223 NA
ATOM      8  C   UNL     1      16.379  46.773  56.765  0.00  0.00    +0.220 A 
ATOM      9  N   UNL     1      17.446  46.316  57.523  0.00  0.00    -0.283 N 
ATOM     36  H   UNL     1      17.846  46.916  58.244  0.00  0.00    +0.155 HD
ATOM     37  N   UNL     1      15.894  48.004  57.029  0.00  0.00    -0.214 NA
BRANCH   4   3
ATOM      1  C   UNL     1      12.728  51.807  56.705  0.00  0.00    +0.020 A 
ATOM      2  C   UNL     1      13.112  50.475  56.298  0.00  0.00    +0.013 A 
ATOM      3  C   UNL     1      14.383  49.903  56.724  0.00  0.00    +0.019 A 
ATOM     38  C   UNL     1      15.249  50.712  57.569  0.00  0.00    +0.120 A 
ATOM     39  N   UNL     1      14.853  51.992  57.944  0.00  0.00    -0.263 NA
ATOM     40  C   UNL     1      13.633  52.553  57.539  0.00  0.00    +0.111 A 
ENDBRANCH   4   3
ENDBRANCH  10   9
BRANCH  12  13
ATOM     13  N   UNL     1      20.567  43.346  55.035  0.00  0.00    -0.281 N 
ATOM     14  C   UNL     1      21.912  43.671  55.091  0.00  0.00    +0.248 C 
ATOM     30  O   UNL     1      22.412  44.404  55.932  0.00  0.00    -0.270 OA
ATOM     31  H   UNL     1      20.251  42.889  54.179  0.00  0.00    +0.155 HD
BRANCH  14  15
ATOM     15  C   UNL     1      22.834  43.112  54.056  0.00  0.00    +0.037 A 
ATOM     16  C   UNL     1      22.317  42.422  52.871  0.00  0.00    +0.013 A 
ATOM     17  C   UNL     1      23.229  41.877  51.896  0.00  0.00    +0.005 A 
ATOM     18  C   UNL     1      24.668  42.022  52.102  0.00  0.00    -0.033 A 
ATOM     28  C   UNL     1      25.153  42.715  53.284  0.00  0.00    +0.005 A 
ATOM     29  C   UNL     1      24.263  43.249  54.242  0.00  0.00    +0.013 A 
BRANCH  18  19
ATOM     19  C   UNL     1      25.714  41.453  51.124  0.00  0.00    +0.119 C 
BRANCH  19  20
ATOM     20  N   UNL     1      27.067  41.144  51.675  0.00  0.00    -0.302 NA
ATOM     21  C   UNL     1      27.784  42.400  52.178  0.00  0.00    +0.066 C 
ATOM     22  C   UNL     1      29.188  42.055  52.771  0.00  0.00    -0.064 C 
ATOM     23  N   UNL     1      30.026  41.342  51.708  0.00  0.00    +0.379 N 
ATOM     24  C   UNL     1      31.368  41.067  52.244  0.00  0.00    -0.096 C 
ATOM     25  H   UNL     1      30.142  42.038  50.846  0.00  0.00    -0.082 HD
ATOM     26  C   UNL     1      29.320  40.093  51.201  0.00  0.00    -0.064 C 
ATOM     27  C   UNL     1      27.913  40.443  50.640  0.00  0.00    +0.066 C 
ENDBRANCH  19  20
ENDBRANCH  18  19
ENDBRANCH  14  15
ENDBRANCH  12  13
TORSDOF 6
ENDMDL
MODEL 2
REMARK VINA RESULT:      -9.7      7.592     13.874
REMARK  Name = C:\Users\Docking\Desktop\test protocol\1iep_ligandH.pdb
REMARK  8 active torsions:
REMARK  status: ('A' for Active; 'I' for Inactive)
REMARK    1  A    between atoms: _5  and  _11
REMARK    2  A    between atoms: _19  and  _21
REMARK    3  A    between atoms: _22  and  _66
REMARK    4  A    between atoms: _27  and  _30
REMARK    5  A    between atoms: _32  and  _33
REMARK    6  A    between atoms: _38  and  _43
REMARK    7  A    between atoms: _43  and  _46
REMARK    8  A    between atoms: _53  and  _55
REMARK                            x       y       z     vdW  Elec       q    Type
REMARK                         _______ _______ _______ _____ _____    ______ ____
ROOT
ATOM     10  C   UNL     1      29.357  40.198  49.747  0.00  0.00    +0.038 A 
ATOM     11  C   UNL     1      29.831  40.924  48.624  0.00  0.00    +0.047 A 
ATOM     12  C   UNL     1      31.195  40.766  48.146  0.00  0.00    +0.035 A 
ATOM     32  C   UNL     1      32.051  39.856  48.834  0.00  0.00    +0.024 A 
ATOM     33  C   UNL     1      31.587  39.110  49.977  0.00  0.00    +0.007 A 
ATOM     34  C   UNL     1      30.242  39.265  50.455  0.00  0.00    -0.029 A 
ATOM     35  C   UNL     1      29.801  38.444  51.689  0.00  0.00    +0.045 C 
ENDROOT
BRANCH  10   9
ATOM      4  C   UNL     1      26.045  42.381  52.448  0.00  0.00    +0.077 A 
ATOM      5  C   UNL     1      27.030  43.191  53.106  0.00  0.00    +0.048 A 
ATOM      6  C   UNL     1      28.378  43.010  52.725  0.00  0.00    +0.116 A 
ATOM      7  N   UNL     1      28.706  42.085  51.757  0.00  0.00    -0.223 NA
ATOM      8  C   UNL     1      27.732  41.319  51.144  0.00  0.00    +0.220 A 
ATOM      9  N   UNL     1      28.038  40.388  50.163  0.00  0.00    -0.283 N 
ATOM     36  H   UNL     1      27.291  39.838  49.740  0.00  0.00    +0.155 HD
ATOM     37  N   UNL     1      26.437  41.472  51.491  0.00  0.00    -0.214 NA
BRANCH   4   3
ATOM      1  C   UNL     1      22.619  43.074  54.204  0.00  0.00    +0.020 A 
ATOM      2  C   UNL     1      24.044  43.023  53.972  0.00  0.00    +0.013 A 
ATOM      3  C   UNL     1      24.578  42.458  52.739  0.00  0.00    +0.019 A 
ATOM     38  C   UNL     1      23.636  41.950  51.753  0.00  0.00    +0.120 A 
ATOM     39  N   UNL     1      22.269  42.012  52.004  0.00  0.00    -0.263 NA
ATOM     40  C   UNL     1      21.743  42.552  53.188  0.00  0.00    +0.111 A 
ENDBRANCH   4   3
ENDBRANCH  10   9
BRANCH  12  13
ATOM     13  N   UNL     1      31.734  41.482  47.017  0.00  0.00    -0.281 N 
ATOM     14  C   UNL     1      31.642  41.151  45.675  0.00  0.00    +0.248 C 
ATOM     30  O   UNL     1      31.263  40.067  45.255  0.00  0.00    -0.270 OA
ATOM     31  H   UNL     1      32.245  42.338  47.233  0.00  0.00    +0.155 HD
BRANCH  14  15
ATOM     15  C   UNL     1      32.043  42.163  44.652  0.00  0.00    +0.037 A 
ATOM     16  C   UNL     1      31.399  43.478  44.591  0.00  0.00    +0.013 A 
ATOM     17  C   UNL     1      31.793  44.430  43.583  0.00  0.00    +0.005 A 
ATOM     18  C   UNL     1      32.838  44.071  42.628  0.00  0.00    -0.033 A 
ATOM     28  C   UNL     1      33.464  42.762  42.714  0.00  0.00    +0.005 A 
ATOM     29  C   UNL     1      33.079  41.825  43.700  0.00  0.00    +0.013 A 
BRANCH  18  19
ATOM     19  C   UNL     1      33.307  45.016  41.506  0.00  0.00    +0.119 C 
BRANCH  19  20
ATOM     20  N   UNL     1      32.589  44.935  40.199  0.00  0.00    -0.302 NA
ATOM     21  C   UNL     1      31.753  46.188  39.924  0.00  0.00    +0.066 C 
ATOM     22  C   UNL     1      31.026  46.096  38.542  0.00  0.00    -0.064 C 
ATOM     23  N   UNL     1      30.150  44.843  38.513  0.00  0.00    +0.379 N 
ATOM     24  C   UNL     1      29.421  44.784  37.238  0.00  0.00    -0.096 C 
ATOM     25  H   UNL     1      29.396  44.938  39.329  0.00  0.00    -0.082 HD
ATOM     26  C   UNL     1      30.973  43.592  38.788  0.00  0.00    -0.064 C 
ATOM     27  C   UNL     1      31.714  43.707  40.149  0.00  0.00    +0.066 C 
ENDBRANCH  19  20
ENDBRANCH  18  19
ENDBRANCH  14  15
ENDBRANCH  12  13
TORSDOF 6
ENDMDL
MODEL 3
REMARK VINA RESULT:      -9.7      5.029     15.274
REMARK  Name = C:\Users\Docking\Desktop\test protocol\1iep_ligandH.pdb
REMARK  8 active torsions:
REMARK  status: ('A' for Active; 'I' for Inactive)
REMARK    1  A    between atoms: _5  and  _11
REMARK    2  A    between atoms: _19  and  _21
REMARK    3  A    between atoms: _22  and  _66
REMARK    4  A    between atoms: _27  and  _30
REMARK    5  A    between atoms: _32  and  _33
REMARK    6  A    between atoms: _38  and  _43
REMARK    7  A    between atoms: _43  and  _46
REMARK    8  A    between atoms: _53  and  _55
REMARK                            x       y       z     vdW  Elec       q    Type
REMARK                         _______ _______ _______ _____ _____    ______ ____
ROOT
ATOM     10  C   UNL     1      30.894  41.229  49.209  0.00  0.00    +0.038 A 
ATOM     11  C   UNL     1      29.564  41.394  49.675  0.00  0.00    +0.047 A 
ATOM     12  C   UNL     1      29.196  41.047  51.039  0.00  0.00    +0.035 A 
ATOM     32  C   UNL     1      30.209  40.537  51.903  0.00  0.00    +0.024 A 
ATOM     33  C   UNL     1      31.565  40.361  51.446  0.00  0.00    +0.007 A 
ATOM     34  C   UNL     1      31.933  40.700  50.101  0.00  0.00    -0.029 A 
ATOM     35  C   UNL     1      33.401  40.485  49.663  0.00  0.00    +0.045 C 
ENDROOT
BRANCH  10   9
ATOM      4  C   UNL     1      31.939  44.463  45.820  0.00  0.00    +0.077 A 
ATOM      5  C   UNL     1      31.858  45.551  46.751  0.00  0.00    +0.048 A 
ATOM      6  C   UNL     1      31.538  45.237  48.090  0.00  0.00    +0.116 A 
ATOM      7  N   UNL     1      31.318  43.929  48.461  0.00  0.00    -0.223 NA
ATOM      8  C   UNL     1      31.402  42.902  47.538  0.00  0.00    +0.220 A 
ATOM      9  N   UNL     1      31.192  41.578  47.890  0.00  0.00    -0.283 N 
ATOM     36  H   UNL     1      31.256  40.851  47.178  0.00  0.00    +0.155 HD
ATOM     37  N   UNL     1      31.704  43.176  46.252  0.00  0.00    -0.214 NA
BRANCH   4   3
ATOM      1  C   UNL     1      32.969  46.024  42.385  0.00  0.00    +0.020 A 
ATOM      2  C   UNL     1      32.658  45.914  43.791  0.00  0.00    +0.013 A 
ATOM      3  C   UNL     1      32.270  44.633  44.370  0.00  0.00    +0.019 A 
ATOM     38  C   UNL     1      32.206  43.475  43.491  0.00  0.00    +0.120 A 
ATOM     39  N   UNL     1      32.509  43.613  42.140  0.00  0.00    -0.263 NA
ATOM     40  C   UNL     1      32.882  44.840  41.572  0.00  0.00    +0.111 A 
ENDBRANCH   4   3
ENDBRANCH  10   9
BRANCH  12  13
ATOM     13  N   UNL     1      27.861  41.185  51.565  0.00  0.00    -0.281 N 
ATOM     14  C   UNL     1      27.323  42.262  52.250  0.00  0.00    +0.248 C 
ATOM     30  O   UNL     1      27.977  43.189  52.703  0.00  0.00    -0.270 OA
ATOM     31  H   UNL     1      27.237  40.392  51.414  0.00  0.00    +0.155 HD
BRANCH  14  15
ATOM     15  C   UNL     1      25.847  42.309  52.477  0.00  0.00    +0.037 A 
ATOM     16  C   UNL     1      25.269  43.105  53.563  0.00  0.00    +0.013 A 
ATOM     17  C   UNL     1      23.843  43.119  53.771  0.00  0.00    +0.005 A 
ATOM     18  C   UNL     1      22.983  42.334  52.888  0.00  0.00    -0.033 A 
ATOM     28  C   UNL     1      23.582  41.557  51.816  0.00  0.00    +0.005 A 
ATOM     29  C   UNL     1      24.980  41.540  51.610  0.00  0.00    +0.013 A 
BRANCH  18  19
ATOM     19  C   UNL     1      21.453  42.273  53.049  0.00  0.00    +0.119 C 
BRANCH  19  20
ATOM     20  N   UNL     1      20.840  43.141  54.099  0.00  0.00    -0.302 NA
ATOM     21  C   UNL     1      20.856  42.474  55.477  0.00  0.00    +0.066 C 
ATOM     22  C   UNL     1      20.232  43.406  56.567  0.00  0.00    -0.064 C 
ATOM     23  N   UNL     1      18.805  43.776  56.161  0.00  0.00    +0.379 N 
ATOM     24  C   UNL     1      18.195  44.605  57.212  0.00  0.00    -0.096 C 
ATOM     25  H   UNL     1      18.217  42.832  56.091  0.00  0.00    -0.082 HD
ATOM     26  C   UNL     1      18.780  44.438  54.790  0.00  0.00    -0.064 C 
ATOM     27  C   UNL     1      19.429  43.516  53.720  0.00  0.00    +0.066 C 
ENDBRANCH  19  20
ENDBRANCH  18  19
ENDBRANCH  14  15
ENDBRANCH  12  13
TORSDOF 6
ENDMDL
MODEL 4
REMARK VINA RESULT:      -9.2      7.777     14.079
REMARK  Name = C:\Users\Docking\Desktop\test protocol\1iep_ligandH.pdb
REMARK  8 active torsions:
REMARK  status: ('A' for Active; 'I' for Inactive)
REMARK    1  A    between atoms: _5  and  _11
REMARK    2  A    between atoms: _19  and  _21
REMARK    3  A    between atoms: _22  and  _66
REMARK    4  A    between atoms: _27  and  _30
REMARK    5  A    between atoms: _32  and  _33
REMARK    6  A    between atoms: _38  and  _43
REMARK    7  A    between atoms: _43  and  _46
REMARK    8  A    between atoms: _53  and  _55
REMARK                            x       y       z     vdW  Elec       q    Type
REMARK                         _______ _______ _______ _____ _____    ______ ____
ROOT
ATOM     10  C   UNL     1      30.666  44.226  51.137  0.00  0.00    +0.038 A 
ATOM     11  C   UNL     1      30.961  44.309  49.752  0.00  0.00    +0.047 A 
ATOM     12  C   UNL     1      32.335  44.347  49.276  0.00  0.00    +0.035 A 
ATOM     32  C   UNL     1      33.385  44.295  50.239  0.00  0.00    +0.024 A 
ATOM     33  C   UNL     1      33.103  44.212  51.651  0.00  0.00    +0.007 A 
ATOM     34  C   UNL     1      31.750  44.177  52.126  0.00  0.00    -0.029 A 
ATOM     35  C   UNL     1      31.507  44.093  53.651  0.00  0.00    +0.045 C 
ENDROOT
BRANCH  10   9
ATOM      4  C   UNL     1      26.536  41.907  51.913  0.00  0.00    +0.077 A 
ATOM      5  C   UNL     1      27.081  40.661  51.455  0.00  0.00    +0.048 A 
ATOM      6  C   UNL     1      28.426  40.662  51.022  0.00  0.00    +0.116 A 
ATOM      7  N   UNL     1      29.162  41.827  51.049  0.00  0.00    -0.223 NA
ATOM      8  C   UNL     1      28.605  43.011  51.495  0.00  0.00    +0.220 A 
ATOM      9  N   UNL     1      29.329  44.193  51.538  0.00  0.00    -0.283 N 
ATOM     36  H   UNL     1      28.880  45.047  51.867  0.00  0.00    +0.155 HD
ATOM     37  N   UNL     1      27.322  43.038  51.912  0.00  0.00    -0.214 NA
BRANCH   4   3
ATOM      1  C   UNL     1      22.663  41.552  52.329  0.00  0.00    +0.020 A 
ATOM      2  C   UNL     1      24.000  41.362  51.816  0.00  0.00    +0.013 A 
ATOM      3  C   UNL     1      25.131  42.067  52.405  0.00  0.00    +0.019 A 
ATOM     38  C   UNL     1      24.874  42.963  53.523  0.00  0.00    +0.120 A 
ATOM     39  N   UNL     1      23.575  43.126  53.995  0.00  0.00    -0.263 NA
ATOM     40  C   UNL     1      22.479  42.455  53.435  0.00  0.00    +0.111 A 
ENDBRANCH   4   3
ENDBRANCH  10   9
BRANCH  12  13
ATOM     13  N   UNL     1      32.696  44.439  47.883  0.00  0.00    -0.281 N 
ATOM     14  C   UNL     1      32.319  43.599  46.849  0.00  0.00    +0.248 C 
ATOM     30  O   UNL     1      31.785  42.510  47.002  0.00  0.00    -0.270 OA
ATOM     31  H   UNL     1      33.302  45.219  47.629  0.00  0.00    +0.155 HD
BRANCH  14  15
ATOM     15  C   UNL     1      32.588  44.022  45.441  0.00  0.00    +0.037 A 
ATOM     16  C   UNL     1      33.341  43.166  44.521  0.00  0.00    +0.013 A 
ATOM     17  C   UNL     1      33.601  43.605  43.173  0.00  0.00    +0.005 A 
ATOM     18  C   UNL     1      33.104  44.908  42.736  0.00  0.00    -0.033 A 
ATOM     28  C   UNL     1      32.355  45.735  43.668  0.00  0.00    +0.005 A 
ATOM     29  C   UNL     1      32.100  45.308  44.990  0.00  0.00    +0.013 A 
BRANCH  18  19
ATOM     19  C   UNL     1      33.353  45.467  41.322  0.00  0.00    +0.119 C 
BRANCH  19  20
ATOM     20  N   UNL     1      32.190  45.501  40.386  0.00  0.00    -0.302 NA
ATOM     21  C   UNL     1      31.526  44.128  40.245  0.00  0.00    +0.066 C 
ATOM     22  C   UNL     1      30.297  44.187  39.280  0.00  0.00    -0.064 C 
ATOM     23  N   UNL     1      30.748  44.713  37.916  0.00  0.00    +0.379 N 
ATOM     24  C   UNL     1      29.607  44.715  36.989  0.00  0.00    -0.096 C 
ATOM     25  H   UNL     1      31.509  44.005  37.515  0.00  0.00    -0.082 HD
ATOM     26  C   UNL     1      31.412  46.077  38.048  0.00  0.00    -0.064 C 
ATOM     27  C   UNL     1      32.613  46.014  39.032  0.00  0.00    +0.066 C 
ENDBRANCH  19  20
ENDBRANCH  18  19
ENDBRANCH  14  15
ENDBRANCH  12  13
TORSDOF 6
ENDMDL
MODEL 5
REMARK VINA RESULT:      -8.9      7.383     13.273
REMARK  Name = C:\Users\Docking\Desktop\test protocol\1iep_ligandH.pdb
REMARK  8 active torsions:
REMARK  status: ('A' for Active; 'I' for Inactive)
REMARK    1  A    between atoms: _5  and  _11
REMARK    2  A    between atoms: _19  and  _21
REMARK    3  A    between atoms: _22  and  _66
REMARK    4  A    between atoms: _27  and  _30
REMARK    5  A    between atoms: _32  and  _33
REMARK    6  A    between atoms: _38  and  _43
REMARK    7  A    between atoms: _43  and  _46
REMARK    8  A    between atoms: _53  and  _55
REMARK                            x       y       z     vdW  Elec       q    Type
REMARK                         _______ _______ _______ _____ _____    ______ ____
ROOT
ATOM     10  C   UNL     1      30.100  44.080  51.768  0.00  0.00    +0.038 A 
ATOM     11  C   UNL     1      30.339  44.136  50.371  0.00  0.00    +0.047 A 
ATOM     12  C   UNL     1      31.689  44.067  49.835  0.00  0.00    +0.035 A 
ATOM     32  C   UNL     1      32.773  43.937  50.751  0.00  0.00    +0.024 A 
ATOM     33  C   UNL     1      32.549  43.879  52.174  0.00  0.00    +0.007 A 
ATOM     34  C   UNL     1      31.219  43.950  52.708  0.00  0.00    -0.029 A 
ATOM     35  C   UNL     1      31.038  43.890  54.243  0.00  0.00    +0.045 C 
ENDROOT
BRANCH  10   9
ATOM      4  C   UNL     1      25.700  42.240  52.308  0.00  0.00    +0.077 A 
ATOM      5  C   UNL     1      26.046  41.047  51.591  0.00  0.00    +0.048 A 
ATOM      6  C   UNL     1      27.365  40.949  51.093  0.00  0.00    +0.116 A 
ATOM      7  N   UNL     1      28.262  41.974  51.303  0.00  0.00    -0.223 NA
ATOM      8  C   UNL     1      27.895  43.112  51.998  0.00  0.00    +0.220 A 
ATOM      9  N   UNL     1      28.783  44.152  52.227  0.00  0.00    -0.283 N 
ATOM     36  H   UNL     1      28.471  44.978  52.737  0.00  0.00    +0.155 HD
ATOM     37  N   UNL     1      26.641  43.230  52.482  0.00  0.00    -0.214 NA
BRANCH   4   3
ATOM      1  C   UNL     1      22.825  43.289  54.745  0.00  0.00    +0.020 A 
ATOM      2  C   UNL     1      24.154  43.067  54.222  0.00  0.00    +0.013 A 
ATOM      3  C   UNL     1      24.347  42.490  52.898  0.00  0.00    +0.019 A 
ATOM     38  C   UNL     1      23.165  42.145  52.122  0.00  0.00    +0.120 A 
ATOM     39  N   UNL     1      21.898  42.368  52.652  0.00  0.00    -0.263 NA
ATOM     40  C   UNL     1      21.700  42.922  53.926  0.00  0.00    +0.111 A 
ENDBRANCH   4   3
ENDBRANCH  10   9
BRANCH  12  13
ATOM     13  N   UNL     1      31.994  44.127  48.427  0.00  0.00    -0.281 N 
ATOM     14  C   UNL     1      31.608  43.242  47.433  0.00  0.00    +0.248 C 
ATOM     30  O   UNL     1      31.118  42.141  47.640  0.00  0.00    -0.270 OA
ATOM     31  H   UNL     1      32.563  44.918  48.126  0.00  0.00    +0.155 HD
BRANCH  14  15
ATOM     15  C   UNL     1      31.809  43.628  46.004  0.00  0.00    +0.037 A 
ATOM     16  C   UNL     1      32.006  42.616  44.963  0.00  0.00    +0.013 A 
ATOM     17  C   UNL     1      32.214  43.017  43.594  0.00  0.00    +0.005 A 
ATOM     18  C   UNL     1      32.225  44.439  43.258  0.00  0.00    -0.033 A 
ATOM     28  C   UNL     1      32.022  45.422  44.310  0.00  0.00    +0.005 A 
ATOM     29  C   UNL     1      31.818  45.033  45.652  0.00  0.00    +0.013 A 
BRANCH  18  19
ATOM     19  C   UNL     1      32.462  44.958  41.828  0.00  0.00    +0.119 C 
BRANCH  19  20
ATOM     20  N   UNL     1      33.779  44.649  41.197  0.00  0.00    -0.302 NA
ATOM     21  C   UNL     1      34.936  44.770  42.194  0.00  0.00    +0.066 C 
ATOM     22  C   UNL     1      36.304  44.421  41.523  0.00  0.00    -0.064 C 
ATOM     23  N   UNL     1      36.528  45.339  40.320  0.00  0.00    +0.379 N 
ATOM     24  C   UNL     1      37.840  45.052  39.722  0.00  0.00    -0.096 C 
ATOM     25  H   UNL     1      36.549  46.388  40.695  0.00  0.00    -0.082 HD
ATOM     26  C   UNL     1      35.381  45.227  39.325  0.00  0.00    -0.064 C 
ATOM     27  C   UNL     1      34.023  45.547  40.009  0.00  0.00    +0.066 C 
ENDBRANCH  19  20
ENDBRANCH  18  19
ENDBRANCH  14  15
ENDBRANCH  12  13
TORSDOF 6
ENDMDL
