MODEL 1
REMARK VINA RESULT:     -10.4      0.000      0.000
REMARK  Name = C:\Users\Docking\Desktop\test protocol\1iep_ligandH.pdb
REMARK  8 active torsions:
REMARK  status: ('A' for Active; 'I' for Inactive)
REMARK    1  A    between atoms: _5  and  _11
REMARK    2  A    between atoms: _19  and  _21
REMARK    3  A    between atoms: _22  and  _66
REMARK    4  A    between atoms: _27  and  _30
REMARK    5  A    between atoms: _32  and  _33
REMARK    6  A    between atoms: _38  and  _43
REMARK    7  A    between atoms: _43  and  _46
REMARK    8  A    between atoms: _53  and  _55
REMARK                            x       y       z     vdW  Elec       q    Type
REMARK                         _______ _______ _______ _____ _____    ______ ____
ROOT
ATOM     10  C   UNL     1      55.933  13.096  37.512  0.00  0.00    +0.038 A 
ATOM     11  C   UNL     1      54.883  14.002  37.807  0.00  0.00    +0.047 A 
ATOM     12  C   UNL     1      54.420  14.200  39.172  0.00  0.00    +0.035 A 
ATOM     32  C   UNL     1      55.050  13.459  40.213  0.00  0.00    +0.024 A 
ATOM     33  C   UNL     1      56.118  12.532  39.931  0.00  0.00    +0.007 A 
ATOM     34  C   UNL     1      56.578  12.331  38.587  0.00  0.00    -0.029 A 
ATOM     35  C   UNL     1      57.722  11.320  38.343  0.00  0.00    +0.045 C 
ENDROOT
BRANCH  10   9
ATOM      4  C   UNL     1      58.842  14.114  33.833  0.00  0.00    +0.077 A 
ATOM      5  C   UNL     1      59.603  15.044  34.616  0.00  0.00    +0.048 A 
ATOM      6  C   UNL     1      59.209  15.237  35.959  0.00  0.00    +0.116 A 
ATOM      7  N   UNL     1      58.133  14.546  36.471  0.00  0.00    -0.223 NA
ATOM      8  C   UNL     1      57.419  13.657  35.688  0.00  0.00    +0.220 A 
ATOM      9  N   UNL     1      56.338  12.945  36.184  0.00  0.00    -0.283 N 
ATOM     36  H   UNL     1      55.832  12.304  35.573  0.00  0.00    +0.155 HD
ATOM     37  N   UNL     1      57.774  13.456  34.402  0.00  0.00    -0.214 NA
BRANCH   4   3
ATOM      1  C   UNL     1      60.362  14.194  30.230  0.00  0.00    +0.020 A 
ATOM      2  C   UNL     1      60.115  14.539  31.611  0.00  0.00    +0.013 A 
ATOM      3  C   UNL     1      59.137  13.799  32.400  0.00  0.00    +0.019 A 
ATOM     38  C   UNL     1      58.422  12.707  31.756  0.00  0.00    +0.120 A 
ATOM     39  N   UNL     1      58.681  12.399  30.424  0.00  0.00    -0.263 NA
ATOM     40  C   UNL     1      59.618  13.105  29.655  0.00  0.00    +0.111 A 
ENDBRANCH   4   3
ENDBRANCH  10   9
BRANCH  12  13
ATOM     13  N   UNL     1      53.352  15.101  39.530  0.00  0.00    -0.281 N 
ATOM     14  C   UNL     1      53.451  16.429  39.912  0.00  0.00    +0.248 C 
ATOM     30  O   UNL     1      54.497  16.986  40.210  0.00  0.00    -0.270 OA
ATOM     31  H   UNL     1      52.410  14.712  39.499  0.00  0.00    +0.155 HD
BRANCH  14  15
ATOM     15  C   UNL     1      52.206  17.253  39.986  0.00  0.00    +0.037 A 
ATOM     16  C   UNL     1      51.310  17.382  38.835  0.00  0.00    +0.013 A 
ATOM     17  C   UNL     1      50.124  18.197  38.928  0.00  0.00    +0.005 A 
ATOM     18  C   UNL     1      49.828  18.889  40.180  0.00  0.00    -0.033 A 
ATOM     28  C   UNL     1      50.732  18.739  41.309  0.00  0.00    +0.005 A 
ATOM     29  C   UNL     1      51.895  17.942  41.221  0.00  0.00    +0.013 A 
BRANCH  18  19
ATOM     19  C   UNL     1      48.597  19.796  40.364  0.00  0.00    +0.119 C 
BRANCH  19  20
ATOM     20  N   UNL     1      48.687  20.869  41.398  0.00  0.00    -0.302 NA
ATOM     21  C   UNL     1      47.656  20.678  42.515  0.00  0.00    +0.066 C 
ATOM     22  C   UNL     1      47.779  21.797  43.600  0.00  0.00    -0.064 C 
ATOM     23  N   UNL     1      47.613  23.166  42.938  0.00  0.00    +0.379 N 
ATOM     24  C   UNL     1      47.670  24.217  43.965  0.00  0.00    -0.096 C 
ATOM     25  H   UNL     1      46.598  23.198  42.477  0.00  0.00    -0.082 HD
ATOM     26  C   UNL     1      48.632  23.363  41.825  0.00  0.00    -0.064 C 
ATOM     27  C   UNL     1      48.521  22.230  40.767  0.00  0.00    +0.066 C 
ENDBRANCH  19  20
ENDBRANCH  18  19
ENDBRANCH  14  15
ENDBRANCH  12  13
TORSDOF 6
ENDMDL
MODEL 2
REMARK VINA RESULT:      -9.3      2.987     13.156
REMARK  Name = C:\Users\Docking\Desktop\test protocol\1iep_ligandH.pdb
REMARK  8 active torsions:
REMARK  status: ('A' for Active; 'I' for Inactive)
REMARK    1  A    between atoms: _5  and  _11
REMARK    2  A    between atoms: _19  and  _21
REMARK    3  A    between atoms: _22  and  _66
REMARK    4  A    between atoms: _27  and  _30
REMARK    5  A    between atoms: _32  and  _33
REMARK    6  A    between atoms: _38  and  _43
REMARK    7  A    between atoms: _43  and  _46
REMARK    8  A    between atoms: _53  and  _55
REMARK                            x       y       z     vdW  Elec       q    Type
REMARK                         _______ _______ _______ _____ _____    ______ ____
ROOT
ATOM     10  C   UNL     1      58.232  15.354  39.009  0.00  0.00    +0.038 A 
ATOM     11  C   UNL     1      58.466  15.250  37.614  0.00  0.00    +0.047 A 
ATOM     12  C   UNL     1      59.586  14.480  37.093  0.00  0.00    +0.035 A 
ATOM     32  C   UNL     1      60.446  13.827  38.023  0.00  0.00    +0.024 A 
ATOM     33  C   UNL     1      60.224  13.923  39.444  0.00  0.00    +0.007 A 
ATOM     34  C   UNL     1      59.123  14.683  39.963  0.00  0.00    -0.029 A 
ATOM     35  C   UNL     1      58.937  14.757  41.497  0.00  0.00    +0.045 C 
ENDROOT
BRANCH  10   9
ATOM      4  C   UNL     1      53.524  15.989  39.688  0.00  0.00    +0.077 A 
ATOM      5  C   UNL     1      53.206  14.727  39.083  0.00  0.00    +0.048 A 
ATOM      6  C   UNL     1      54.283  13.949  38.603  0.00  0.00    +0.116 A 
ATOM      7  N   UNL     1      55.577  14.407  38.725  0.00  0.00    -0.223 NA
ATOM      8  C   UNL     1      55.848  15.629  39.312  0.00  0.00    +0.220 A 
ATOM      9  N   UNL     1      57.142  16.106  39.453  0.00  0.00    -0.283 N 
ATOM     36  H   UNL     1      57.300  17.016  39.885  0.00  0.00    +0.155 HD
ATOM     37  N   UNL     1      54.837  16.392  39.777  0.00  0.00    -0.214 NA
BRANCH   4   3
ATOM      1  C   UNL     1      50.431  18.358  40.038  0.00  0.00    +0.020 A 
ATOM      2  C   UNL     1      51.397  17.459  39.451  0.00  0.00    +0.013 A 
ATOM      3  C   UNL     1      52.496  16.923  40.246  0.00  0.00    +0.019 A 
ATOM     38  C   UNL     1      52.588  17.320  41.643  0.00  0.00    +0.120 A 
ATOM     39  N   UNL     1      51.643  18.189  42.181  0.00  0.00    -0.263 NA
ATOM     40  C   UNL     1      50.583  18.712  41.425  0.00  0.00    +0.111 A 
ENDBRANCH   4   3
ENDBRANCH  10   9
BRANCH  12  13
ATOM     13  N   UNL     1      59.877  14.345  35.688  0.00  0.00    -0.281 N 
ATOM     14  C   UNL     1      59.096  13.753  34.709  0.00  0.00    +0.248 C 
ATOM     30  O   UNL     1      58.118  13.056  34.933  0.00  0.00    -0.270 OA
ATOM     31  H   UNL     1      60.768  14.733  35.377  0.00  0.00    +0.155 HD
BRANCH  14  15
ATOM     15  C   UNL     1      59.464  13.952  33.274  0.00  0.00    +0.037 A 
ATOM     16  C   UNL     1      60.567  14.835  32.887  0.00  0.00    +0.013 A 
ATOM     17  C   UNL     1      60.889  15.022  31.495  0.00  0.00    +0.005 A 
ATOM     18  C   UNL     1      60.107  14.323  30.478  0.00  0.00    -0.033 A 
ATOM     28  C   UNL     1      59.021  13.449  30.890  0.00  0.00    +0.005 A 
ATOM     29  C   UNL     1      58.702  13.264  32.254  0.00  0.00    +0.013 A 
BRANCH  18  19
ATOM     19  C   UNL     1      60.367  14.480  28.968  0.00  0.00    +0.119 C 
BRANCH  19  20
ATOM     20  N   UNL     1      59.831  13.416  28.068  0.00  0.00    -0.302 NA
ATOM     21  C   UNL     1      60.936  12.752  27.242  0.00  0.00    +0.066 C 
ATOM     22  C   UNL     1      60.360  11.626  26.322  0.00  0.00    -0.064 C 
ATOM     23  N   UNL     1      59.283  12.217  25.410  0.00  0.00    +0.379 N 
ATOM     24  C   UNL     1      58.781  11.174  24.504  0.00  0.00    -0.096 C 
ATOM     25  H   UNL     1      59.765  13.005  24.785  0.00  0.00    -0.082 HD
ATOM     26  C   UNL     1      58.182  12.882  26.224  0.00  0.00    -0.064 C 
ATOM     27  C   UNL     1      58.769  13.979  27.156  0.00  0.00    +0.066 C 
ENDBRANCH  19  20
ENDBRANCH  18  19
ENDBRANCH  14  15
ENDBRANCH  12  13
TORSDOF 6
ENDMDL
MODEL 3
REMARK VINA RESULT:      -9.3      9.928     16.930
REMARK  Name = C:\Users\Docking\Desktop\test protocol\1iep_ligandH.pdb
REMARK  8 active torsions:
REMARK  status: ('A' for Active; 'I' for Inactive)
REMARK    1  A    between atoms: _5  and  _11
REMARK    2  A    between atoms: _19  and  _21
REMARK    3  A    between atoms: _22  and  _66
REMARK    4  A    between atoms: _27  and  _30
REMARK    5  A    between atoms: _32  and  _33
REMARK    6  A    between atoms: _38  and  _43
REMARK    7  A    between atoms: _43  and  _46
REMARK    8  A    between atoms: _53  and  _55
REMARK                            x       y       z     vdW  Elec       q    Type
REMARK                         _______ _______ _______ _____ _____    ______ ____
ROOT
ATOM     10  C   UNL     1      47.505  28.349  41.770  0.00  0.00    +0.038 A 
ATOM     11  C   UNL     1      48.234  29.085  42.738  0.00  0.00    +0.047 A 
ATOM     12  C   UNL     1      47.822  30.423  43.133  0.00  0.00    +0.035 A 
ATOM     32  C   UNL     1      46.660  30.980  42.523  0.00  0.00    +0.024 A 
ATOM     33  C   UNL     1      45.908  30.246  41.536  0.00  0.00    +0.007 A 
ATOM     34  C   UNL     1      46.311  28.927  41.141  0.00  0.00    -0.029 A 
ATOM     35  C   UNL     1      45.470  28.189  40.073  0.00  0.00    +0.045 C 
ENDROOT
BRANCH  10   9
ATOM      4  C   UNL     1      48.049  23.672  42.699  0.00  0.00    +0.077 A 
ATOM      5  C   UNL     1      47.427  23.795  43.986  0.00  0.00    +0.048 A 
ATOM      6  C   UNL     1      46.988  25.080  44.375  0.00  0.00    +0.116 A 
ATOM      7  N   UNL     1      47.162  26.155  43.530  0.00  0.00    -0.223 NA
ATOM      8  C   UNL     1      47.767  26.002  42.296  0.00  0.00    +0.220 A 
ATOM      9  N   UNL     1      47.945  27.068  41.428  0.00  0.00    -0.283 N 
ATOM     36  H   UNL     1      48.402  26.916  40.529  0.00  0.00    +0.155 HD
ATOM     37  N   UNL     1      48.196  24.785  41.903  0.00  0.00    -0.214 NA
BRANCH   4   3
ATOM      1  C   UNL     1      49.933  20.267  42.303  0.00  0.00    +0.020 A 
ATOM      2  C   UNL     1      49.467  21.505  42.883  0.00  0.00    +0.013 A 
ATOM      3  C   UNL     1      48.563  22.379  42.146  0.00  0.00    +0.019 A 
ATOM     38  C   UNL     1      48.145  21.966  40.815  0.00  0.00    +0.120 A 
ATOM     39  N   UNL     1      48.611  20.768  40.282  0.00  0.00    -0.263 NA
ATOM     40  C   UNL     1      49.484  19.921  40.981  0.00  0.00    +0.111 A 
ENDBRANCH   4   3
ENDBRANCH  10   9
BRANCH  12  13
ATOM     13  N   UNL     1      48.527  31.221  44.105  0.00  0.00    -0.281 N 
ATOM     14  C   UNL     1      48.110  31.581  45.376  0.00  0.00    +0.248 C 
ATOM     30  O   UNL     1      46.969  31.448  45.792  0.00  0.00    -0.270 OA
ATOM     31  H   UNL     1      49.446  31.562  43.822  0.00  0.00    +0.155 HD
BRANCH  14  15
ATOM     15  C   UNL     1      49.100  32.190  46.316  0.00  0.00    +0.037 A 
ATOM     16  C   UNL     1      49.673  33.514  46.063  0.00  0.00    +0.013 A 
ATOM     17  C   UNL     1      50.639  34.071  46.977  0.00  0.00    +0.005 A 
ATOM     18  C   UNL     1      51.037  33.303  48.154  0.00  0.00    -0.033 A 
ATOM     28  C   UNL     1      50.449  31.994  48.383  0.00  0.00    +0.005 A 
ATOM     29  C   UNL     1      49.502  31.444  47.489  0.00  0.00    +0.013 A 
BRANCH  18  19
ATOM     19  C   UNL     1      52.076  33.810  49.171  0.00  0.00    +0.119 C 
BRANCH  19  20
ATOM     20  N   UNL     1      53.316  32.995  49.345  0.00  0.00    -0.302 NA
ATOM     21  C   UNL     1      54.304  33.653  50.312  0.00  0.00    +0.066 C 
ATOM     22  C   UNL     1      55.586  32.777  50.499  0.00  0.00    -0.064 C 
ATOM     23  N   UNL     1      56.240  32.537  49.137  0.00  0.00    +0.379 N 
ATOM     24  C   UNL     1      57.476  31.762  49.317  0.00  0.00    -0.096 C 
ATOM     25  H   UNL     1      56.520  33.530  48.717  0.00  0.00    -0.082 HD
ATOM     26  C   UNL     1      55.263  31.885  48.169  0.00  0.00    -0.064 C 
ATOM     27  C   UNL     1      53.980  32.749  48.012  0.00  0.00    +0.066 C 
ENDBRANCH  19  20
ENDBRANCH  18  19
ENDBRANCH  14  15
ENDBRANCH  12  13
TORSDOF 6
ENDMDL
MODEL 4
REMARK VINA RESULT:      -9.1     19.568     22.959
REMARK  Name = C:\Users\Docking\Desktop\test protocol\1iep_ligandH.pdb
REMARK  8 active torsions:
REMARK  status: ('A' for Active; 'I' for Inactive)
REMARK    1  A    between atoms: _5  and  _11
REMARK    2  A    between atoms: _19  and  _21
REMARK    3  A    between atoms: _22  and  _66
REMARK    4  A    between atoms: _27  and  _30
REMARK    5  A    between atoms: _32  and  _33
REMARK    6  A    between atoms: _38  and  _43
REMARK    7  A    between atoms: _43  and  _46
REMARK    8  A    between atoms: _53  and  _55
REMARK                            x       y       z     vdW  Elec       q    Type
REMARK                         _______ _______ _______ _____ _____    ______ ____
ROOT
ATOM     10  C   UNL     1      49.007  32.596  47.958  0.00  0.00    +0.038 A 
ATOM     11  C   UNL     1      48.414  33.739  47.363  0.00  0.00    +0.047 A 
ATOM     12  C   UNL     1      46.992  34.009  47.504  0.00  0.00    +0.035 A 
ATOM     32  C   UNL     1      46.203  33.095  48.261  0.00  0.00    +0.024 A 
ATOM     33  C   UNL     1      46.788  31.927  48.872  0.00  0.00    +0.007 A 
ATOM     34  C   UNL     1      48.190  31.655  48.733  0.00  0.00    -0.029 A 
ATOM     35  C   UNL     1      48.763  30.385  49.404  0.00  0.00    +0.045 C 
ENDROOT
BRANCH  10   9
ATOM      4  C   UNL     1      53.590  33.437  49.108  0.00  0.00    +0.077 A 
ATOM      5  C   UNL     1      53.224  34.396  50.110  0.00  0.00    +0.048 A 
ATOM      6  C   UNL     1      51.846  34.649  50.294  0.00  0.00    +0.116 A 
ATOM      7  N   UNL     1      50.913  33.987  49.526  0.00  0.00    -0.223 NA
ATOM      8  C   UNL     1      51.299  33.069  48.567  0.00  0.00    +0.220 A 
ATOM      9  N   UNL     1      50.377  32.386  47.790  0.00  0.00    -0.283 N 
ATOM     36  H   UNL     1      50.703  31.722  47.087  0.00  0.00    +0.155 HD
ATOM     37  N   UNL     1      52.609  32.811  48.372  0.00  0.00    -0.214 NA
BRANCH   4   3
ATOM      1  C   UNL     1      57.380  33.618  48.158  0.00  0.00    +0.020 A 
ATOM      2  C   UNL     1      56.028  34.036  48.447  0.00  0.00    +0.013 A 
ATOM      3  C   UNL     1      55.005  33.059  48.799  0.00  0.00    +0.019 A 
ATOM     38  C   UNL     1      55.387  31.656  48.851  0.00  0.00    +0.120 A 
ATOM     39  N   UNL     1      56.697  31.283  48.566  0.00  0.00    -0.263 NA
ATOM     40  C   UNL     1      57.689  32.214  48.224  0.00  0.00    +0.111 A 
ENDBRANCH   4   3
ENDBRANCH  10   9
BRANCH  12  13
ATOM     13  N   UNL     1      46.333  35.149  46.916  0.00  0.00    -0.281 N 
ATOM     14  C   UNL     1      46.559  36.491  47.175  0.00  0.00    +0.248 C 
ATOM     30  O   UNL     1      47.218  36.912  48.114  0.00  0.00    -0.270 OA
ATOM     31  H   UNL     1      45.612  34.941  46.225  0.00  0.00    +0.155 HD
BRANCH  14  15
ATOM     15  C   UNL     1      45.953  37.513  46.269  0.00  0.00    +0.037 A 
ATOM     16  C   UNL     1      46.791  38.397  45.453  0.00  0.00    +0.013 A 
ATOM     17  C   UNL     1      46.181  39.386  44.600  0.00  0.00    +0.005 A 
ATOM     18  C   UNL     1      44.725  39.496  44.558  0.00  0.00    -0.033 A 
ATOM     28  C   UNL     1      43.918  38.603  45.373  0.00  0.00    +0.005 A 
ATOM     29  C   UNL     1      44.512  37.633  46.211  0.00  0.00    +0.013 A 
BRANCH  18  19
ATOM     19  C   UNL     1      43.990  40.537  43.693  0.00  0.00    +0.119 C 
BRANCH  19  20
ATOM     20  N   UNL     1      42.694  40.122  43.078  0.00  0.00    -0.302 NA
ATOM     21  C   UNL     1      42.881  39.017  42.034  0.00  0.00    +0.066 C 
ATOM     22  C   UNL     1      41.512  38.579  41.417  0.00  0.00    -0.064 C 
ATOM     23  N   UNL     1      40.822  39.796  40.800  0.00  0.00    +0.379 N 
ATOM     24  C   UNL     1      39.562  39.377  40.168  0.00  0.00    -0.096 C 
ATOM     25  H   UNL     1      41.487  40.191  39.998  0.00  0.00    -0.082 HD
ATOM     26  C   UNL     1      40.634  40.900  41.830  0.00  0.00    -0.064 C 
ATOM     27  C   UNL     1      41.997  41.308  42.458  0.00  0.00    +0.066 C 
ENDBRANCH  19  20
ENDBRANCH  18  19
ENDBRANCH  14  15
ENDBRANCH  12  13
TORSDOF 6
ENDMDL
MODEL 5
REMARK VINA RESULT:      -8.9     19.177     24.084
REMARK  Name = C:\Users\Docking\Desktop\test protocol\1iep_ligandH.pdb
REMARK  8 active torsions:
REMARK  status: ('A' for Active; 'I' for Inactive)
REMARK    1  A    between atoms: _5  and  _11
REMARK    2  A    between atoms: _19  and  _21
REMARK    3  A    between atoms: _22  and  _66
REMARK    4  A    between atoms: _27  and  _30
REMARK    5  A    between atoms: _32  and  _33
REMARK    6  A    between atoms: _38  and  _43
REMARK    7  A    between atoms: _43  and  _46
REMARK    8  A    between atoms: _53  and  _55
REMARK                            x       y       z     vdW  Elec       q    Type
REMARK                         _______ _______ _______ _____ _____    ______ ____
ROOT
ATOM     10  C   UNL     1      49.774  33.802  46.507  0.00  0.00    +0.038 A 
ATOM     11  C   UNL     1      49.528  35.173  46.240  0.00  0.00    +0.047 A 
ATOM     12  C   UNL     1      48.172  35.691  46.153  0.00  0.00    +0.035 A 
ATOM     32  C   UNL     1      47.089  34.785  46.347  0.00  0.00    +0.024 A 
ATOM     33  C   UNL     1      47.320  33.388  46.618  0.00  0.00    +0.007 A 
ATOM     34  C   UNL     1      48.656  32.871  46.702  0.00  0.00    -0.029 A 
ATOM     35  C   UNL     1      48.845  31.363  46.989  0.00  0.00    +0.045 C 
ENDROOT
BRANCH  10   9
ATOM      4  C   UNL     1      53.902  33.167  48.872  0.00  0.00    +0.077 A 
ATOM      5  C   UNL     1      53.390  33.797  50.055  0.00  0.00    +0.048 A 
ATOM      6  C   UNL     1      52.062  34.277  50.011  0.00  0.00    +0.116 A 
ATOM      7  N   UNL     1      51.311  34.132  48.864  0.00  0.00    -0.223 NA
ATOM      8  C   UNL     1      51.836  33.521  47.741  0.00  0.00    +0.220 A 
ATOM      9  N   UNL     1      51.096  33.358  46.579  0.00  0.00    -0.283 N 
ATOM     36  H   UNL     1      51.522  32.909  45.769  0.00  0.00    +0.155 HD
ATOM     37  N   UNL     1      53.102  33.056  47.757  0.00  0.00    -0.214 NA
BRANCH   4   3
ATOM      1  C   UNL     1      57.795  32.847  48.671  0.00  0.00    +0.020 A 
ATOM      2  C   UNL     1      56.482  33.439  48.778  0.00  0.00    +0.013 A 
ATOM      3  C   UNL     1      55.286  32.606  48.764  0.00  0.00    +0.019 A 
ATOM     38  C   UNL     1      55.455  31.166  48.640  0.00  0.00    +0.120 A 
ATOM     39  N   UNL     1      56.733  30.624  48.537  0.00  0.00    -0.263 NA
ATOM     40  C   UNL     1      57.891  31.416  48.548  0.00  0.00    +0.111 A 
ENDBRANCH   4   3
ENDBRANCH  10   9
BRANCH  12  13
ATOM     13  N   UNL     1      47.861  37.072  45.877  0.00  0.00    -0.281 N 
ATOM     14  C   UNL     1      48.137  38.180  46.661  0.00  0.00    +0.248 C 
ATOM     30  O   UNL     1      48.506  38.129  47.825  0.00  0.00    -0.270 OA
ATOM     31  H   UNL     1      47.379  37.254  44.997  0.00  0.00    +0.155 HD
BRANCH  14  15
ATOM     15  C   UNL     1      47.965  39.543  46.071  0.00  0.00    +0.037 A 
ATOM     16  C   UNL     1      48.759  40.681  46.541  0.00  0.00    +0.013 A 
ATOM     17  C   UNL     1      48.561  41.988  45.967  0.00  0.00    +0.005 A 
ATOM     18  C   UNL     1      47.564  42.163  44.913  0.00  0.00    -0.033 A 
ATOM     28  C   UNL     1      46.794  41.016  44.461  0.00  0.00    +0.005 A 
ATOM     29  C   UNL     1      46.985  39.734  45.023  0.00  0.00    +0.013 A 
BRANCH  18  19
ATOM     19  C   UNL     1      47.271  43.526  44.258  0.00  0.00    +0.119 C 
BRANCH  19  20
ATOM     20  N   UNL     1      48.421  44.247  43.636  0.00  0.00    -0.302 NA
ATOM     21  C   UNL     1      48.763  45.538  44.386  0.00  0.00    +0.066 C 
ATOM     22  C   UNL     1      49.983  46.268  43.735  0.00  0.00    -0.064 C 
ATOM     23  N   UNL     1      49.674  46.561  42.266  0.00  0.00    +0.379 N 
ATOM     24  C   UNL     1      50.795  47.299  41.666  0.00  0.00    -0.096 C 
ATOM     25  H   UNL     1      48.778  47.223  42.235  0.00  0.00    -0.082 HD
ATOM     26  C   UNL     1      49.330  45.283  41.513  0.00  0.00    -0.064 C 
ATOM     27  C   UNL     1      48.136  44.550  42.185  0.00  0.00    +0.066 C 
ENDBRANCH  19  20
ENDBRANCH  18  19
ENDBRANCH  14  15
ENDBRANCH  12  13
TORSDOF 6
ENDMDL
