MODEL 1
REMARK VINA RESULT:      -8.5      0.000      0.000
REMARK  Name = C:\Users\Docking\Desktop\test protocol\1iep_ligandH.pdb
REMARK  8 active torsions:
REMARK  status: ('A' for Active; 'I' for Inactive)
REMARK    1  A    between atoms: _5  and  _11
REMARK    2  A    between atoms: _19  and  _21
REMARK    3  A    between atoms: _22  and  _66
REMARK    4  A    between atoms: _27  and  _30
REMARK    5  A    between atoms: _32  and  _33
REMARK    6  A    between atoms: _38  and  _43
REMARK    7  A    between atoms: _43  and  _46
REMARK    8  A    between atoms: _53  and  _55
REMARK                            x       y       z     vdW  Elec       q    Type
REMARK                         _______ _______ _______ _____ _____    ______ ____
ROOT
ATOM     10  C   UNL     1      19.737  29.873  22.253  0.00  0.00    +0.038 A 
ATOM     11  C   UNL     1      20.189  29.967  20.912  0.00  0.00    +0.047 A 
ATOM     12  C   UNL     1      19.548  30.863  19.962  0.00  0.00    +0.035 A 
ATOM     32  C   UNL     1      18.450  31.652  20.413  0.00  0.00    +0.024 A 
ATOM     33  C   UNL     1      17.976  31.568  21.772  0.00  0.00    +0.007 A 
ATOM     34  C   UNL     1      18.603  30.684  22.713  0.00  0.00    -0.029 A 
ATOM     35  C   UNL     1      18.049  30.631  24.156  0.00  0.00    +0.045 C 
ENDROOT
BRANCH  10   9
ATOM      4  C   UNL     1      19.986  25.764  24.721  0.00  0.00    +0.077 A 
ATOM      5  C   UNL     1      18.695  25.341  24.261  0.00  0.00    +0.048 A 
ATOM      6  C   UNL     1      17.996  26.213  23.396  0.00  0.00    +0.116 A 
ATOM      7  N   UNL     1      18.557  27.416  23.025  0.00  0.00    -0.223 NA
ATOM      8  C   UNL     1      19.803  27.795  23.488  0.00  0.00    +0.220 A 
ATOM      9  N   UNL     1      20.389  28.996  23.122  0.00  0.00    -0.283 N 
ATOM     36  H   UNL     1      21.307  29.243  23.491  0.00  0.00    +0.155 HD
ATOM     37  N   UNL     1      20.490  26.980  24.316  0.00  0.00    -0.214 NA
BRANCH   4   3
ATOM      1  C   UNL     1      21.207  23.512  27.676  0.00  0.00    +0.020 A 
ATOM      2  C   UNL     1      20.332  24.285  26.826  0.00  0.00    +0.013 A 
ATOM      3  C   UNL     1      20.848  24.952  25.637  0.00  0.00    +0.019 A 
ATOM     38  C   UNL     1      22.265  24.815  25.334  0.00  0.00    +0.120 A 
ATOM     39  N   UNL     1      23.083  24.065  26.172  0.00  0.00    -0.263 NA
ATOM     40  C   UNL     1      22.599  23.420  27.320  0.00  0.00    +0.111 A 
ENDBRANCH   4   3
ENDBRANCH  10   9
BRANCH  12  13
ATOM     13  N   UNL     1      19.959  30.995  18.586  0.00  0.00    -0.281 N 
ATOM     14  C   UNL     1      20.490  32.110  17.959  0.00  0.00    +0.248 C 
ATOM     30  O   UNL     1      20.495  33.235  18.436  0.00  0.00    -0.270 OA
ATOM     31  H   UNL     1      19.843  30.165  18.004  0.00  0.00    +0.155 HD
BRANCH  14  15
ATOM     15  C   UNL     1      21.090  31.956  16.599  0.00  0.00    +0.037 A 
ATOM     16  C   UNL     1      20.448  31.129  15.574  0.00  0.00    +0.013 A 
ATOM     17  C   UNL     1      21.057  30.984  14.276  0.00  0.00    +0.005 A 
ATOM     18  C   UNL     1      22.316  31.669  13.995  0.00  0.00    -0.033 A 
ATOM     28  C   UNL     1      22.929  32.487  15.028  0.00  0.00    +0.005 A 
ATOM     29  C   UNL     1      22.336  32.631  16.302  0.00  0.00    +0.013 A 
BRANCH  18  19
ATOM     19  C   UNL     1      23.048  31.553  12.644  0.00  0.00    +0.119 C 
BRANCH  19  20
ATOM     20  N   UNL     1      23.317  32.821  11.902  0.00  0.00    -0.302 NA
ATOM     21  C   UNL     1      22.043  33.408  11.288  0.00  0.00    +0.066 C 
ATOM     22  C   UNL     1      22.338  34.745  10.534  0.00  0.00    -0.064 C 
ATOM     23  N   UNL     1      23.394  34.497   9.455  0.00  0.00    +0.379 N 
ATOM     24  C   UNL     1      23.632  35.739   8.706  0.00  0.00    -0.096 C 
ATOM     25  H   UNL     1      22.980  33.746   8.743  0.00  0.00    -0.082 HD
ATOM     26  C   UNL     1      24.664  33.910  10.057  0.00  0.00    -0.064 C 
ATOM     27  C   UNL     1      24.354  32.597  10.829  0.00  0.00    +0.066 C 
ENDBRANCH  19  20
ENDBRANCH  18  19
ENDBRANCH  14  15
ENDBRANCH  12  13
TORSDOF 6
ENDMDL
MODEL 2
REMARK VINA RESULT:      -8.4      1.895      2.931
REMARK  Name = C:\Users\Docking\Desktop\test protocol\1iep_ligandH.pdb
REMARK  8 active torsions:
REMARK  status: ('A' for Active; 'I' for Inactive)
REMARK    1  A    between atoms: _5  and  _11
REMARK    2  A    between atoms: _19  and  _21
REMARK    3  A    between atoms: _22  and  _66
REMARK    4  A    between atoms: _27  and  _30
REMARK    5  A    between atoms: _32  and  _33
REMARK    6  A    between atoms: _38  and  _43
REMARK    7  A    between atoms: _43  and  _46
REMARK    8  A    between atoms: _53  and  _55
REMARK                            x       y       z     vdW  Elec       q    Type
REMARK                         _______ _______ _______ _____ _____    ______ ____
ROOT
ATOM     10  C   UNL     1      19.688  29.913  22.169  0.00  0.00    +0.038 A 
ATOM     11  C   UNL     1      20.125  30.005  20.823  0.00  0.00    +0.047 A 
ATOM     12  C   UNL     1      19.449  30.870  19.869  0.00  0.00    +0.035 A 
ATOM     32  C   UNL     1      18.331  31.631  20.321  0.00  0.00    +0.024 A 
ATOM     33  C   UNL     1      17.872  31.549  21.686  0.00  0.00    +0.007 A 
ATOM     34  C   UNL     1      18.534  30.695  22.630  0.00  0.00    -0.029 A 
ATOM     35  C   UNL     1      17.995  30.642  24.079  0.00  0.00    +0.045 C 
ENDROOT
BRANCH  10   9
ATOM      4  C   UNL     1      20.062  25.863  24.718  0.00  0.00    +0.077 A 
ATOM      5  C   UNL     1      18.769  25.408  24.295  0.00  0.00    +0.048 A 
ATOM      6  C   UNL     1      18.037  26.249  23.427  0.00  0.00    +0.116 A 
ATOM      7  N   UNL     1      18.568  27.453  23.019  0.00  0.00    -0.223 NA
ATOM      8  C   UNL     1      19.817  27.863  23.447  0.00  0.00    +0.220 A 
ATOM      9  N   UNL     1      20.374  29.067  23.042  0.00  0.00    -0.283 N 
ATOM     36  H   UNL     1      21.296  29.337  23.386  0.00  0.00    +0.155 HD
ATOM     37  N   UNL     1      20.536  27.079  24.277  0.00  0.00    -0.214 NA
BRANCH   4   3
ATOM      1  C   UNL     1      23.228  24.294  26.396  0.00  0.00    +0.020 A 
ATOM      2  C   UNL     1      22.408  25.061  25.487  0.00  0.00    +0.013 A 
ATOM      3  C   UNL     1      20.958  25.086  25.631  0.00  0.00    +0.019 A 
ATOM     38  C   UNL     1      20.364  24.318  26.716  0.00  0.00    +0.120 A 
ATOM     39  N   UNL     1      21.179  23.588  27.575  0.00  0.00    -0.263 NA
ATOM     40  C   UNL     1      22.575  23.555  27.445  0.00  0.00    +0.111 A 
ENDBRANCH   4   3
ENDBRANCH  10   9
BRANCH  12  13
ATOM     13  N   UNL     1      19.843  30.998  18.488  0.00  0.00    -0.281 N 
ATOM     14  C   UNL     1      20.551  32.032  17.896  0.00  0.00    +0.248 C 
ATOM     30  O   UNL     1      20.769  33.111  18.426  0.00  0.00    -0.270 OA
ATOM     31  H   UNL     1      19.567  30.234  17.872  0.00  0.00    +0.155 HD
BRANCH  14  15
ATOM     15  C   UNL     1      21.080  31.844  16.512  0.00  0.00    +0.037 A 
ATOM     16  C   UNL     1      22.322  32.490  16.079  0.00  0.00    +0.013 A 
ATOM     17  C   UNL     1      22.802  32.306  14.732  0.00  0.00    +0.005 A 
ATOM     18  C   UNL     1      22.039  31.471  13.808  0.00  0.00    -0.033 A 
ATOM     28  C   UNL     1      20.813  30.838  14.265  0.00  0.00    +0.005 A 
ATOM     29  C   UNL     1      20.339  31.016  15.584  0.00  0.00    +0.013 A 
BRANCH  18  19
ATOM     19  C   UNL     1      22.465  31.236  12.347  0.00  0.00    +0.119 C 
BRANCH  19  20
ATOM     20  N   UNL     1      22.992  29.883  11.997  0.00  0.00    -0.302 NA
ATOM     21  C   UNL     1      24.309  29.964  11.219  0.00  0.00    +0.066 C 
ATOM     22  C   UNL     1      24.858  28.539  10.881  0.00  0.00    -0.064 C 
ATOM     23  N   UNL     1      23.806  27.766  10.085  0.00  0.00    +0.379 N 
ATOM     24  C   UNL     1      24.341  26.447   9.716  0.00  0.00    -0.096 C 
ATOM     25  H   UNL     1      23.613  28.329   9.143  0.00  0.00    -0.082 HD
ATOM     26  C   UNL     1      22.492  27.684  10.850  0.00  0.00    -0.064 C 
ATOM     27  C   UNL     1      21.970  29.104  11.207  0.00  0.00    +0.066 C 
ENDBRANCH  19  20
ENDBRANCH  18  19
ENDBRANCH  14  15
ENDBRANCH  12  13
TORSDOF 6
ENDMDL
MODEL 3
REMARK VINA RESULT:      -8.0      4.288     12.708
REMARK  Name = C:\Users\Docking\Desktop\test protocol\1iep_ligandH.pdb
REMARK  8 active torsions:
REMARK  status: ('A' for Active; 'I' for Inactive)
REMARK    1  A    between atoms: _5  and  _11
REMARK    2  A    between atoms: _19  and  _21
REMARK    3  A    between atoms: _22  and  _66
REMARK    4  A    between atoms: _27  and  _30
REMARK    5  A    between atoms: _32  and  _33
REMARK    6  A    between atoms: _38  and  _43
REMARK    7  A    between atoms: _43  and  _46
REMARK    8  A    between atoms: _53  and  _55
REMARK                            x       y       z     vdW  Elec       q    Type
REMARK                         _______ _______ _______ _____ _____    ______ ____
ROOT
ATOM     10  C   UNL     1      22.445  30.486  12.371  0.00  0.00    +0.038 A 
ATOM     11  C   UNL     1      21.883  30.455  13.673  0.00  0.00    +0.047 A 
ATOM     12  C   UNL     1      22.244  31.448  14.673  0.00  0.00    +0.035 A 
ATOM     32  C   UNL     1      23.180  32.461  14.311  0.00  0.00    +0.024 A 
ATOM     33  C   UNL     1      23.761  32.507  12.993  0.00  0.00    +0.007 A 
ATOM     34  C   UNL     1      23.411  31.529  12.004  0.00  0.00    -0.029 A 
ATOM     35  C   UNL     1      24.070  31.623  10.608  0.00  0.00    +0.045 C 
ENDROOT
BRANCH  10   9
ATOM      4  C   UNL     1      23.080  26.272  10.164  0.00  0.00    +0.077 A 
ATOM      5  C   UNL     1      24.292  26.009  10.886  0.00  0.00    +0.048 A 
ATOM      6  C   UNL     1      24.721  26.987  11.811  0.00  0.00    +0.116 A 
ATOM      7  N   UNL     1      23.985  28.138  11.993  0.00  0.00    -0.223 NA
ATOM      8  C   UNL     1      22.822  28.361  11.279  0.00  0.00    +0.220 A 
ATOM      9  N   UNL     1      22.062  29.508  11.451  0.00  0.00    -0.283 N 
ATOM     36  H   UNL     1      21.214  29.639  10.900  0.00  0.00    +0.155 HD
ATOM     37  N   UNL     1      22.392  27.443  10.388  0.00  0.00    -0.214 NA
BRANCH   4   3
ATOM      1  C   UNL     1      22.697  23.677   7.262  0.00  0.00    +0.020 A 
ATOM      2  C   UNL     1      23.311  24.570   8.217  0.00  0.00    +0.013 A 
ATOM      3  C   UNL     1      22.496  25.333   9.154  0.00  0.00    +0.019 A 
ATOM     38  C   UNL     1      21.051  25.168   9.099  0.00  0.00    +0.120 A 
ATOM     39  N   UNL     1      20.488  24.301   8.167  0.00  0.00    -0.263 NA
ATOM     40  C   UNL     1      21.262  23.563   7.260  0.00  0.00    +0.111 A 
ENDBRANCH   4   3
ENDBRANCH  10   9
BRANCH  12  13
ATOM     13  N   UNL     1      21.713  31.462  16.013  0.00  0.00    -0.281 N 
ATOM     14  C   UNL     1      20.654  32.210  16.502  0.00  0.00    +0.248 C 
ATOM     30  O   UNL     1      20.137  33.145  15.909  0.00  0.00    -0.270 OA
ATOM     31  H   UNL     1      22.173  30.845  16.683  0.00  0.00    +0.155 HD
BRANCH  14  15
ATOM     15  C   UNL     1      20.099  31.881  17.850  0.00  0.00    +0.037 A 
ATOM     16  C   UNL     1      20.029  32.891  18.909  0.00  0.00    +0.013 A 
ATOM     17  C   UNL     1      19.505  32.543  20.207  0.00  0.00    +0.005 A 
ATOM     18  C   UNL     1      19.046  31.178  20.451  0.00  0.00    -0.033 A 
ATOM     28  C   UNL     1      19.122  30.197  19.380  0.00  0.00    +0.005 A 
ATOM     29  C   UNL     1      19.636  30.535  18.108  0.00  0.00    +0.013 A 
BRANCH  18  19
ATOM     19  C   UNL     1      18.492  30.712  21.810  0.00  0.00    +0.119 C 
BRANCH  19  20
ATOM     20  N   UNL     1      18.701  29.281  22.180  0.00  0.00    -0.302 NA
ATOM     21  C   UNL     1      17.386  28.497  22.208  0.00  0.00    +0.066 C 
ATOM     22  C   UNL     1      17.626  26.996  22.575  0.00  0.00    -0.064 C 
ATOM     23  N   UNL     1      18.336  26.911  23.927  0.00  0.00    +0.379 N 
ATOM     24  C   UNL     1      18.511  25.500  24.301  0.00  0.00    -0.096 C 
ATOM     25  H   UNL     1      17.672  27.383  24.687  0.00  0.00    -0.082 HD
ATOM     26  C   UNL     1      19.643  27.690  23.908  0.00  0.00    -0.064 C 
ATOM     27  C   UNL     1      19.397  29.173  23.514  0.00  0.00    +0.066 C 
ENDBRANCH  19  20
ENDBRANCH  18  19
ENDBRANCH  14  15
ENDBRANCH  12  13
TORSDOF 6
ENDMDL
MODEL 4
REMARK VINA RESULT:      -7.9      9.051     14.961
REMARK  Name = C:\Users\Docking\Desktop\test protocol\1iep_ligandH.pdb
REMARK  8 active torsions:
REMARK  status: ('A' for Active; 'I' for Inactive)
REMARK    1  A    between atoms: _5  and  _11
REMARK    2  A    between atoms: _19  and  _21
REMARK    3  A    between atoms: _22  and  _66
REMARK    4  A    between atoms: _27  and  _30
REMARK    5  A    between atoms: _32  and  _33
REMARK    6  A    between atoms: _38  and  _43
REMARK    7  A    between atoms: _43  and  _46
REMARK    8  A    between atoms: _53  and  _55
REMARK                            x       y       z     vdW  Elec       q    Type
REMARK                         _______ _______ _______ _____ _____    ______ ____
ROOT
ATOM     10  C   UNL     1      23.949  18.230  31.123  0.00  0.00    +0.038 A 
ATOM     11  C   UNL     1      23.580  19.263  30.224  0.00  0.00    +0.047 A 
ATOM     12  C   UNL     1      22.633  20.297  30.612  0.00  0.00    +0.035 A 
ATOM     32  C   UNL     1      22.084  20.250  31.927  0.00  0.00    +0.024 A 
ATOM     33  C   UNL     1      22.447  19.208  32.854  0.00  0.00    +0.007 A 
ATOM     34  C   UNL     1      23.378  18.183  32.475  0.00  0.00    -0.029 A 
ATOM     35  C   UNL     1      23.727  17.086  33.508  0.00  0.00    +0.045 C 
ENDROOT
BRANCH  10   9
ATOM      4  C   UNL     1      28.429  16.652  30.432  0.00  0.00    +0.077 A 
ATOM      5  C   UNL     1      28.998  17.868  30.938  0.00  0.00    +0.048 A 
ATOM      6  C   UNL     1      28.104  18.878  31.358  0.00  0.00    +0.116 A 
ATOM      7  N   UNL     1      26.743  18.675  31.276  0.00  0.00    -0.223 NA
ATOM      8  C   UNL     1      26.227  17.491  30.782  0.00  0.00    +0.220 A 
ATOM      9  N   UNL     1      24.862  17.263  30.698  0.00  0.00    -0.283 N 
ATOM     36  H   UNL     1      24.521  16.379  30.321  0.00  0.00    +0.155 HD
ATOM     37  N   UNL     1      27.060  16.512  30.373  0.00  0.00    -0.214 NA
BRANCH   4   3
ATOM      1  C   UNL     1      29.486  13.124  29.117  0.00  0.00    +0.020 A 
ATOM      2  C   UNL     1      28.655  14.213  29.574  0.00  0.00    +0.013 A 
ATOM      3  C   UNL     1      29.243  15.491  29.953  0.00  0.00    +0.019 A 
ATOM     38  C   UNL     1      30.688  15.636  29.855  0.00  0.00    +0.120 A 
ATOM     39  N   UNL     1      31.463  14.569  29.412  0.00  0.00    -0.263 NA
ATOM     40  C   UNL     1      30.908  13.334  29.047  0.00  0.00    +0.111 A 
ENDBRANCH   4   3
ENDBRANCH  10   9
BRANCH  12  13
ATOM     13  N   UNL     1      22.214  21.365  29.739  0.00  0.00    -0.281 N 
ATOM     14  C   UNL     1      22.939  22.479  29.347  0.00  0.00    +0.248 C 
ATOM     30  O   UNL     1      23.989  22.836  29.862  0.00  0.00    -0.270 OA
ATOM     31  H   UNL     1      21.269  21.291  29.364  0.00  0.00    +0.155 HD
BRANCH  14  15
ATOM     15  C   UNL     1      22.416  23.326  28.233  0.00  0.00    +0.037 A 
ATOM     16  C   UNL     1      20.977  23.474  28.003  0.00  0.00    +0.013 A 
ATOM     17  C   UNL     1      20.499  24.284  26.910  0.00  0.00    +0.005 A 
ATOM     18  C   UNL     1      21.462  24.953  26.040  0.00  0.00    -0.033 A 
ATOM     28  C   UNL     1      22.884  24.793  26.294  0.00  0.00    +0.005 A 
ATOM     29  C   UNL     1      23.357  24.000  27.364  0.00  0.00    +0.013 A 
BRANCH  18  19
ATOM     19  C   UNL     1      21.042  25.820  24.838  0.00  0.00    +0.119 C 
BRANCH  19  20
ATOM     20  N   UNL     1      19.622  26.280  24.789  0.00  0.00    -0.302 NA
ATOM     21  C   UNL     1      18.727  25.301  24.024  0.00  0.00    +0.066 C 
ATOM     22  C   UNL     1      17.241  25.786  24.002  0.00  0.00    -0.064 C 
ATOM     23  N   UNL     1      17.173  27.182  23.380  0.00  0.00    +0.379 N 
ATOM     24  C   UNL     1      15.771  27.618  23.305  0.00  0.00    -0.096 C 
ATOM     25  H   UNL     1      17.560  27.107  22.338  0.00  0.00    -0.082 HD
ATOM     26  C   UNL     1      18.062  28.161  24.134  0.00  0.00    -0.064 C 
ATOM     27  C   UNL     1      19.531  27.655  24.175  0.00  0.00    +0.066 C 
ENDBRANCH  19  20
ENDBRANCH  18  19
ENDBRANCH  14  15
ENDBRANCH  12  13
TORSDOF 6
ENDMDL
MODEL 5
REMARK VINA RESULT:      -7.9      1.702      2.178
REMARK  Name = C:\Users\Docking\Desktop\test protocol\1iep_ligandH.pdb
REMARK  8 active torsions:
REMARK  status: ('A' for Active; 'I' for Inactive)
REMARK    1  A    between atoms: _5  and  _11
REMARK    2  A    between atoms: _19  and  _21
REMARK    3  A    between atoms: _22  and  _66
REMARK    4  A    between atoms: _27  and  _30
REMARK    5  A    between atoms: _32  and  _33
REMARK    6  A    between atoms: _38  and  _43
REMARK    7  A    between atoms: _43  and  _46
REMARK    8  A    between atoms: _53  and  _55
REMARK                            x       y       z     vdW  Elec       q    Type
REMARK                         _______ _______ _______ _____ _____    ______ ____
ROOT
ATOM     10  C   UNL     1      19.644  29.533  22.352  0.00  0.00    +0.038 A 
ATOM     11  C   UNL     1      20.083  29.489  21.004  0.00  0.00    +0.047 A 
ATOM     12  C   UNL     1      19.419  30.267  19.970  0.00  0.00    +0.035 A 
ATOM     32  C   UNL     1      18.312  31.083  20.345  0.00  0.00    +0.024 A 
ATOM     33  C   UNL     1      17.852  31.139  21.711  0.00  0.00    +0.007 A 
ATOM     34  C   UNL     1      18.501  30.371  22.734  0.00  0.00    -0.029 A 
ATOM     35  C   UNL     1      17.961  30.465  24.180  0.00  0.00    +0.045 C 
ENDROOT
BRANCH  10   9
ATOM      4  C   UNL     1      20.104  25.598  25.061  0.00  0.00    +0.077 A 
ATOM      5  C   UNL     1      18.884  25.037  24.558  0.00  0.00    +0.048 A 
ATOM      6  C   UNL     1      18.163  25.796  23.609  0.00  0.00    +0.116 A 
ATOM      7  N   UNL     1      18.638  27.023  23.200  0.00  0.00    -0.223 NA
ATOM      8  C   UNL     1      19.818  27.536  23.706  0.00  0.00    +0.220 A 
ATOM      9  N   UNL     1      20.319  28.765  23.303  0.00  0.00    -0.283 N 
ATOM     36  H   UNL     1      21.189  29.111  23.706  0.00  0.00    +0.155 HD
ATOM     37  N   UNL     1      20.524  26.831  24.615  0.00  0.00    -0.214 NA
BRANCH   4   3
ATOM      1  C   UNL     1      23.233  24.304  27.020  0.00  0.00    +0.020 A 
ATOM      2  C   UNL     1      22.434  24.981  26.025  0.00  0.00    +0.013 A 
ATOM      3  C   UNL     1      20.979  24.915  26.066  0.00  0.00    +0.019 A 
ATOM     38  C   UNL     1      20.358  24.149  27.137  0.00  0.00    +0.120 A 
ATOM     39  N   UNL     1      21.153  23.506  28.080  0.00  0.00    -0.263 NA
ATOM     40  C   UNL     1      22.554  23.562  28.050  0.00  0.00    +0.111 A 
ENDBRANCH   4   3
ENDBRANCH  10   9
BRANCH  12  13
ATOM     13  N   UNL     1      19.814  30.256  18.584  0.00  0.00    -0.281 N 
ATOM     14  C   UNL     1      19.067  29.858  17.488  0.00  0.00    +0.248 C 
ATOM     30  O   UNL     1      18.011  29.247  17.557  0.00  0.00    -0.270 OA
ATOM     31  H   UNL     1      20.761  30.582  18.386  0.00  0.00    +0.155 HD
BRANCH  14  15
ATOM     15  C   UNL     1      19.571  30.173  16.116  0.00  0.00    +0.037 A 
ATOM     16  C   UNL     1      19.643  31.553  15.631  0.00  0.00    +0.013 A 
ATOM     17  C   UNL     1      20.118  31.827  14.298  0.00  0.00    +0.005 A 
ATOM     18  C   UNL     1      20.527  30.717  13.441  0.00  0.00    -0.033 A 
ATOM     28  C   UNL     1      20.451  29.358  13.950  0.00  0.00    +0.005 A 
ATOM     29  C   UNL     1      19.985  29.085  15.255  0.00  0.00    +0.013 A 
BRANCH  18  19
ATOM     19  C   UNL     1      21.026  30.915  11.997  0.00  0.00    +0.119 C 
BRANCH  19  20
ATOM     20  N   UNL     1      22.441  31.356  11.818  0.00  0.00    -0.302 NA
ATOM     21  C   UNL     1      22.567  32.478  10.783  0.00  0.00    +0.066 C 
ATOM     22  C   UNL     1      24.051  32.943  10.624  0.00  0.00    -0.064 C 
ATOM     23  N   UNL     1      24.918  31.746  10.233  0.00  0.00    +0.379 N 
ATOM     24  C   UNL     1      26.304  32.191  10.026  0.00  0.00    -0.096 C 
ATOM     25  H   UNL     1      24.539  31.357   9.259  0.00  0.00    -0.082 HD
ATOM     26  C   UNL     1      24.798  30.624  11.255  0.00  0.00    -0.064 C 
ATOM     27  C   UNL     1      23.315  30.190  11.427  0.00  0.00    +0.066 C 
ENDBRANCH  19  20
ENDBRANCH  18  19
ENDBRANCH  14  15
ENDBRANCH  12  13
TORSDOF 6
ENDMDL
