MODEL 1
REMARK VINA RESULT:      -8.3      0.000      0.000
REMARK  Name = C:\Users\Docking\Desktop\test protocol\1iep_ligandH.pdb
REMARK  8 active torsions:
REMARK  status: ('A' for Active; 'I' for Inactive)
REMARK    1  A    between atoms: _5  and  _11
REMARK    2  A    between atoms: _19  and  _21
REMARK    3  A    between atoms: _22  and  _66
REMARK    4  A    between atoms: _27  and  _30
REMARK    5  A    between atoms: _32  and  _33
REMARK    6  A    between atoms: _38  and  _43
REMARK    7  A    between atoms: _43  and  _46
REMARK    8  A    between atoms: _53  and  _55
REMARK                            x       y       z     vdW  Elec       q    Type
REMARK                         _______ _______ _______ _____ _____    ______ ____
ROOT
ATOM     10  C   UNL     1      18.861  23.098  14.275  0.00  0.00    +0.038 A 
ATOM     11  C   UNL     1      17.692  23.313  15.048  0.00  0.00    +0.047 A 
ATOM     12  C   UNL     1      16.469  22.572  14.786  0.00  0.00    +0.035 A 
ATOM     32  C   UNL     1      16.472  21.616  13.728  0.00  0.00    +0.024 A 
ATOM     33  C   UNL     1      17.651  21.385  12.931  0.00  0.00    +0.007 A 
ATOM     34  C   UNL     1      18.860  22.115  13.184  0.00  0.00    -0.029 A 
ATOM     35  C   UNL     1      20.092  21.831  12.294  0.00  0.00    +0.045 C 
ENDROOT
BRANCH  10   9
ATOM      4  C   UNL     1      21.154  27.257  14.969  0.00  0.00    +0.077 A 
ATOM      5  C   UNL     1      19.972  28.022  14.693  0.00  0.00    +0.048 A 
ATOM      6  C   UNL     1      18.797  27.308  14.369  0.00  0.00    +0.116 A 
ATOM      7  N   UNL     1      18.814  25.930  14.328  0.00  0.00    -0.223 NA
ATOM      8  C   UNL     1      19.971  25.223  14.598  0.00  0.00    +0.220 A 
ATOM      9  N   UNL     1      20.009  23.837  14.571  0.00  0.00    -0.283 N 
ATOM     36  H   UNL     1      20.884  23.353  14.768  0.00  0.00    +0.155 HD
ATOM     37  N   UNL     1      21.107  25.882  14.909  0.00  0.00    -0.214 NA
BRANCH   4   3
ATOM      1  C   UNL     1      24.044  29.829  15.545  0.00  0.00    +0.020 A 
ATOM      2  C   UNL     1      22.754  29.290  15.182  0.00  0.00    +0.013 A 
ATOM      3  C   UNL     1      22.473  27.867  15.330  0.00  0.00    +0.019 A 
ATOM     38  C   UNL     1      23.527  27.011  15.853  0.00  0.00    +0.120 A 
ATOM     39  N   UNL     1      24.760  27.558  16.193  0.00  0.00    -0.263 NA
ATOM     40  C   UNL     1      25.043  28.925  16.053  0.00  0.00    +0.111 A 
ENDBRANCH   4   3
ENDBRANCH  10   9
BRANCH  12  13
ATOM     13  N   UNL     1      15.249  22.754  15.533  0.00  0.00    -0.281 N 
ATOM     14  C   UNL     1      15.093  22.811  16.908  0.00  0.00    +0.248 C 
ATOM     30  O   UNL     1      15.956  22.499  17.715  0.00  0.00    -0.270 OA
ATOM     31  H   UNL     1      14.397  22.853  14.980  0.00  0.00    +0.155 HD
BRANCH  14  15
ATOM     15  C   UNL     1      13.784  23.268  17.468  0.00  0.00    +0.037 A 
ATOM     16  C   UNL     1      13.701  23.901  18.786  0.00  0.00    +0.013 A 
ATOM     17  C   UNL     1      12.424  24.317  19.310  0.00  0.00    +0.005 A 
ATOM     18  C   UNL     1      11.219  24.100  18.513  0.00  0.00    -0.033 A 
ATOM     28  C   UNL     1      11.331  23.474  17.207  0.00  0.00    +0.005 A 
ATOM     29  C   UNL     1      12.580  23.065  16.690  0.00  0.00    +0.013 A 
BRANCH  18  19
ATOM     19  C   UNL     1       9.812  24.492  19.002  0.00  0.00    +0.119 C 
BRANCH  19  20
ATOM     20  N   UNL     1       9.721  25.579  20.022  0.00  0.00    -0.302 NA
ATOM     21  C   UNL     1       8.522  25.391  20.957  0.00  0.00    +0.066 C 
ATOM     22  C   UNL     1       8.455  26.524  22.032  0.00  0.00    -0.064 C 
ATOM     23  N   UNL     1       8.388  27.883  21.333  0.00  0.00    +0.379 N 
ATOM     24  C   UNL     1       8.266  28.947  22.340  0.00  0.00    -0.096 C 
ATOM     25  H   UNL     1       7.463  27.898  20.711  0.00  0.00    -0.082 HD
ATOM     26  C   UNL     1       9.575  28.077  20.400  0.00  0.00    -0.064 C 
ATOM     27  C   UNL     1       9.650  26.930  19.354  0.00  0.00    +0.066 C 
ENDBRANCH  19  20
ENDBRANCH  18  19
ENDBRANCH  14  15
ENDBRANCH  12  13
TORSDOF 6
ENDMDL
MODEL 2
REMARK VINA RESULT:      -8.3      1.351      2.097
REMARK  Name = C:\Users\Docking\Desktop\test protocol\1iep_ligandH.pdb
REMARK  8 active torsions:
REMARK  status: ('A' for Active; 'I' for Inactive)
REMARK    1  A    between atoms: _5  and  _11
REMARK    2  A    between atoms: _19  and  _21
REMARK    3  A    between atoms: _22  and  _66
REMARK    4  A    between atoms: _27  and  _30
REMARK    5  A    between atoms: _32  and  _33
REMARK    6  A    between atoms: _38  and  _43
REMARK    7  A    between atoms: _43  and  _46
REMARK    8  A    between atoms: _53  and  _55
REMARK                            x       y       z     vdW  Elec       q    Type
REMARK                         _______ _______ _______ _____ _____    ______ ____
ROOT
ATOM     10  C   UNL     1      18.841  23.276  14.347  0.00  0.00    +0.038 A 
ATOM     11  C   UNL     1      17.697  23.530  15.147  0.00  0.00    +0.047 A 
ATOM     12  C   UNL     1      16.446  22.825  14.916  0.00  0.00    +0.035 A 
ATOM     32  C   UNL     1      16.396  21.865  13.864  0.00  0.00    +0.024 A 
ATOM     33  C   UNL     1      17.548  21.595  13.040  0.00  0.00    +0.007 A 
ATOM     34  C   UNL     1      18.784  22.290  13.262  0.00  0.00    -0.029 A 
ATOM     35  C   UNL     1      19.986  21.965  12.344  0.00  0.00    +0.045 C 
ENDROOT
BRANCH  10   9
ATOM      4  C   UNL     1      21.272  27.368  14.966  0.00  0.00    +0.077 A 
ATOM      5  C   UNL     1      20.108  28.167  14.713  0.00  0.00    +0.048 A 
ATOM      6  C   UNL     1      18.905  27.487  14.420  0.00  0.00    +0.116 A 
ATOM      7  N   UNL     1      18.879  26.109  14.386  0.00  0.00    -0.223 NA
ATOM      8  C   UNL     1      20.021  25.369  14.634  0.00  0.00    +0.220 A 
ATOM      9  N   UNL     1      20.016  23.982  14.613  0.00  0.00    -0.283 N 
ATOM     36  H   UNL     1      20.881  23.473  14.793  0.00  0.00    +0.155 HD
ATOM     37  N   UNL     1      21.182  25.995  14.914  0.00  0.00    -0.214 NA
BRANCH   4   3
ATOM      1  C   UNL     1      24.294  29.824  15.338  0.00  0.00    +0.020 A 
ATOM      2  C   UNL     1      22.982  29.321  15.001  0.00  0.00    +0.013 A 
ATOM      3  C   UNL     1      22.617  27.940  15.293  0.00  0.00    +0.019 A 
ATOM     38  C   UNL     1      23.609  27.089  15.932  0.00  0.00    +0.120 A 
ATOM     39  N   UNL     1      24.865  27.601  16.243  0.00  0.00    -0.263 NA
ATOM     40  C   UNL     1      25.228  28.927  15.965  0.00  0.00    +0.111 A 
ENDBRANCH   4   3
ENDBRANCH  10   9
BRANCH  12  13
ATOM     13  N   UNL     1      15.250  23.046  15.691  0.00  0.00    -0.281 N 
ATOM     14  C   UNL     1      15.033  22.748  17.026  0.00  0.00    +0.248 C 
ATOM     30  O   UNL     1      15.767  22.047  17.706  0.00  0.00    -0.270 OA
ATOM     31  H   UNL     1      14.469  23.474  15.194  0.00  0.00    +0.155 HD
BRANCH  14  15
ATOM     15  C   UNL     1      13.817  23.298  17.700  0.00  0.00    +0.037 A 
ATOM     16  C   UNL     1      12.504  23.256  17.050  0.00  0.00    +0.013 A 
ATOM     17  C   UNL     1      11.351  23.808  17.715  0.00  0.00    +0.005 A 
ATOM     18  C   UNL     1      11.505  24.406  19.039  0.00  0.00    -0.033 A 
ATOM     28  C   UNL     1      12.818  24.429  19.663  0.00  0.00    +0.005 A 
ATOM     29  C   UNL     1      13.951  23.890  19.014  0.00  0.00    +0.013 A 
BRANCH  18  19
ATOM     19  C   UNL     1      10.333  25.038  19.814  0.00  0.00    +0.119 C 
BRANCH  19  20
ATOM     20  N   UNL     1       9.015  24.338  19.749  0.00  0.00    -0.302 NA
ATOM     21  C   UNL     1       8.032  25.050  18.815  0.00  0.00    +0.066 C 
ATOM     22  C   UNL     1       6.666  24.293  18.742  0.00  0.00    -0.064 C 
ATOM     23  N   UNL     1       6.081  24.166  20.149  0.00  0.00    +0.379 N 
ATOM     24  C   UNL     1       4.769  23.506  20.077  0.00  0.00    -0.096 C 
ATOM     25  H   UNL     1       5.920  25.197  20.543  0.00  0.00    -0.082 HD
ATOM     26  C   UNL     1       7.053  23.462  21.085  0.00  0.00    -0.064 C 
ATOM     27  C   UNL     1       8.417  24.206  21.128  0.00  0.00    +0.066 C 
ENDBRANCH  19  20
ENDBRANCH  18  19
ENDBRANCH  14  15
ENDBRANCH  12  13
TORSDOF 6
ENDMDL
MODEL 3
REMARK VINA RESULT:      -8.2      3.242      4.912
REMARK  Name = C:\Users\Docking\Desktop\test protocol\1iep_ligandH.pdb
REMARK  8 active torsions:
REMARK  status: ('A' for Active; 'I' for Inactive)
REMARK    1  A    between atoms: _5  and  _11
REMARK    2  A    between atoms: _19  and  _21
REMARK    3  A    between atoms: _22  and  _66
REMARK    4  A    between atoms: _27  and  _30
REMARK    5  A    between atoms: _32  and  _33
REMARK    6  A    between atoms: _38  and  _43
REMARK    7  A    between atoms: _43  and  _46
REMARK    8  A    between atoms: _53  and  _55
REMARK                            x       y       z     vdW  Elec       q    Type
REMARK                         _______ _______ _______ _____ _____    ______ ____
ROOT
ATOM     10  C   UNL     1      16.541  24.255  19.042  0.00  0.00    +0.038 A 
ATOM     11  C   UNL     1      15.204  24.725  19.093  0.00  0.00    +0.047 A 
ATOM     12  C   UNL     1      14.118  23.859  19.526  0.00  0.00    +0.035 A 
ATOM     32  C   UNL     1      14.431  22.520  19.902  0.00  0.00    +0.024 A 
ATOM     33  C   UNL     1      15.784  22.026  19.855  0.00  0.00    +0.007 A 
ATOM     34  C   UNL     1      16.859  22.875  19.427  0.00  0.00    -0.029 A 
ATOM     35  C   UNL     1      18.290  22.290  19.390  0.00  0.00    +0.045 C 
ENDROOT
BRANCH  10   9
ATOM      4  C   UNL     1      19.160  26.348  15.607  0.00  0.00    +0.077 A 
ATOM      5  C   UNL     1      18.491  25.617  14.569  0.00  0.00    +0.048 A 
ATOM      6  C   UNL     1      17.484  24.707  14.962  0.00  0.00    +0.116 A 
ATOM      7  N   UNL     1      17.177  24.549  16.296  0.00  0.00    -0.223 NA
ATOM      8  C   UNL     1      17.843  25.268  17.272  0.00  0.00    +0.220 A 
ATOM      9  N   UNL     1      17.545  25.130  18.619  0.00  0.00    -0.283 N 
ATOM     36  H   UNL     1      18.064  25.673  19.308  0.00  0.00    +0.155 HD
ATOM     37  N   UNL     1      18.809  26.142  16.923  0.00  0.00    -0.214 NA
BRANCH   4   3
ATOM      1  C   UNL     1      21.451  29.013  13.889  0.00  0.00    +0.020 A 
ATOM      2  C   UNL     1      20.386  28.056  14.085  0.00  0.00    +0.013 A 
ATOM      3  C   UNL     1      20.244  27.348  15.351  0.00  0.00    +0.019 A 
ATOM     38  C   UNL     1      21.204  27.634  16.407  0.00  0.00    +0.120 A 
ATOM     39  N   UNL     1      22.220  28.559  16.189  0.00  0.00    -0.263 NA
ATOM     40  C   UNL     1      22.367  29.246  14.974  0.00  0.00    +0.111 A 
ENDBRANCH   4   3
ENDBRANCH  10   9
BRANCH  12  13
ATOM     13  N   UNL     1      12.740  24.278  19.590  0.00  0.00    -0.281 N 
ATOM     14  C   UNL     1      11.753  24.108  18.633  0.00  0.00    +0.248 C 
ATOM     30  O   UNL     1      11.960  23.757  17.481  0.00  0.00    -0.270 OA
ATOM     31  H   UNL     1      12.458  24.758  20.445  0.00  0.00    +0.155 HD
BRANCH  14  15
ATOM     15  C   UNL     1      10.331  24.382  19.006  0.00  0.00    +0.037 A 
ATOM     16  C   UNL     1       9.722  25.693  18.767  0.00  0.00    +0.013 A 
ATOM     17  C   UNL     1       8.354  25.935  19.152  0.00  0.00    +0.005 A 
ATOM     18  C   UNL     1       7.585  24.863  19.779  0.00  0.00    -0.033 A 
ATOM     28  C   UNL     1       8.213  23.570  19.999  0.00  0.00    +0.005 A 
ATOM     29  C   UNL     1       9.554  23.329  19.625  0.00  0.00    +0.013 A 
BRANCH  18  19
ATOM     19  C   UNL     1       6.127  25.039  20.241  0.00  0.00    +0.119 C 
BRANCH  19  20
ATOM     20  N   UNL     1       5.517  23.921  21.021  0.00  0.00    -0.302 NA
ATOM     21  C   UNL     1       4.181  23.468  20.426  0.00  0.00    +0.066 C 
ATOM     22  C   UNL     1       3.568  22.283  21.242  0.00  0.00    -0.064 C 
ATOM     23  N   UNL     1       3.395  22.707  22.701  0.00  0.00    +0.379 N 
ATOM     24  C   UNL     1       2.765  21.615  23.458  0.00  0.00    -0.096 C 
ATOM     25  H   UNL     1       2.699  23.577  22.720  0.00  0.00    -0.082 HD
ATOM     26  C   UNL     1       4.718  23.162  23.299  0.00  0.00    -0.064 C 
ATOM     27  C   UNL     1       5.333  24.320  22.465  0.00  0.00    +0.066 C 
ENDBRANCH  19  20
ENDBRANCH  18  19
ENDBRANCH  14  15
ENDBRANCH  12  13
TORSDOF 6
ENDMDL
MODEL 4
REMARK VINA RESULT:      -7.8      2.203      3.091
REMARK  Name = C:\Users\Docking\Desktop\test protocol\1iep_ligandH.pdb
REMARK  8 active torsions:
REMARK  status: ('A' for Active; 'I' for Inactive)
REMARK    1  A    between atoms: _5  and  _11
REMARK    2  A    between atoms: _19  and  _21
REMARK    3  A    between atoms: _22  and  _66
REMARK    4  A    between atoms: _27  and  _30
REMARK    5  A    between atoms: _32  and  _33
REMARK    6  A    between atoms: _38  and  _43
REMARK    7  A    between atoms: _43  and  _46
REMARK    8  A    between atoms: _53  and  _55
REMARK                            x       y       z     vdW  Elec       q    Type
REMARK                         _______ _______ _______ _____ _____    ______ ____
ROOT
ATOM     10  C   UNL     1      16.452  22.768  15.246  0.00  0.00    +0.038 A 
ATOM     11  C   UNL     1      15.237  23.157  15.865  0.00  0.00    +0.047 A 
ATOM     12  C   UNL     1      13.955  22.675  15.377  0.00  0.00    +0.035 A 
ATOM     32  C   UNL     1      13.946  21.795  14.255  0.00  0.00    +0.024 A 
ATOM     33  C   UNL     1      15.172  21.389  13.613  0.00  0.00    +0.007 A 
ATOM     34  C   UNL     1      16.440  21.864  14.089  0.00  0.00    -0.029 A 
ATOM     35  C   UNL     1      17.721  21.402  13.357  0.00  0.00    +0.045 C 
ENDROOT
BRANCH  10   9
ATOM      4  C   UNL     1      19.805  26.180  15.629  0.00  0.00    +0.077 A 
ATOM      5  C   UNL     1      19.116  27.043  14.713  0.00  0.00    +0.048 A 
ATOM      6  C   UNL     1      17.905  26.569  14.161  0.00  0.00    +0.116 A 
ATOM      7  N   UNL     1      17.429  25.322  14.505  0.00  0.00    -0.223 NA
ATOM      8  C   UNL     1      18.119  24.514  15.390  0.00  0.00    +0.220 A 
ATOM      9  N   UNL     1      17.655  23.261  15.756  0.00  0.00    -0.283 N 
ATOM     36  H   UNL     1      18.197  22.692  16.406  0.00  0.00    +0.155 HD
ATOM     37  N   UNL     1      19.278  24.944  15.930  0.00  0.00    -0.214 NA
BRANCH   4   3
ATOM      1  C   UNL     1      23.525  27.215  16.255  0.00  0.00    +0.020 A 
ATOM      2  C   UNL     1      22.306  26.872  15.559  0.00  0.00    +0.013 A 
ATOM      3  C   UNL     1      21.094  26.542  16.299  0.00  0.00    +0.019 A 
ATOM     38  C   UNL     1      21.150  26.568  17.753  0.00  0.00    +0.120 A 
ATOM     39  N   UNL     1      22.339  26.900  18.395  0.00  0.00    -0.263 NA
ATOM     40  C   UNL     1      23.512  27.218  17.694  0.00  0.00    +0.111 A 
ENDBRANCH   4   3
ENDBRANCH  10   9
BRANCH  12  13
ATOM     13  N   UNL     1      12.688  23.043  15.960  0.00  0.00    -0.281 N 
ATOM     14  C   UNL     1      12.026  22.431  17.012  0.00  0.00    +0.248 C 
ATOM     30  O   UNL     1      12.322  21.340  17.474  0.00  0.00    -0.270 OA
ATOM     31  H   UNL     1      12.224  23.852  15.547  0.00  0.00    +0.155 HD
BRANCH  14  15
ATOM     15  C   UNL     1      10.856  23.127  17.630  0.00  0.00    +0.037 A 
ATOM     16  C   UNL     1       9.519  22.527  17.612  0.00  0.00    +0.013 A 
ATOM     17  C   UNL     1       8.405  23.227  18.201  0.00  0.00    +0.005 A 
ATOM     18  C   UNL     1       8.624  24.535  18.814  0.00  0.00    -0.033 A 
ATOM     28  C   UNL     1       9.961  25.104  18.823  0.00  0.00    +0.005 A 
ATOM     29  C   UNL     1      11.056  24.421  18.246  0.00  0.00    +0.013 A 
BRANCH  18  19
ATOM     19  C   UNL     1       7.489  25.362  19.447  0.00  0.00    +0.119 C 
BRANCH  19  20
ATOM     20  N   UNL     1       7.074  25.003  20.836  0.00  0.00    -0.302 NA
ATOM     21  C   UNL     1       5.839  24.097  20.850  0.00  0.00    +0.066 C 
ATOM     22  C   UNL     1       5.432  23.713  22.310  0.00  0.00    -0.064 C 
ATOM     23  N   UNL     1       5.179  24.986  23.118  0.00  0.00    +0.379 N 
ATOM     24  C   UNL     1       4.739  24.628  24.474  0.00  0.00    -0.096 C 
ATOM     25  H   UNL     1       4.344  25.538  22.626  0.00  0.00    -0.082 HD
ATOM     26  C   UNL     1       6.400  25.894  23.107  0.00  0.00    -0.064 C 
ATOM     27  C   UNL     1       6.814  26.246  21.651  0.00  0.00    +0.066 C 
ENDBRANCH  19  20
ENDBRANCH  18  19
ENDBRANCH  14  15
ENDBRANCH  12  13
TORSDOF 6
ENDMDL
MODEL 5
REMARK VINA RESULT:      -7.8      2.530     12.475
REMARK  Name = C:\Users\Docking\Desktop\test protocol\1iep_ligandH.pdb
REMARK  8 active torsions:
REMARK  status: ('A' for Active; 'I' for Inactive)
REMARK    1  A    between atoms: _5  and  _11
REMARK    2  A    between atoms: _19  and  _21
REMARK    3  A    between atoms: _22  and  _66
REMARK    4  A    between atoms: _27  and  _30
REMARK    5  A    between atoms: _32  and  _33
REMARK    6  A    between atoms: _38  and  _43
REMARK    7  A    between atoms: _43  and  _46
REMARK    8  A    between atoms: _53  and  _55
REMARK                            x       y       z     vdW  Elec       q    Type
REMARK                         _______ _______ _______ _____ _____    ______ ____
ROOT
ATOM     10  C   UNL     1       8.900  25.881  19.418  0.00  0.00    +0.038 A 
ATOM     11  C   UNL     1      10.298  25.817  19.187  0.00  0.00    +0.047 A 
ATOM     12  C   UNL     1      11.007  24.547  19.209  0.00  0.00    +0.035 A 
ATOM     32  C   UNL     1      10.260  23.360  19.467  0.00  0.00    +0.024 A 
ATOM     33  C   UNL     1       8.839  23.407  19.704  0.00  0.00    +0.007 A 
ATOM     34  C   UNL     1       8.134  24.657  19.686  0.00  0.00    -0.029 A 
ATOM     35  C   UNL     1       6.611  24.649  19.954  0.00  0.00    +0.045 C 
ENDROOT
BRANCH  10   9
ATOM      4  C   UNL     1       7.567  30.005  21.479  0.00  0.00    +0.077 A 
ATOM      5  C   UNL     1       8.152  29.635  22.735  0.00  0.00    +0.048 A 
ATOM      6  C   UNL     1       8.780  28.372  22.812  0.00  0.00    +0.116 A 
ATOM      7  N   UNL     1       8.815  27.548  21.707  0.00  0.00    -0.223 NA
ATOM      8  C   UNL     1       8.240  27.935  20.511  0.00  0.00    +0.220 A 
ATOM      9  N   UNL     1       8.270  27.127  19.385  0.00  0.00    -0.283 N 
ATOM     36  H   UNL     1       7.828  27.446  18.523  0.00  0.00    +0.155 HD
ATOM     37  N   UNL     1       7.633  29.136  20.413  0.00  0.00    -0.214 NA
BRANCH   4   3
ATOM      1  C   UNL     1       5.584  33.333  22.022  0.00  0.00    +0.020 A 
ATOM      2  C   UNL     1       6.243  32.079  22.306  0.00  0.00    +0.013 A 
ATOM      3  C   UNL     1       6.871  31.309  21.240  0.00  0.00    +0.019 A 
ATOM     38  C   UNL     1       6.815  31.841  19.887  0.00  0.00    +0.120 A 
ATOM     39  N   UNL     1       6.172  33.050  19.643  0.00  0.00    -0.263 NA
ATOM     40  C   UNL     1       5.562  33.799  20.661  0.00  0.00    +0.111 A 
ENDBRANCH   4   3
ENDBRANCH  10   9
BRANCH  12  13
ATOM     13  N   UNL     1      12.427  24.421  18.990  0.00  0.00    -0.281 N 
ATOM     14  C   UNL     1      13.073  23.796  17.936  0.00  0.00    +0.248 C 
ATOM     30  O   UNL     1      12.526  23.061  17.128  0.00  0.00    -0.270 OA
ATOM     31  H   UNL     1      13.027  24.844  19.697  0.00  0.00    +0.155 HD
BRANCH  14  15
ATOM     15  C   UNL     1      14.543  24.006  17.765  0.00  0.00    +0.037 A 
ATOM     16  C   UNL     1      15.328  24.738  18.762  0.00  0.00    +0.013 A 
ATOM     17  C   UNL     1      16.741  24.942  18.564  0.00  0.00    +0.005 A 
ATOM     18  C   UNL     1      17.379  24.411  17.362  0.00  0.00    -0.033 A 
ATOM     28  C   UNL     1      16.578  23.684  16.390  0.00  0.00    +0.005 A 
ATOM     29  C   UNL     1      15.192  23.484  16.581  0.00  0.00    +0.013 A 
BRANCH  18  19
ATOM     19  C   UNL     1      18.877  24.599  17.057  0.00  0.00    +0.119 C 
BRANCH  19  20
ATOM     20  N   UNL     1      19.293  25.897  16.448  0.00  0.00    -0.302 NA
ATOM     21  C   UNL     1      19.050  25.926  14.936  0.00  0.00    +0.066 C 
ATOM     22  C   UNL     1      19.470  27.300  14.319  0.00  0.00    -0.064 C 
ATOM     23  N   UNL     1      20.942  27.570  14.636  0.00  0.00    +0.379 N 
ATOM     24  C   UNL     1      21.355  28.833  14.007  0.00  0.00    -0.096 C 
ATOM     25  H   UNL     1      21.543  26.751  14.177  0.00  0.00    -0.082 HD
ATOM     26  C   UNL     1      21.193  27.540  16.137  0.00  0.00    -0.064 C 
ATOM     27  C   UNL     1      20.745  26.182  16.745  0.00  0.00    +0.066 C 
ENDBRANCH  19  20
ENDBRANCH  18  19
ENDBRANCH  14  15
ENDBRANCH  12  13
TORSDOF 6
ENDMDL
