MODEL 1
REMARK VINA RESULT:      -8.6      0.000      0.000
REMARK  Name = C:\Users\Docking\Desktop\test protocol\1iep_ligandH.pdb
REMARK  8 active torsions:
REMARK  status: ('A' for Active; 'I' for Inactive)
REMARK    1  A    between atoms: _5  and  _11
REMARK    2  A    between atoms: _19  and  _21
REMARK    3  A    between atoms: _22  and  _66
REMARK    4  A    between atoms: _27  and  _30
REMARK    5  A    between atoms: _32  and  _33
REMARK    6  A    between atoms: _38  and  _43
REMARK    7  A    between atoms: _43  and  _46
REMARK    8  A    between atoms: _53  and  _55
REMARK                            x       y       z     vdW  Elec       q    Type
REMARK                         _______ _______ _______ _____ _____    ______ ____
ROOT
ATOM     10  C   UNL     1       8.631  25.924  18.850  0.00  0.00    +0.038 A 
ATOM     11  C   UNL     1       9.931  25.735  18.314  0.00  0.00    +0.047 A 
ATOM     12  C   UNL     1      10.507  24.406  18.188  0.00  0.00    +0.035 A 
ATOM     32  C   UNL     1       9.731  23.289  18.616  0.00  0.00    +0.024 A 
ATOM     33  C   UNL     1       8.409  23.463  19.164  0.00  0.00    +0.007 A 
ATOM     34  C   UNL     1       7.836  24.772  19.293  0.00  0.00    -0.029 A 
ATOM     35  C   UNL     1       6.416  24.899  19.894  0.00  0.00    +0.045 C 
ENDROOT
BRANCH  10   9
ATOM      4  C   UNL     1       7.696  29.925  21.330  0.00  0.00    +0.077 A 
ATOM      5  C   UNL     1       8.233  29.372  22.540  0.00  0.00    +0.048 A 
ATOM      6  C   UNL     1       8.733  28.052  22.483  0.00  0.00    +0.116 A 
ATOM      7  N   UNL     1       8.695  27.347  21.299  0.00  0.00    -0.223 NA
ATOM      8  C   UNL     1       8.168  27.910  20.151  0.00  0.00    +0.220 A 
ATOM      9  N   UNL     1       8.127  27.222  18.948  0.00  0.00    -0.283 N 
ATOM     36  H   UNL     1       7.724  27.670  18.125  0.00  0.00    +0.155 HD
ATOM     37  N   UNL     1       7.683  29.168  20.179  0.00  0.00    -0.214 NA
BRANCH   4   3
ATOM      1  C   UNL     1       5.658  33.187  22.042  0.00  0.00    +0.020 A 
ATOM      2  C   UNL     1       6.171  31.844  22.184  0.00  0.00    +0.013 A 
ATOM      3  C   UNL     1       7.132  31.309  21.229  0.00  0.00    +0.019 A 
ATOM     38  C   UNL     1       7.558  32.165  20.132  0.00  0.00    +0.120 A 
ATOM     39  N   UNL     1       7.046  33.454  20.020  0.00  0.00    -0.263 NA
ATOM     40  C   UNL     1       6.119  33.979  20.932  0.00  0.00    +0.111 A 
ENDBRANCH   4   3
ENDBRANCH  10   9
BRANCH  12  13
ATOM     13  N   UNL     1      11.825  24.153  17.659  0.00  0.00    -0.281 N 
ATOM     14  C   UNL     1      12.182  23.281  16.643  0.00  0.00    +0.248 C 
ATOM     30  O   UNL     1      11.446  22.424  16.178  0.00  0.00    -0.270 OA
ATOM     31  H   UNL     1      12.586  24.681  18.085  0.00  0.00    +0.155 HD
BRANCH  14  15
ATOM     15  C   UNL     1      13.560  23.364  16.072  0.00  0.00    +0.037 A 
ATOM     16  C   UNL     1      13.781  23.434  14.625  0.00  0.00    +0.013 A 
ATOM     17  C   UNL     1      15.122  23.496  14.100  0.00  0.00    +0.005 A 
ATOM     18  C   UNL     1      16.254  23.490  15.024  0.00  0.00    -0.033 A 
ATOM     28  C   UNL     1      16.006  23.426  16.455  0.00  0.00    +0.005 A 
ATOM     29  C   UNL     1      14.693  23.364  16.973  0.00  0.00    +0.013 A 
BRANCH  18  19
ATOM     19  C   UNL     1      17.719  23.533  14.551  0.00  0.00    +0.119 C 
BRANCH  19  20
ATOM     20  N   UNL     1      18.488  24.784  14.820  0.00  0.00    -0.302 NA
ATOM     21  C   UNL     1      17.801  26.019  14.231  0.00  0.00    +0.066 C 
ATOM     22  C   UNL     1      18.608  27.322  14.541  0.00  0.00    -0.064 C 
ATOM     23  N   UNL     1      20.029  27.180  13.994  0.00  0.00    +0.379 N 
ATOM     24  C   UNL     1      20.773  28.426  14.233  0.00  0.00    -0.096 C 
ATOM     25  H   UNL     1      19.954  27.037  12.891  0.00  0.00    -0.082 HD
ATOM     26  C   UNL     1      20.719  25.953  14.573  0.00  0.00    -0.064 C 
ATOM     27  C   UNL     1      19.894  24.668  14.285  0.00  0.00    +0.066 C 
ENDBRANCH  19  20
ENDBRANCH  18  19
ENDBRANCH  14  15
ENDBRANCH  12  13
TORSDOF 6
ENDMDL
MODEL 2
REMARK VINA RESULT:      -8.4      9.168     13.940
REMARK  Name = C:\Users\Docking\Desktop\test protocol\1iep_ligandH.pdb
REMARK  8 active torsions:
REMARK  status: ('A' for Active; 'I' for Inactive)
REMARK    1  A    between atoms: _5  and  _11
REMARK    2  A    between atoms: _19  and  _21
REMARK    3  A    between atoms: _22  and  _66
REMARK    4  A    between atoms: _27  and  _30
REMARK    5  A    between atoms: _32  and  _33
REMARK    6  A    between atoms: _38  and  _43
REMARK    7  A    between atoms: _43  and  _46
REMARK    8  A    between atoms: _53  and  _55
REMARK                            x       y       z     vdW  Elec       q    Type
REMARK                         _______ _______ _______ _____ _____    ______ ____
ROOT
ATOM     10  C   UNL     1      17.377  23.489  12.407  0.00  0.00    +0.038 A 
ATOM     11  C   UNL     1      18.477  24.338  12.687  0.00  0.00    +0.047 A 
ATOM     12  C   UNL     1      18.324  25.514  13.530  0.00  0.00    +0.035 A 
ATOM     32  C   UNL     1      17.037  25.792  14.074  0.00  0.00    +0.024 A 
ATOM     33  C   UNL     1      15.907  24.940  13.799  0.00  0.00    +0.007 A 
ATOM     34  C   UNL     1      16.051  23.780  12.965  0.00  0.00    -0.029 A 
ATOM     35  C   UNL     1      14.804  22.905  12.699  0.00  0.00    +0.045 C 
ENDROOT
BRANCH  10   9
ATOM      4  C   UNL     1      19.039  19.051  11.640  0.00  0.00    +0.077 A 
ATOM      5  C   UNL     1      19.570  18.957  12.969  0.00  0.00    +0.048 A 
ATOM      6  C   UNL     1      19.401  20.075  13.817  0.00  0.00    +0.116 A 
ATOM      7  N   UNL     1      18.747  21.198  13.358  0.00  0.00    -0.223 NA
ATOM      8  C   UNL     1      18.248  21.257  12.070  0.00  0.00    +0.220 A 
ATOM      9  N   UNL     1      17.580  22.373  11.591  0.00  0.00    -0.283 N 
ATOM     36  H   UNL     1      17.234  22.380  10.632  0.00  0.00    +0.155 HD
ATOM     37  N   UNL     1      18.398  20.203  11.241  0.00  0.00    -0.214 NA
BRANCH   4   3
ATOM      1  C   UNL     1      18.622  16.933   8.378  0.00  0.00    +0.020 A 
ATOM      2  C   UNL     1      18.497  18.022   9.320  0.00  0.00    +0.013 A 
ATOM      3  C   UNL     1      19.135  17.952  10.628  0.00  0.00    +0.019 A 
ATOM     38  C   UNL     1      19.898  16.757  10.956  0.00  0.00    +0.120 A 
ATOM     39  N   UNL     1      20.000  15.724  10.030  0.00  0.00    -0.263 NA
ATOM     40  C   UNL     1      19.389  15.779   8.768  0.00  0.00    +0.111 A 
ENDBRANCH   4   3
ENDBRANCH  10   9
BRANCH  12  13
ATOM     13  N   UNL     1      19.403  26.418  13.843  0.00  0.00    -0.281 N 
ATOM     14  C   UNL     1      19.996  26.643  15.075  0.00  0.00    +0.248 C 
ATOM     30  O   UNL     1      19.542  26.255  16.141  0.00  0.00    -0.270 OA
ATOM     31  H   UNL     1      19.776  26.957  13.061  0.00  0.00    +0.155 HD
BRANCH  14  15
ATOM     15  C   UNL     1      21.268  27.425  15.132  0.00  0.00    +0.037 A 
ATOM     16  C   UNL     1      22.480  26.860  15.731  0.00  0.00    +0.013 A 
ATOM     17  C   UNL     1      23.690  27.642  15.789  0.00  0.00    +0.005 A 
ATOM     18  C   UNL     1      23.694  28.997  15.244  0.00  0.00    -0.033 A 
ATOM     28  C   UNL     1      22.479  29.530  14.650  0.00  0.00    +0.005 A 
ATOM     29  C   UNL     1      21.291  28.768  14.593  0.00  0.00    +0.013 A 
BRANCH  18  19
ATOM     19  C   UNL     1      24.933  29.911  15.281  0.00  0.00    +0.119 C 
BRANCH  19  20
ATOM     20  N   UNL     1      24.752  31.288  15.830  0.00  0.00    -0.302 NA
ATOM     21  C   UNL     1      25.395  32.352  14.936  0.00  0.00    +0.066 C 
ATOM     22  C   UNL     1      25.176  33.788  15.514  0.00  0.00    -0.064 C 
ATOM     23  N   UNL     1      25.744  33.857  16.932  0.00  0.00    +0.379 N 
ATOM     24  C   UNL     1      25.592  35.222  17.456  0.00  0.00    -0.096 C 
ATOM     25  H   UNL     1      26.835  33.638  16.870  0.00  0.00    -0.082 HD
ATOM     26  C   UNL     1      25.112  32.800  17.827  0.00  0.00    -0.064 C 
ATOM     27  C   UNL     1      25.310  31.379  17.229  0.00  0.00    +0.066 C 
ENDBRANCH  19  20
ENDBRANCH  18  19
ENDBRANCH  14  15
ENDBRANCH  12  13
TORSDOF 6
ENDMDL
MODEL 3
REMARK VINA RESULT:      -8.4      2.283     12.342
REMARK  Name = C:\Users\Docking\Desktop\test protocol\1iep_ligandH.pdb
REMARK  8 active torsions:
REMARK  status: ('A' for Active; 'I' for Inactive)
REMARK    1  A    between atoms: _5  and  _11
REMARK    2  A    between atoms: _19  and  _21
REMARK    3  A    between atoms: _22  and  _66
REMARK    4  A    between atoms: _27  and  _30
REMARK    5  A    between atoms: _32  and  _33
REMARK    6  A    between atoms: _38  and  _43
REMARK    7  A    between atoms: _43  and  _46
REMARK    8  A    between atoms: _53  and  _55
REMARK                            x       y       z     vdW  Elec       q    Type
REMARK                         _______ _______ _______ _____ _____    ______ ____
ROOT
ATOM     10  C   UNL     1      17.945  24.407  14.093  0.00  0.00    +0.038 A 
ATOM     11  C   UNL     1      16.898  24.464  15.048  0.00  0.00    +0.047 A 
ATOM     12  C   UNL     1      15.529  24.136  14.685  0.00  0.00    +0.035 A 
ATOM     32  C   UNL     1      15.261  23.750  13.339  0.00  0.00    +0.024 A 
ATOM     33  C   UNL     1      16.313  23.687  12.355  0.00  0.00    +0.007 A 
ATOM     34  C   UNL     1      17.665  24.012  12.707  0.00  0.00    -0.029 A 
ATOM     35  C   UNL     1      18.752  23.934  11.609  0.00  0.00    +0.045 C 
ENDROOT
BRANCH  10   9
ATOM      4  C   UNL     1      21.382  27.594  15.124  0.00  0.00    +0.077 A 
ATOM      5  C   UNL     1      20.531  28.704  14.805  0.00  0.00    +0.048 A 
ATOM      6  C   UNL     1      19.218  28.411  14.372  0.00  0.00    +0.116 A 
ATOM      7  N   UNL     1      18.798  27.103  14.271  0.00  0.00    -0.223 NA
ATOM      8  C   UNL     1      19.645  26.056  14.584  0.00  0.00    +0.220 A 
ATOM      9  N   UNL     1      19.242  24.732  14.497  0.00  0.00    -0.283 N 
ATOM     36  H   UNL     1      19.899  23.988  14.730  0.00  0.00    +0.155 HD
ATOM     37  N   UNL     1      20.904  26.309  14.998  0.00  0.00    -0.214 NA
BRANCH   4   3
ATOM      1  C   UNL     1      24.879  29.096  16.027  0.00  0.00    +0.020 A 
ATOM      2  C   UNL     1      23.516  29.007  15.556  0.00  0.00    +0.013 A 
ATOM      3  C   UNL     1      22.795  27.742  15.597  0.00  0.00    +0.019 A 
ATOM     38  C   UNL     1      23.487  26.575  16.125  0.00  0.00    +0.120 A 
ATOM     39  N   UNL     1      24.800  26.690  16.569  0.00  0.00    -0.263 NA
ATOM     40  C   UNL     1      25.505  27.903  16.533  0.00  0.00    +0.111 A 
ENDBRANCH   4   3
ENDBRANCH  10   9
BRANCH  12  13
ATOM     13  N   UNL     1      14.424  24.184  15.610  0.00  0.00    -0.281 N 
ATOM     14  C   UNL     1      14.032  23.215  16.520  0.00  0.00    +0.248 C 
ATOM     30  O   UNL     1      14.447  22.066  16.528  0.00  0.00    -0.270 OA
ATOM     31  H   UNL     1      13.862  25.035  15.591  0.00  0.00    +0.155 HD
BRANCH  14  15
ATOM     15  C   UNL     1      13.023  23.571  17.563  0.00  0.00    +0.037 A 
ATOM     16  C   UNL     1      13.429  24.148  18.848  0.00  0.00    +0.013 A 
ATOM     17  C   UNL     1      12.436  24.466  19.843  0.00  0.00    +0.005 A 
ATOM     18  C   UNL     1      11.026  24.210  19.557  0.00  0.00    -0.033 A 
ATOM     28  C   UNL     1      10.651  23.642  18.272  0.00  0.00    +0.005 A 
ATOM     29  C   UNL     1      11.622  23.328  17.295  0.00  0.00    +0.013 A 
BRANCH  18  19
ATOM     19  C   UNL     1       9.901  24.498  20.569  0.00  0.00    +0.119 C 
BRANCH  19  20
ATOM     20  N   UNL     1       9.749  25.908  21.037  0.00  0.00    -0.302 NA
ATOM     21  C   UNL     1       8.618  26.054  22.060  0.00  0.00    +0.066 C 
ATOM     22  C   UNL     1       8.488  27.531  22.556  0.00  0.00    -0.064 C 
ATOM     23  N   UNL     1       8.255  28.451  21.357  0.00  0.00    +0.379 N 
ATOM     24  C   UNL     1       8.073  29.832  21.825  0.00  0.00    -0.096 C 
ATOM     25  H   UNL     1       7.306  28.133  20.866  0.00  0.00    -0.082 HD
ATOM     26  C   UNL     1       9.373  28.310  20.333  0.00  0.00    -0.064 C 
ATOM     27  C   UNL     1       9.514  26.833  19.869  0.00  0.00    +0.066 C 
ENDBRANCH  19  20
ENDBRANCH  18  19
ENDBRANCH  14  15
ENDBRANCH  12  13
TORSDOF 6
ENDMDL
MODEL 4
REMARK VINA RESULT:      -8.4      9.001     13.884
REMARK  Name = C:\Users\Docking\Desktop\test protocol\1iep_ligandH.pdb
REMARK  8 active torsions:
REMARK  status: ('A' for Active; 'I' for Inactive)
REMARK    1  A    between atoms: _5  and  _11
REMARK    2  A    between atoms: _19  and  _21
REMARK    3  A    between atoms: _22  and  _66
REMARK    4  A    between atoms: _27  and  _30
REMARK    5  A    between atoms: _32  and  _33
REMARK    6  A    between atoms: _38  and  _43
REMARK    7  A    between atoms: _43  and  _46
REMARK    8  A    between atoms: _53  and  _55
REMARK                            x       y       z     vdW  Elec       q    Type
REMARK                         _______ _______ _______ _____ _____    ______ ____
ROOT
ATOM     10  C   UNL     1      17.121  23.216  12.450  0.00  0.00    +0.038 A 
ATOM     11  C   UNL     1      18.150  24.151  12.729  0.00  0.00    +0.047 A 
ATOM     12  C   UNL     1      17.906  25.308  13.577  0.00  0.00    +0.035 A 
ATOM     32  C   UNL     1      16.602  25.479  14.127  0.00  0.00    +0.024 A 
ATOM     33  C   UNL     1      15.544  24.538  13.853  0.00  0.00    +0.007 A 
ATOM     34  C   UNL     1      15.778  23.397  13.015  0.00  0.00    -0.029 A 
ATOM     35  C   UNL     1      14.606  22.424  12.750  0.00  0.00    +0.045 C 
ENDROOT
BRANCH  10   9
ATOM      4  C   UNL     1      19.105  18.915  11.672  0.00  0.00    +0.077 A 
ATOM      5  C   UNL     1      19.631  18.851  13.005  0.00  0.00    +0.048 A 
ATOM      6  C   UNL     1      19.375  19.948  13.857  0.00  0.00    +0.116 A 
ATOM      7  N   UNL     1      18.645  21.024  13.400  0.00  0.00    -0.223 NA
ATOM      8  C   UNL     1      18.154  21.055  12.108  0.00  0.00    +0.220 A 
ATOM      9  N   UNL     1      17.411  22.123  11.629  0.00  0.00    -0.283 N 
ATOM     36  H   UNL     1      17.072  22.111  10.667  0.00  0.00    +0.155 HD
ATOM     37  N   UNL     1      18.386  20.020  11.274  0.00  0.00    -0.214 NA
BRANCH   4   3
ATOM      1  C   UNL     1      18.796  16.746   8.431  0.00  0.00    +0.020 A 
ATOM      2  C   UNL     1      18.582  17.815   9.379  0.00  0.00    +0.013 A 
ATOM      3  C   UNL     1      19.288  17.832  10.654  0.00  0.00    +0.019 A 
ATOM     38  C   UNL     1      20.211  16.744  10.941  0.00  0.00    +0.120 A 
ATOM     39  N   UNL     1      20.396  15.728  10.009  0.00  0.00    -0.263 NA
ATOM     40  C   UNL     1      19.720  15.700   8.780  0.00  0.00    +0.111 A 
ENDBRANCH   4   3
ENDBRANCH  10   9
BRANCH  12  13
ATOM     13  N   UNL     1      18.909  26.295  13.888  0.00  0.00    -0.281 N 
ATOM     14  C   UNL     1      19.759  26.331  14.982  0.00  0.00    +0.248 C 
ATOM     30  O   UNL     1      19.638  25.627  15.974  0.00  0.00    -0.270 OA
ATOM     31  H   UNL     1      19.004  27.062  13.222  0.00  0.00    +0.155 HD
BRANCH  14  15
ATOM     15  C   UNL     1      20.899  27.297  14.979  0.00  0.00    +0.037 A 
ATOM     16  C   UNL     1      22.128  27.023  15.728  0.00  0.00    +0.013 A 
ATOM     17  C   UNL     1      23.206  27.980  15.722  0.00  0.00    +0.005 A 
ATOM     18  C   UNL     1      23.060  29.220  14.963  0.00  0.00    -0.033 A 
ATOM     28  C   UNL     1      21.831  29.463  14.225  0.00  0.00    +0.005 A 
ATOM     29  C   UNL     1      20.772  28.528  14.229  0.00  0.00    +0.013 A 
BRANCH  18  19
ATOM     19  C   UNL     1      24.150  30.307  14.918  0.00  0.00    +0.119 C 
BRANCH  19  20
ATOM     20  N   UNL     1      24.994  30.480  16.138  0.00  0.00    -0.302 NA
ATOM     21  C   UNL     1      24.954  31.918  16.664  0.00  0.00    +0.066 C 
ATOM     22  C   UNL     1      25.824  32.076  17.954  0.00  0.00    -0.064 C 
ATOM     23  N   UNL     1      27.261  31.650  17.651  0.00  0.00    +0.379 N 
ATOM     24  C   UNL     1      28.094  31.852  18.846  0.00  0.00    -0.096 C 
ATOM     25  H   UNL     1      27.650  32.319  16.850  0.00  0.00    -0.082 HD
ATOM     26  C   UNL     1      27.310  30.222  17.125  0.00  0.00    -0.064 C 
ATOM     27  C   UNL     1      26.419  30.069  15.861  0.00  0.00    +0.066 C 
ENDBRANCH  19  20
ENDBRANCH  18  19
ENDBRANCH  14  15
ENDBRANCH  12  13
TORSDOF 6
ENDMDL
MODEL 5
REMARK VINA RESULT:      -8.2      3.463     12.133
REMARK  Name = C:\Users\Docking\Desktop\test protocol\1iep_ligandH.pdb
REMARK  8 active torsions:
REMARK  status: ('A' for Active; 'I' for Inactive)
REMARK    1  A    between atoms: _5  and  _11
REMARK    2  A    between atoms: _19  and  _21
REMARK    3  A    between atoms: _22  and  _66
REMARK    4  A    between atoms: _27  and  _30
REMARK    5  A    between atoms: _32  and  _33
REMARK    6  A    between atoms: _38  and  _43
REMARK    7  A    between atoms: _43  and  _46
REMARK    8  A    between atoms: _53  and  _55
REMARK                            x       y       z     vdW  Elec       q    Type
REMARK                         _______ _______ _______ _____ _____    ______ ____
ROOT
ATOM     10  C   UNL     1      15.514  23.555  13.882  0.00  0.00    +0.038 A 
ATOM     11  C   UNL     1      14.361  23.786  14.675  0.00  0.00    +0.047 A 
ATOM     12  C   UNL     1      13.334  22.767  14.825  0.00  0.00    +0.035 A 
ATOM     32  C   UNL     1      13.516  21.522  14.155  0.00  0.00    +0.024 A 
ATOM     33  C   UNL     1      14.681  21.270  13.345  0.00  0.00    +0.007 A 
ATOM     34  C   UNL     1      15.696  22.273  13.191  0.00  0.00    -0.029 A 
ATOM     35  C   UNL     1      16.922  21.951  12.305  0.00  0.00    +0.045 C 
ENDROOT
BRANCH  10   9
ATOM      4  C   UNL     1      19.330  25.969  15.511  0.00  0.00    +0.077 A 
ATOM      5  C   UNL     1      19.413  25.158  16.691  0.00  0.00    +0.048 A 
ATOM      6  C   UNL     1      18.451  24.135  16.845  0.00  0.00    +0.116 A 
ATOM      7  N   UNL     1      17.482  23.946  15.883  0.00  0.00    -0.223 NA
ATOM      8  C   UNL     1      17.429  24.747  14.757  0.00  0.00    +0.220 A 
ATOM      9  N   UNL     1      16.468  24.569  13.774  0.00  0.00    -0.283 N 
ATOM     36  H   UNL     1      16.459  25.186  12.961  0.00  0.00    +0.155 HD
ATOM     37  N   UNL     1      18.336  25.731  14.588  0.00  0.00    -0.214 NA
BRANCH   4   3
ATOM      1  C   UNL     1      21.059  29.035  13.803  0.00  0.00    +0.020 A 
ATOM      2  C   UNL     1      20.116  27.969  14.054  0.00  0.00    +0.013 A 
ATOM      3  C   UNL     1      20.277  27.087  15.204  0.00  0.00    +0.019 A 
ATOM     38  C   UNL     1      21.411  27.313  16.087  0.00  0.00    +0.120 A 
ATOM     39  N   UNL     1      22.304  28.346  15.819  0.00  0.00    -0.263 NA
ATOM     40  C   UNL     1      22.160  29.200  14.715  0.00  0.00    +0.111 A 
ENDBRANCH   4   3
ENDBRANCH  10   9
BRANCH  12  13
ATOM     13  N   UNL     1      12.138  22.947  15.609  0.00  0.00    -0.281 N 
ATOM     14  C   UNL     1      12.037  23.116  16.981  0.00  0.00    +0.248 C 
ATOM     30  O   UNL     1      12.949  22.922  17.770  0.00  0.00    -0.270 OA
ATOM     31  H   UNL     1      11.259  22.952  15.091  0.00  0.00    +0.155 HD
BRANCH  14  15
ATOM     15  C   UNL     1      10.728  23.548  17.560  0.00  0.00    +0.037 A 
ATOM     16  C   UNL     1       9.560  22.664  17.542  0.00  0.00    +0.013 A 
ATOM     17  C   UNL     1       8.305  23.112  18.092  0.00  0.00    +0.005 A 
ATOM     18  C   UNL     1       8.213  24.451  18.668  0.00  0.00    -0.033 A 
ATOM     28  C   UNL     1       9.389  25.305  18.678  0.00  0.00    +0.005 A 
ATOM     29  C   UNL     1      10.621  24.870  18.138  0.00  0.00    +0.013 A 
BRANCH  18  19
ATOM     19  C   UNL     1       6.910  25.020  19.259  0.00  0.00    +0.119 C 
BRANCH  19  20
ATOM     20  N   UNL     1       6.633  24.742  20.700  0.00  0.00    -0.302 NA
ATOM     21  C   UNL     1       5.459  23.777  20.884  0.00  0.00    +0.066 C 
ATOM     22  C   UNL     1       5.198  23.479  22.396  0.00  0.00    -0.064 C 
ATOM     23  N   UNL     1       4.940  24.794  23.134  0.00  0.00    +0.379 N 
ATOM     24  C   UNL     1       4.637  24.513  24.545  0.00  0.00    -0.096 C 
ATOM     25  H   UNL     1       4.036  25.264  22.681  0.00  0.00    -0.082 HD
ATOM     26  C   UNL     1       6.102  25.761  22.954  0.00  0.00    -0.064 C 
ATOM     27  C   UNL     1       6.371  26.026  21.447  0.00  0.00    +0.066 C 
ENDBRANCH  19  20
ENDBRANCH  18  19
ENDBRANCH  14  15
ENDBRANCH  12  13
TORSDOF 6
ENDMDL
