MODEL 1
REMARK VINA RESULT:      -9.0      0.000      0.000
REMARK  Name = C:\Users\Docking\Desktop\test protocol\1iep_ligandH.pdb
REMARK  8 active torsions:
REMARK  status: ('A' for Active; 'I' for Inactive)
REMARK    1  A    between atoms: _5  and  _11
REMARK    2  A    between atoms: _19  and  _21
REMARK    3  A    between atoms: _22  and  _66
REMARK    4  A    between atoms: _27  and  _30
REMARK    5  A    between atoms: _32  and  _33
REMARK    6  A    between atoms: _38  and  _43
REMARK    7  A    between atoms: _43  and  _46
REMARK    8  A    between atoms: _53  and  _55
REMARK                            x       y       z     vdW  Elec       q    Type
REMARK                         _______ _______ _______ _____ _____    ______ ____
ROOT
ATOM     10  C   UNL     1      17.694  20.393  27.063  0.00  0.00    +0.038 A 
ATOM     11  C   UNL     1      18.779  19.483  26.981  0.00  0.00    +0.047 A 
ATOM     12  C   UNL     1      19.634  19.435  25.805  0.00  0.00    +0.035 A 
ATOM     32  C   UNL     1      19.356  20.330  24.731  0.00  0.00    +0.024 A 
ATOM     33  C   UNL     1      18.257  21.261  24.798  0.00  0.00    +0.007 A 
ATOM     34  C   UNL     1      17.409  21.312  25.954  0.00  0.00    -0.029 A 
ATOM     35  C   UNL     1      16.242  22.325  25.968  0.00  0.00    +0.045 C 
ENDROOT
BRANCH  10   9
ATOM      4  C   UNL     1      13.946  18.848  29.633  0.00  0.00    +0.077 A 
ATOM      5  C   UNL     1      13.505  17.981  28.578  0.00  0.00    +0.048 A 
ATOM      6  C   UNL     1      14.267  17.967  27.388  0.00  0.00    +0.116 A 
ATOM      7  N   UNL     1      15.385  18.765  27.273  0.00  0.00    -0.223 NA
ATOM      8  C   UNL     1      15.781  19.591  28.308  0.00  0.00    +0.220 A 
ATOM      9  N   UNL     1      16.906  20.396  28.216  0.00  0.00    -0.283 N 
ATOM     36  H   UNL     1      17.161  20.997  29.000  0.00  0.00    +0.155 HD
ATOM     37  N   UNL     1      15.070  19.624  29.454  0.00  0.00    -0.214 NA
BRANCH   4   3
ATOM      1  C   UNL     1      11.175  19.036  32.387  0.00  0.00    +0.020 A 
ATOM      2  C   UNL     1      11.799  18.912  31.090  0.00  0.00    +0.013 A 
ATOM      3  C   UNL     1      13.249  18.972  30.952  0.00  0.00    +0.019 A 
ATOM     38  C   UNL     1      14.045  19.158  32.155  0.00  0.00    +0.120 A 
ATOM     39  N   UNL     1      13.416  19.276  33.391  0.00  0.00    -0.263 NA
ATOM     40  C   UNL     1      12.022  19.222  33.536  0.00  0.00    +0.111 A 
ENDBRANCH   4   3
ENDBRANCH  10   9
BRANCH  12  13
ATOM     13  N   UNL     1      20.744  18.526  25.661  0.00  0.00    -0.281 N 
ATOM     14  C   UNL     1      21.650  18.129  26.631  0.00  0.00    +0.248 C 
ATOM     30  O   UNL     1      21.771  18.662  27.724  0.00  0.00    -0.270 OA
ATOM     31  H   UNL     1      20.879  18.128  24.732  0.00  0.00    +0.155 HD
BRANCH  14  15
ATOM     15  C   UNL     1      22.563  16.982  26.339  0.00  0.00    +0.037 A 
ATOM     16  C   UNL     1      22.365  15.673  26.969  0.00  0.00    +0.013 A 
ATOM     17  C   UNL     1      23.270  14.589  26.683  0.00  0.00    +0.005 A 
ATOM     18  C   UNL     1      24.382  14.808  25.761  0.00  0.00    -0.033 A 
ATOM     28  C   UNL     1      24.552  16.114  25.147  0.00  0.00    +0.005 A 
ATOM     29  C   UNL     1      23.667  17.180  25.425  0.00  0.00    +0.013 A 
BRANCH  18  19
ATOM     19  C   UNL     1      25.409  13.714  25.415  0.00  0.00    +0.119 C 
BRANCH  19  20
ATOM     20  N   UNL     1      26.451  14.051  24.399  0.00  0.00    -0.302 NA
ATOM     21  C   UNL     1      26.218  13.321  23.073  0.00  0.00    +0.066 C 
ATOM     22  C   UNL     1      27.303  13.702  22.015  0.00  0.00    -0.064 C 
ATOM     23  N   UNL     1      28.691  13.382  22.573  0.00  0.00    +0.379 N 
ATOM     24  C   UNL     1      29.710  13.685  21.558  0.00  0.00    -0.096 C 
ATOM     25  H   UNL     1      28.729  12.286  22.775  0.00  0.00    -0.082 HD
ATOM     26  C   UNL     1      28.930  14.102  23.893  0.00  0.00    -0.064 C 
ATOM     27  C   UNL     1      27.829  13.739  24.928  0.00  0.00    +0.066 C 
ENDBRANCH  19  20
ENDBRANCH  18  19
ENDBRANCH  14  15
ENDBRANCH  12  13
TORSDOF 6
ENDMDL
MODEL 2
REMARK VINA RESULT:      -8.9      2.369     12.984
REMARK  Name = C:\Users\Docking\Desktop\test protocol\1iep_ligandH.pdb
REMARK  8 active torsions:
REMARK  status: ('A' for Active; 'I' for Inactive)
REMARK    1  A    between atoms: _5  and  _11
REMARK    2  A    between atoms: _19  and  _21
REMARK    3  A    between atoms: _22  and  _66
REMARK    4  A    between atoms: _27  and  _30
REMARK    5  A    between atoms: _32  and  _33
REMARK    6  A    between atoms: _38  and  _43
REMARK    7  A    between atoms: _43  and  _46
REMARK    8  A    between atoms: _53  and  _55
REMARK                            x       y       z     vdW  Elec       q    Type
REMARK                         _______ _______ _______ _____ _____    ______ ____
ROOT
ATOM     10  C   UNL     1      19.200  20.264  25.399  0.00  0.00    +0.038 A 
ATOM     11  C   UNL     1      18.360  20.023  26.516  0.00  0.00    +0.047 A 
ATOM     12  C   UNL     1      17.252  20.913  26.831  0.00  0.00    +0.035 A 
ATOM     32  C   UNL     1      17.027  22.037  25.984  0.00  0.00    +0.024 A 
ATOM     33  C   UNL     1      17.872  22.298  24.845  0.00  0.00    +0.007 A 
ATOM     34  C   UNL     1      18.967  21.426  24.532  0.00  0.00    -0.029 A 
ATOM     35  C   UNL     1      19.844  21.758  23.302  0.00  0.00    +0.045 C 
ENDROOT
BRANCH  10   9
ATOM      4  C   UNL     1      22.650  17.260  26.848  0.00  0.00    +0.077 A 
ATOM      5  C   UNL     1      22.357  17.496  28.233  0.00  0.00    +0.048 A 
ATOM      6  C   UNL     1      21.315  18.404  28.529  0.00  0.00    +0.116 A 
ATOM      7  N   UNL     1      20.625  19.023  27.509  0.00  0.00    -0.223 NA
ATOM      8  C   UNL     1      20.935  18.773  26.185  0.00  0.00    +0.220 A 
ATOM      9  N   UNL     1      20.248  19.378  25.143  0.00  0.00    -0.283 N 
ATOM     36  H   UNL     1      20.512  19.173  24.180  0.00  0.00    +0.155 HD
ATOM     37  N   UNL     1      21.926  17.912  25.876  0.00  0.00    -0.214 NA
BRANCH   4   3
ATOM      1  C   UNL     1      24.985  15.108  24.563  0.00  0.00    +0.020 A 
ATOM      2  C   UNL     1      23.937  16.017  24.967  0.00  0.00    +0.013 A 
ATOM      3  C   UNL     1      23.720  16.326  26.375  0.00  0.00    +0.019 A 
ATOM     38  C   UNL     1      24.589  15.694  27.356  0.00  0.00    +0.120 A 
ATOM     39  N   UNL     1      25.589  14.821  26.938  0.00  0.00    -0.263 NA
ATOM     40  C   UNL     1      25.805  14.516  25.586  0.00  0.00    +0.111 A 
ENDBRANCH   4   3
ENDBRANCH  10   9
BRANCH  12  13
ATOM     13  N   UNL     1      16.371  20.723  27.956  0.00  0.00    -0.281 N 
ATOM     14  C   UNL     1      15.337  19.810  28.084  0.00  0.00    +0.248 C 
ATOM     30  O   UNL     1      14.874  19.157  27.161  0.00  0.00    -0.270 OA
ATOM     31  H   UNL     1      16.528  21.337  28.756  0.00  0.00    +0.155 HD
BRANCH  14  15
ATOM     15  C   UNL     1      14.719  19.602  29.429  0.00  0.00    +0.037 A 
ATOM     16  C   UNL     1      13.311  19.923  29.676  0.00  0.00    +0.013 A 
ATOM     17  C   UNL     1      12.745  19.730  30.987  0.00  0.00    +0.005 A 
ATOM     18  C   UNL     1      13.587  19.210  32.062  0.00  0.00    -0.033 A 
ATOM     28  C   UNL     1      14.979  18.894  31.788  0.00  0.00    +0.005 A 
ATOM     29  C   UNL     1      15.538  19.084  30.504  0.00  0.00    +0.013 A 
BRANCH  18  19
ATOM     19  C   UNL     1      13.072  18.991  33.497  0.00  0.00    +0.119 C 
BRANCH  19  20
ATOM     20  N   UNL     1      12.018  19.925  33.994  0.00  0.00    -0.302 NA
ATOM     21  C   UNL     1      12.398  20.559  35.335  0.00  0.00    +0.066 C 
ATOM     22  C   UNL     1      11.294  21.549  35.830  0.00  0.00    -0.064 C 
ATOM     23  N   UNL     1       9.961  20.809  35.940  0.00  0.00    +0.379 N 
ATOM     24  C   UNL     1       8.933  21.723  36.461  0.00  0.00    -0.096 C 
ATOM     25  H   UNL     1      10.091  19.987  36.683  0.00  0.00    -0.082 HD
ATOM     26  C   UNL     1       9.576  20.173  34.612  0.00  0.00    -0.064 C 
ATOM     27  C   UNL     1      10.693  19.213  34.115  0.00  0.00    +0.066 C 
ENDBRANCH  19  20
ENDBRANCH  18  19
ENDBRANCH  14  15
ENDBRANCH  12  13
TORSDOF 6
ENDMDL
MODEL 3
REMARK VINA RESULT:      -8.8      2.435     12.356
REMARK  Name = C:\Users\Docking\Desktop\test protocol\1iep_ligandH.pdb
REMARK  8 active torsions:
REMARK  status: ('A' for Active; 'I' for Inactive)
REMARK    1  A    between atoms: _5  and  _11
REMARK    2  A    between atoms: _19  and  _21
REMARK    3  A    between atoms: _22  and  _66
REMARK    4  A    between atoms: _27  and  _30
REMARK    5  A    between atoms: _32  and  _33
REMARK    6  A    between atoms: _38  and  _43
REMARK    7  A    between atoms: _43  and  _46
REMARK    8  A    between atoms: _53  and  _55
REMARK                            x       y       z     vdW  Elec       q    Type
REMARK                         _______ _______ _______ _____ _____    ______ ____
ROOT
ATOM     10  C   UNL     1      19.091  20.422  25.190  0.00  0.00    +0.038 A 
ATOM     11  C   UNL     1      18.154  20.176  26.226  0.00  0.00    +0.047 A 
ATOM     12  C   UNL     1      17.049  21.089  26.473  0.00  0.00    +0.035 A 
ATOM     32  C   UNL     1      16.928  22.242  25.645  0.00  0.00    +0.024 A 
ATOM     33  C   UNL     1      17.872  22.509  24.588  0.00  0.00    +0.007 A 
ATOM     34  C   UNL     1      18.965  21.613  24.341  0.00  0.00    -0.029 A 
ATOM     35  C   UNL     1      19.951  21.951  23.198  0.00  0.00    +0.045 C 
ENDROOT
BRANCH  10   9
ATOM      4  C   UNL     1      22.446  17.414  26.843  0.00  0.00    +0.077 A 
ATOM      5  C   UNL     1      22.114  17.700  28.209  0.00  0.00    +0.048 A 
ATOM      6  C   UNL     1      21.078  18.632  28.443  0.00  0.00    +0.116 A 
ATOM      7  N   UNL     1      20.430  19.228  27.383  0.00  0.00    -0.223 NA
ATOM      8  C   UNL     1      20.776  18.931  26.078  0.00  0.00    +0.220 A 
ATOM      9  N   UNL     1      20.133  19.511  24.996  0.00  0.00    -0.283 N 
ATOM     36  H   UNL     1      20.423  19.271  24.048  0.00  0.00    +0.155 HD
ATOM     37  N   UNL     1      21.763  18.045  25.828  0.00  0.00    -0.214 NA
BRANCH   4   3
ATOM      1  C   UNL     1      24.853  15.197  24.700  0.00  0.00    +0.020 A 
ATOM      2  C   UNL     1      23.810  16.137  25.041  0.00  0.00    +0.013 A 
ATOM      3  C   UNL     1      23.515  16.448  26.434  0.00  0.00    +0.019 A 
ATOM     38  C   UNL     1      24.300  15.787  27.466  0.00  0.00    +0.120 A 
ATOM     39  N   UNL     1      25.298  14.886  27.107  0.00  0.00    -0.263 NA
ATOM     40  C   UNL     1      25.589  14.577  25.770  0.00  0.00    +0.111 A 
ENDBRANCH   4   3
ENDBRANCH  10   9
BRANCH  12  13
ATOM     13  N   UNL     1      16.072  20.896  27.516  0.00  0.00    -0.281 N 
ATOM     14  C   UNL     1      15.282  19.781  27.746  0.00  0.00    +0.248 C 
ATOM     30  O   UNL     1      15.143  18.858  26.958  0.00  0.00    -0.270 OA
ATOM     31  H   UNL     1      15.947  21.675  28.162  0.00  0.00    +0.155 HD
BRANCH  14  15
ATOM     15  C   UNL     1      14.526  19.685  29.032  0.00  0.00    +0.037 A 
ATOM     16  C   UNL     1      13.082  19.932  29.085  0.00  0.00    +0.013 A 
ATOM     17  C   UNL     1      12.380  19.849  30.341  0.00  0.00    +0.005 A 
ATOM     18  C   UNL     1      13.122  19.517  31.555  0.00  0.00    -0.033 A 
ATOM     28  C   UNL     1      14.552  19.273  31.473  0.00  0.00    +0.005 A 
ATOM     29  C   UNL     1      15.244  19.354  30.244  0.00  0.00    +0.013 A 
BRANCH  18  19
ATOM     19  C   UNL     1      12.458  19.429  32.942  0.00  0.00    +0.119 C 
BRANCH  19  20
ATOM     20  N   UNL     1      12.256  18.065  33.518  0.00  0.00    -0.302 NA
ATOM     21  C   UNL     1      10.900  17.472  33.126  0.00  0.00    +0.066 C 
ATOM     22  C   UNL     1      10.714  16.037  33.718  0.00  0.00    -0.064 C 
ATOM     23  N   UNL     1      10.862  16.092  35.239  0.00  0.00    +0.379 N 
ATOM     24  C   UNL     1      10.631  14.755  35.803  0.00  0.00    -0.096 C 
ATOM     25  H   UNL     1      10.067  16.767  35.632  0.00  0.00    -0.082 HD
ATOM     26  C   UNL     1      12.207  16.683  35.637  0.00  0.00    -0.064 C 
ATOM     27  C   UNL     1      12.394  18.098  35.020  0.00  0.00    +0.066 C 
ENDBRANCH  19  20
ENDBRANCH  18  19
ENDBRANCH  14  15
ENDBRANCH  12  13
TORSDOF 6
ENDMDL
MODEL 4
REMARK VINA RESULT:      -8.7      4.781     13.187
REMARK  Name = C:\Users\Docking\Desktop\test protocol\1iep_ligandH.pdb
REMARK  8 active torsions:
REMARK  status: ('A' for Active; 'I' for Inactive)
REMARK    1  A    between atoms: _5  and  _11
REMARK    2  A    between atoms: _19  and  _21
REMARK    3  A    between atoms: _22  and  _66
REMARK    4  A    between atoms: _27  and  _30
REMARK    5  A    between atoms: _32  and  _33
REMARK    6  A    between atoms: _38  and  _43
REMARK    7  A    between atoms: _43  and  _46
REMARK    8  A    between atoms: _53  and  _55
REMARK                            x       y       z     vdW  Elec       q    Type
REMARK                         _______ _______ _______ _____ _____    ______ ____
ROOT
ATOM     10  C   UNL     1      25.420  17.960  25.793  0.00  0.00    +0.038 A 
ATOM     11  C   UNL     1      24.230  18.357  26.455  0.00  0.00    +0.047 A 
ATOM     12  C   UNL     1      22.982  17.637  26.257  0.00  0.00    +0.035 A 
ATOM     32  C   UNL     1      22.982  16.514  25.379  0.00  0.00    +0.024 A 
ATOM     33  C   UNL     1      24.182  16.097  24.697  0.00  0.00    +0.007 A 
ATOM     34  C   UNL     1      25.416  16.806  24.886  0.00  0.00    -0.029 A 
ATOM     35  C   UNL     1      26.670  16.318  24.124  0.00  0.00    +0.045 C 
ENDROOT
BRANCH  10   9
ATOM      4  C   UNL     1      28.141  21.877  25.250  0.00  0.00    +0.077 A 
ATOM      5  C   UNL     1      27.159  22.516  24.422  0.00  0.00    +0.048 A 
ATOM      6  C   UNL     1      25.970  21.801  24.154  0.00  0.00    +0.116 A 
ATOM      7  N   UNL     1      25.788  20.540  24.680  0.00  0.00    -0.223 NA
ATOM      8  C   UNL     1      26.756  19.952  25.474  0.00  0.00    +0.220 A 
ATOM      9  N   UNL     1      26.590  18.688  26.020  0.00  0.00    -0.283 N 
ATOM     36  H   UNL     1      27.331  18.286  26.594  0.00  0.00    +0.155 HD
ATOM     37  N   UNL     1      27.900  20.614  25.743  0.00  0.00    -0.214 NA
BRANCH   4   3
ATOM      1  C   UNL     1      31.877  22.387  26.288  0.00  0.00    +0.020 A 
ATOM      2  C   UNL     1      30.641  21.730  25.931  0.00  0.00    +0.013 A 
ATOM      3  C   UNL     1      29.446  22.506  25.626  0.00  0.00    +0.019 A 
ATOM     38  C   UNL     1      29.536  23.957  25.691  0.00  0.00    +0.120 A 
ATOM     39  N   UNL     1      30.740  24.562  26.039  0.00  0.00    -0.263 NA
ATOM     40  C   UNL     1      31.896  23.825  26.336  0.00  0.00    +0.111 A 
ENDBRANCH   4   3
ENDBRANCH  10   9
BRANCH  12  13
ATOM     13  N   UNL     1      21.741  17.999  26.897  0.00  0.00    -0.281 N 
ATOM     14  C   UNL     1      20.661  18.667  26.343  0.00  0.00    +0.248 C 
ATOM     30  O   UNL     1      20.685  19.246  25.268  0.00  0.00    -0.270 OA
ATOM     31  H   UNL     1      21.648  17.729  27.876  0.00  0.00    +0.155 HD
BRANCH  14  15
ATOM     15  C   UNL     1      19.374  18.709  27.100  0.00  0.00    +0.037 A 
ATOM     16  C   UNL     1      18.289  19.611  26.704  0.00  0.00    +0.013 A 
ATOM     17  C   UNL     1      17.063  19.645  27.463  0.00  0.00    +0.005 A 
ATOM     18  C   UNL     1      16.916  18.771  28.624  0.00  0.00    -0.033 A 
ATOM     28  C   UNL     1      18.006  17.883  28.992  0.00  0.00    +0.005 A 
ATOM     29  C   UNL     1      19.209  17.848  28.252  0.00  0.00    +0.013 A 
BRANCH  18  19
ATOM     19  C   UNL     1      15.651  18.756  29.504  0.00  0.00    +0.119 C 
BRANCH  19  20
ATOM     20  N   UNL     1      14.358  19.114  28.849  0.00  0.00    -0.302 NA
ATOM     21  C   UNL     1      13.303  19.561  29.865  0.00  0.00    +0.066 C 
ATOM     22  C   UNL     1      11.964  19.954  29.160  0.00  0.00    -0.064 C 
ATOM     23  N   UNL     1      11.456  18.767  28.339  0.00  0.00    +0.379 N 
ATOM     24  C   UNL     1      10.168  19.114  27.722  0.00  0.00    -0.096 C 
ATOM     25  H   UNL     1      11.278  17.921  29.042  0.00  0.00    -0.082 HD
ATOM     26  C   UNL     1      12.500  18.315  27.328  0.00  0.00    -0.064 C 
ATOM     27  C   UNL     1      13.836  17.955  28.035  0.00  0.00    +0.066 C 
ENDBRANCH  19  20
ENDBRANCH  18  19
ENDBRANCH  14  15
ENDBRANCH  12  13
TORSDOF 6
ENDMDL
MODEL 5
REMARK VINA RESULT:      -8.5     20.438     26.351
REMARK  Name = C:\Users\Docking\Desktop\test protocol\1iep_ligandH.pdb
REMARK  8 active torsions:
REMARK  status: ('A' for Active; 'I' for Inactive)
REMARK    1  A    between atoms: _5  and  _11
REMARK    2  A    between atoms: _19  and  _21
REMARK    3  A    between atoms: _22  and  _66
REMARK    4  A    between atoms: _27  and  _30
REMARK    5  A    between atoms: _32  and  _33
REMARK    6  A    between atoms: _38  and  _43
REMARK    7  A    between atoms: _43  and  _46
REMARK    8  A    between atoms: _53  and  _55
REMARK                            x       y       z     vdW  Elec       q    Type
REMARK                         _______ _______ _______ _____ _____    ______ ____
ROOT
ATOM     10  C   UNL     1      16.892  33.980  15.464  0.00  0.00    +0.038 A 
ATOM     11  C   UNL     1      16.797  35.374  15.710  0.00  0.00    +0.047 A 
ATOM     12  C   UNL     1      16.308  35.883  16.982  0.00  0.00    +0.035 A 
ATOM     32  C   UNL     1      15.927  34.943  17.983  0.00  0.00    +0.024 A 
ATOM     33  C   UNL     1      16.016  33.523  17.750  0.00  0.00    +0.007 A 
ATOM     34  C   UNL     1      16.495  33.016  16.497  0.00  0.00    -0.029 A 
ATOM     35  C   UNL     1      16.563  31.483  16.300  0.00  0.00    +0.045 C 
ENDROOT
BRANCH  10   9
ATOM      4  C   UNL     1      16.209  32.388  10.988  0.00  0.00    +0.077 A 
ATOM      5  C   UNL     1      14.783  32.394  11.141  0.00  0.00    +0.048 A 
ATOM      6  C   UNL     1      14.265  32.807  12.389  0.00  0.00    +0.116 A 
ATOM      7  N   UNL     1      15.120  33.184  13.402  0.00  0.00    -0.223 NA
ATOM      8  C   UNL     1      16.491  33.165  13.223  0.00  0.00    +0.220 A 
ATOM      9  N   UNL     1      17.369  33.547  14.225  0.00  0.00    -0.283 N 
ATOM     36  H   UNL     1      18.374  33.512  14.056  0.00  0.00    +0.155 HD
ATOM     37  N   UNL     1      17.010  32.773  12.040  0.00  0.00    -0.214 NA
BRANCH   4   3
ATOM      1  C   UNL     1      17.312  32.143   7.243  0.00  0.00    +0.020 A 
ATOM      2  C   UNL     1      16.609  32.572   8.430  0.00  0.00    +0.013 A 
ATOM      3  C   UNL     1      16.907  31.981   9.728  0.00  0.00    +0.019 A 
ATOM     38  C   UNL     1      17.933  30.950   9.792  0.00  0.00    +0.120 A 
ATOM     39  N   UNL     1      18.593  30.556   8.632  0.00  0.00    -0.263 NA
ATOM     40  C   UNL     1      18.312  31.117   7.377  0.00  0.00    +0.111 A 
ENDBRANCH   4   3
ENDBRANCH  10   9
BRANCH  12  13
ATOM     13  N   UNL     1      16.183  37.287  17.285  0.00  0.00    -0.281 N 
ATOM     14  C   UNL     1      17.186  38.241  17.335  0.00  0.00    +0.248 C 
ATOM     30  O   UNL     1      18.381  37.987  17.336  0.00  0.00    -0.270 OA
ATOM     31  H   UNL     1      15.239  37.618  17.487  0.00  0.00    +0.155 HD
BRANCH  14  15
ATOM     15  C   UNL     1      16.807  39.684  17.410  0.00  0.00    +0.037 A 
ATOM     16  C   UNL     1      15.908  40.181  18.455  0.00  0.00    +0.013 A 
ATOM     17  C   UNL     1      15.545  41.575  18.494  0.00  0.00    +0.005 A 
ATOM     18  C   UNL     1      16.083  42.484  17.484  0.00  0.00    -0.033 A 
ATOM     28  C   UNL     1      16.976  41.966  16.462  0.00  0.00    +0.005 A 
ATOM     29  C   UNL     1      17.334  40.599  16.420  0.00  0.00    +0.013 A 
BRANCH  18  19
ATOM     19  C   UNL     1      15.732  43.983  17.436  0.00  0.00    +0.119 C 
BRANCH  19  20
ATOM     20  N   UNL     1      14.470  44.368  16.737  0.00  0.00    -0.302 NA
ATOM     21  C   UNL     1      14.738  45.237  15.505  0.00  0.00    +0.066 C 
ATOM     22  C   UNL     1      13.408  45.612  14.773  0.00  0.00    -0.064 C 
ATOM     23  N   UNL     1      12.477  46.331  15.750  0.00  0.00    +0.379 N 
ATOM     24  C   UNL     1      11.250  46.736  15.050  0.00  0.00    -0.096 C 
ATOM     25  H   UNL     1      12.994  47.258  16.090  0.00  0.00    -0.082 HD
ATOM     26  C   UNL     1      12.207  45.475  16.980  0.00  0.00    -0.064 C 
ATOM     27  C   UNL     1      13.537  45.084  17.683  0.00  0.00    +0.066 C 
ENDBRANCH  19  20
ENDBRANCH  18  19
ENDBRANCH  14  15
ENDBRANCH  12  13
TORSDOF 6
ENDMDL
