MODEL 1
REMARK VINA RESULT:     -10.6      0.000      0.000
REMARK  Name = C:\Users\Docking\Desktop\test protocol\1iep_ligandH.pdb
REMARK  8 active torsions:
REMARK  status: ('A' for Active; 'I' for Inactive)
REMARK    1  A    between atoms: _5  and  _11
REMARK    2  A    between atoms: _19  and  _21
REMARK    3  A    between atoms: _22  and  _66
REMARK    4  A    between atoms: _27  and  _30
REMARK    5  A    between atoms: _32  and  _33
REMARK    6  A    between atoms: _38  and  _43
REMARK    7  A    between atoms: _43  and  _46
REMARK    8  A    between atoms: _53  and  _55
REMARK                            x       y       z     vdW  Elec       q    Type
REMARK                         _______ _______ _______ _____ _____    ______ ____
ROOT
ATOM     10  C   UNL     1       0.856 -29.619  11.007  0.00  0.00    +0.038 A 
ATOM     11  C   UNL     1       1.821 -30.657  11.066  0.00  0.00    +0.047 A 
ATOM     12  C   UNL     1       2.024 -31.562   9.945  0.00  0.00    +0.035 A 
ATOM     32  C   UNL     1       1.227 -31.379   8.777  0.00  0.00    +0.024 A 
ATOM     33  C   UNL     1       0.241 -30.330   8.700  0.00  0.00    +0.007 A 
ATOM     34  C   UNL     1       0.035 -29.437   9.804  0.00  0.00    -0.029 A 
ATOM     35  C   UNL     1      -1.041 -28.334   9.668  0.00  0.00    +0.045 C 
ENDROOT
BRANCH  10   9
ATOM      4  C   UNL     1      -0.647 -28.741  15.480  0.00  0.00    +0.077 A 
ATOM      5  C   UNL     1      -1.198 -30.059  15.616  0.00  0.00    +0.048 A 
ATOM      6  C   UNL     1      -1.081 -30.929  14.509  0.00  0.00    +0.116 A 
ATOM      7  N   UNL     1      -0.456 -30.504  13.357  0.00  0.00    -0.223 NA
ATOM      8  C   UNL     1       0.064 -29.226  13.258  0.00  0.00    +0.220 A 
ATOM      9  N   UNL     1       0.703 -28.780  12.112  0.00  0.00    -0.283 N 
ATOM     36  H   UNL     1       1.067 -27.828  12.076  0.00  0.00    +0.155 HD
ATOM     37  N   UNL     1      -0.037 -28.375  14.301  0.00  0.00    -0.214 NA
BRANCH   4   3
ATOM      1  C   UNL     1      -1.346 -26.903  18.861  0.00  0.00    +0.020 A 
ATOM      2  C   UNL     1      -1.334 -27.935  17.849  0.00  0.00    +0.013 A 
ATOM      3  C   UNL     1      -0.689 -27.708  16.562  0.00  0.00    +0.019 A 
ATOM     38  C   UNL     1      -0.061 -26.416  16.329  0.00  0.00    +0.120 A 
ATOM     39  N   UNL     1      -0.090 -25.441  17.321  0.00  0.00    -0.263 NA
ATOM     40  C   UNL     1      -0.709 -25.648  18.563  0.00  0.00    +0.111 A 
ENDBRANCH   4   3
ENDBRANCH  10   9
BRANCH  12  13
ATOM     13  N   UNL     1       2.983 -32.638   9.951  0.00  0.00    -0.281 N 
ATOM     14  C   UNL     1       4.294 -32.608  10.396  0.00  0.00    +0.248 C 
ATOM     30  O   UNL     1       4.911 -31.586  10.661  0.00  0.00    -0.270 OA
ATOM     31  H   UNL     1       2.655 -33.531   9.583  0.00  0.00    +0.155 HD
BRANCH  14  15
ATOM     15  C   UNL     1       5.033 -33.897  10.556  0.00  0.00    +0.037 A 
ATOM     16  C   UNL     1       5.932 -34.122  11.690  0.00  0.00    +0.013 A 
ATOM     17  C   UNL     1       6.646 -35.369  11.811  0.00  0.00    +0.005 A 
ATOM     18  C   UNL     1       6.460 -36.402  10.795  0.00  0.00    -0.033 A 
ATOM     28  C   UNL     1       5.557 -36.154   9.683  0.00  0.00    +0.005 A 
ATOM     29  C   UNL     1       4.858 -34.933   9.560  0.00  0.00    +0.013 A 
BRANCH  18  19
ATOM     19  C   UNL     1       7.197 -37.754  10.833  0.00  0.00    +0.119 C 
BRANCH  19  20
ATOM     20  N   UNL     1       8.596 -37.785  10.313  0.00  0.00    -0.302 NA
ATOM     21  C   UNL     1       9.616 -38.052  11.424  0.00  0.00    +0.066 C 
ATOM     22  C   UNL     1      11.073 -38.104  10.859  0.00  0.00    -0.064 C 
ATOM     23  N   UNL     1      11.385 -36.790  10.141  0.00  0.00    +0.379 N 
ATOM     24  C   UNL     1      12.774 -36.812   9.658  0.00  0.00    -0.096 C 
ATOM     25  H   UNL     1      11.300 -35.968  10.889  0.00  0.00    -0.082 HD
ATOM     26  C   UNL     1      10.374 -36.515   9.036  0.00  0.00    -0.064 C 
ATOM     27  C   UNL     1       8.927 -36.495   9.604  0.00  0.00    +0.066 C 
ENDBRANCH  19  20
ENDBRANCH  18  19
ENDBRANCH  14  15
ENDBRANCH  12  13
TORSDOF 6
ENDMDL
MODEL 2
REMARK VINA RESULT:     -10.0      3.479      4.900
REMARK  Name = C:\Users\Docking\Desktop\test protocol\1iep_ligandH.pdb
REMARK  8 active torsions:
REMARK  status: ('A' for Active; 'I' for Inactive)
REMARK    1  A    between atoms: _5  and  _11
REMARK    2  A    between atoms: _19  and  _21
REMARK    3  A    between atoms: _22  and  _66
REMARK    4  A    between atoms: _27  and  _30
REMARK    5  A    between atoms: _32  and  _33
REMARK    6  A    between atoms: _38  and  _43
REMARK    7  A    between atoms: _43  and  _46
REMARK    8  A    between atoms: _53  and  _55
REMARK                            x       y       z     vdW  Elec       q    Type
REMARK                         _______ _______ _______ _____ _____    ______ ____
ROOT
ATOM     10  C   UNL     1      -0.840 -28.879  13.074  0.00  0.00    +0.038 A 
ATOM     11  C   UNL     1       0.325 -29.682  13.165  0.00  0.00    +0.047 A 
ATOM     12  C   UNL     1       0.304 -30.965  13.851  0.00  0.00    +0.035 A 
ATOM     32  C   UNL     1      -0.923 -31.400  14.431  0.00  0.00    +0.024 A 
ATOM     33  C   UNL     1      -2.117 -30.596  14.349  0.00  0.00    +0.007 A 
ATOM     34  C   UNL     1      -2.101 -29.328  13.675  0.00  0.00    -0.029 A 
ATOM     35  C   UNL     1      -3.409 -28.505  13.624  0.00  0.00    +0.045 C 
ENDROOT
BRANCH  10   9
ATOM      4  C   UNL     1       0.270 -24.213  12.895  0.00  0.00    +0.077 A 
ATOM      5  C   UNL     1       0.708 -24.204  14.261  0.00  0.00    +0.048 A 
ATOM      6  C   UNL     1       0.624 -25.419  14.977  0.00  0.00    +0.116 A 
ATOM      7  N   UNL     1       0.138 -26.553  14.362  0.00  0.00    -0.223 NA
ATOM      8  C   UNL     1      -0.277 -26.526  13.044  0.00  0.00    +0.220 A 
ATOM      9  N   UNL     1      -0.762 -27.656  12.403  0.00  0.00    -0.283 N 
ATOM     36  H   UNL     1      -1.066 -27.594  11.432  0.00  0.00    +0.155 HD
ATOM     37  N   UNL     1      -0.209 -25.378  12.339  0.00  0.00    -0.214 NA
BRANCH   4   3
ATOM      1  C   UNL     1       0.559 -20.531  11.606  0.00  0.00    +0.020 A 
ATOM      2  C   UNL     1       0.540 -21.661  12.506  0.00  0.00    +0.013 A 
ATOM      3  C   UNL     1       0.300 -23.008  12.006  0.00  0.00    +0.019 A 
ATOM     38  C   UNL     1       0.082 -23.180  10.578  0.00  0.00    +0.120 A 
ATOM     39  N   UNL     1       0.105 -22.074   9.735  0.00  0.00    -0.263 NA
ATOM     40  C   UNL     1       0.333 -20.772  10.205  0.00  0.00    +0.111 A 
ENDBRANCH   4   3
ENDBRANCH  10   9
BRANCH  12  13
ATOM     13  N   UNL     1       1.457 -31.820  13.982  0.00  0.00    -0.281 N 
ATOM     14  C   UNL     1       1.779 -32.938  13.230  0.00  0.00    +0.248 C 
ATOM     30  O   UNL     1       1.010 -33.500  12.464  0.00  0.00    -0.270 OA
ATOM     31  H   UNL     1       2.117 -31.570  14.719  0.00  0.00    +0.155 HD
BRANCH  14  15
ATOM     15  C   UNL     1       3.147 -33.525  13.357  0.00  0.00    +0.037 A 
ATOM     16  C   UNL     1       4.347 -32.706  13.161  0.00  0.00    +0.013 A 
ATOM     17  C   UNL     1       5.655 -33.302  13.273  0.00  0.00    +0.005 A 
ATOM     18  C   UNL     1       5.770 -34.724  13.585  0.00  0.00    -0.033 A 
ATOM     28  C   UNL     1       4.564 -35.511  13.781  0.00  0.00    +0.005 A 
ATOM     29  C   UNL     1       3.280 -34.932  13.670  0.00  0.00    +0.013 A 
BRANCH  18  19
ATOM     19  C   UNL     1       7.124 -35.448  13.703  0.00  0.00    +0.119 C 
BRANCH  19  20
ATOM     20  N   UNL     1       7.744 -35.950  12.441  0.00  0.00    -0.302 NA
ATOM     21  C   UNL     1       8.728 -37.094  12.699  0.00  0.00    +0.066 C 
ATOM     22  C   UNL     1       9.349 -37.623  11.365  0.00  0.00    -0.064 C 
ATOM     23  N   UNL     1      10.039 -36.469  10.635  0.00  0.00    +0.379 N 
ATOM     24  C   UNL     1      10.674 -36.975   9.409  0.00  0.00    -0.096 C 
ATOM     25  H   UNL     1      10.847 -36.083  11.300  0.00  0.00    -0.082 HD
ATOM     26  C   UNL     1       9.068 -35.326  10.377  0.00  0.00    -0.064 C 
ATOM     27  C   UNL     1       8.434 -34.828  11.706  0.00  0.00    +0.066 C 
ENDBRANCH  19  20
ENDBRANCH  18  19
ENDBRANCH  14  15
ENDBRANCH  12  13
TORSDOF 6
ENDMDL
MODEL 3
REMARK VINA RESULT:      -9.6      4.048     12.714
REMARK  Name = C:\Users\Docking\Desktop\test protocol\1iep_ligandH.pdb
REMARK  8 active torsions:
REMARK  status: ('A' for Active; 'I' for Inactive)
REMARK    1  A    between atoms: _5  and  _11
REMARK    2  A    between atoms: _19  and  _21
REMARK    3  A    between atoms: _22  and  _66
REMARK    4  A    between atoms: _27  and  _30
REMARK    5  A    between atoms: _32  and  _33
REMARK    6  A    between atoms: _38  and  _43
REMARK    7  A    between atoms: _43  and  _46
REMARK    8  A    between atoms: _53  and  _55
REMARK                            x       y       z     vdW  Elec       q    Type
REMARK                         _______ _______ _______ _____ _____    ______ ____
ROOT
ATOM     10  C   UNL     1       2.086 -32.755  11.857  0.00  0.00    +0.038 A 
ATOM     11  C   UNL     1       1.994 -31.353  12.049  0.00  0.00    +0.047 A 
ATOM     12  C   UNL     1       0.772 -30.739  12.544  0.00  0.00    +0.035 A 
ATOM     32  C   UNL     1      -0.338 -31.585  12.835  0.00  0.00    +0.024 A 
ATOM     33  C   UNL     1      -0.263 -33.012  12.644  0.00  0.00    +0.007 A 
ATOM     34  C   UNL     1       0.940 -33.622  12.154  0.00  0.00    -0.029 A 
ATOM     35  C   UNL     1       0.963 -35.157  11.963  0.00  0.00    +0.045 C 
ENDROOT
BRANCH  10   9
ATOM      4  C   UNL     1       6.398 -34.751  12.537  0.00  0.00    +0.077 A 
ATOM      5  C   UNL     1       6.262 -34.699  13.964  0.00  0.00    +0.048 A 
ATOM      6  C   UNL     1       5.071 -34.144  14.483  0.00  0.00    +0.116 A 
ATOM      7  N   UNL     1       4.094 -33.680  13.629  0.00  0.00    -0.223 NA
ATOM      8  C   UNL     1       4.257 -33.744  12.257  0.00  0.00    +0.220 A 
ATOM      9  N   UNL     1       3.285 -33.290  11.380  0.00  0.00    -0.283 N 
ATOM     36  H   UNL     1       3.446 -33.348  10.374  0.00  0.00    +0.155 HD
ATOM     37  N   UNL     1       5.387 -34.268  11.737  0.00  0.00    -0.214 NA
BRANCH   4   3
ATOM      1  C   UNL     1       9.521 -35.143  10.215  0.00  0.00    +0.020 A 
ATOM      2  C   UNL     1       8.371 -34.555  10.862  0.00  0.00    +0.013 A 
ATOM      3  C   UNL     1       7.597 -35.312  11.837  0.00  0.00    +0.019 A 
ATOM     38  C   UNL     1       8.016 -36.672  12.138  0.00  0.00    +0.120 A 
ATOM     39  N   UNL     1       9.127 -37.213  11.498  0.00  0.00    -0.263 NA
ATOM     40  C   UNL     1       9.879 -36.494  10.557  0.00  0.00    +0.111 A 
ENDBRANCH   4   3
ENDBRANCH  10   9
BRANCH  12  13
ATOM     13  N   UNL     1       0.617 -29.321  12.751  0.00  0.00    -0.281 N 
ATOM     14  C   UNL     1       0.132 -28.672  13.875  0.00  0.00    +0.248 C 
ATOM     30  O   UNL     1      -0.445 -29.227  14.798  0.00  0.00    -0.270 OA
ATOM     31  H   UNL     1       0.899 -28.722  11.975  0.00  0.00    +0.155 HD
BRANCH  14  15
ATOM     15  C   UNL     1       0.300 -27.191  13.983  0.00  0.00    +0.037 A 
ATOM     16  C   UNL     1       0.625 -26.554  15.261  0.00  0.00    +0.013 A 
ATOM     17  C   UNL     1       0.765 -25.122  15.341  0.00  0.00    +0.005 A 
ATOM     18  C   UNL     1       0.580 -24.316  14.136  0.00  0.00    -0.033 A 
ATOM     28  C   UNL     1       0.263 -24.974  12.880  0.00  0.00    +0.005 A 
ATOM     29  C   UNL     1       0.125 -26.378  12.798  0.00  0.00    +0.013 A 
BRANCH  18  19
ATOM     19  C   UNL     1       0.690 -22.780  14.133  0.00  0.00    +0.119 C 
BRANCH  19  20
ATOM     20  N   UNL     1      -0.221 -22.032  13.215  0.00  0.00    -0.302 NA
ATOM     21  C   UNL     1       0.525 -21.455  12.009  0.00  0.00    +0.066 C 
ATOM     22  C   UNL     1      -0.446 -20.695  11.048  0.00  0.00    -0.064 C 
ATOM     23  N   UNL     1      -1.161 -19.587  11.823  0.00  0.00    +0.379 N 
ATOM     24  C   UNL     1      -2.032 -18.833  10.910  0.00  0.00    -0.096 C 
ATOM     25  H   UNL     1      -0.383 -18.885  12.205  0.00  0.00    -0.082 HD
ATOM     26  C   UNL     1      -1.904 -20.151  13.026  0.00  0.00    -0.064 C 
ATOM     27  C   UNL     1      -0.934 -20.929  13.959  0.00  0.00    +0.066 C 
ENDBRANCH  19  20
ENDBRANCH  18  19
ENDBRANCH  14  15
ENDBRANCH  12  13
TORSDOF 6
ENDMDL
MODEL 4
REMARK VINA RESULT:      -9.5      4.692     12.263
REMARK  Name = C:\Users\Docking\Desktop\test protocol\1iep_ligandH.pdb
REMARK  8 active torsions:
REMARK  status: ('A' for Active; 'I' for Inactive)
REMARK    1  A    between atoms: _5  and  _11
REMARK    2  A    between atoms: _19  and  _21
REMARK    3  A    between atoms: _22  and  _66
REMARK    4  A    between atoms: _27  and  _30
REMARK    5  A    between atoms: _32  and  _33
REMARK    6  A    between atoms: _38  and  _43
REMARK    7  A    between atoms: _43  and  _46
REMARK    8  A    between atoms: _53  and  _55
REMARK                            x       y       z     vdW  Elec       q    Type
REMARK                         _______ _______ _______ _____ _____    ______ ____
ROOT
ATOM     10  C   UNL     1       6.467 -33.849  12.621  0.00  0.00    +0.038 A 
ATOM     11  C   UNL     1       6.150 -32.606  12.016  0.00  0.00    +0.047 A 
ATOM     12  C   UNL     1       4.824 -32.022  12.147  0.00  0.00    +0.035 A 
ATOM     32  C   UNL     1       3.846 -32.731  12.903  0.00  0.00    +0.024 A 
ATOM     33  C   UNL     1       4.150 -33.996  13.524  0.00  0.00    +0.007 A 
ATOM     34  C   UNL     1       5.456 -34.578  13.396  0.00  0.00    -0.029 A 
ATOM     35  C   UNL     1       5.724 -35.940  14.078  0.00  0.00    +0.045 C 
ENDROOT
BRANCH  10   9
ATOM      4  C   UNL     1       9.703 -36.522  10.292  0.00  0.00    +0.077 A 
ATOM      5  C   UNL     1       8.737 -36.951   9.322  0.00  0.00    +0.048 A 
ATOM      6  C   UNL     1       7.417 -36.467   9.462  0.00  0.00    +0.116 A 
ATOM      7  N   UNL     1       7.098 -35.617  10.499  0.00  0.00    -0.223 NA
ATOM      8  C   UNL     1       8.053 -35.224  11.418  0.00  0.00    +0.220 A 
ATOM      9  N   UNL     1       7.756 -34.363  12.464  0.00  0.00    -0.283 N 
ATOM     36  H   UNL     1       8.487 -34.103  13.126  0.00  0.00    +0.155 HD
ATOM     37  N   UNL     1       9.320 -35.673  11.307  0.00  0.00    -0.214 NA
BRANCH   4   3
ATOM      1  C   UNL     1      13.609 -36.466  10.088  0.00  0.00    +0.020 A 
ATOM      2  C   UNL     1      12.239 -36.006  10.095  0.00  0.00    +0.013 A 
ATOM      3  C   UNL     1      11.139 -36.944  10.277  0.00  0.00    +0.019 A 
ATOM     38  C   UNL     1      11.462 -38.352  10.452  0.00  0.00    +0.120 A 
ATOM     39  N   UNL     1      12.790 -38.766  10.439  0.00  0.00    -0.263 NA
ATOM     40  C   UNL     1      13.857 -37.872  10.263  0.00  0.00    +0.111 A 
ENDBRANCH   4   3
ENDBRANCH  10   9
BRANCH  12  13
ATOM     13  N   UNL     1       4.442 -30.767  11.548  0.00  0.00    -0.281 N 
ATOM     14  C   UNL     1       5.244 -29.667  11.291  0.00  0.00    +0.248 C 
ATOM     30  O   UNL     1       6.372 -29.515  11.736  0.00  0.00    -0.270 OA
ATOM     31  H   UNL     1       3.462 -30.680  11.281  0.00  0.00    +0.155 HD
BRANCH  14  15
ATOM     15  C   UNL     1       4.709 -28.570  10.428  0.00  0.00    +0.037 A 
ATOM     16  C   UNL     1       3.269 -28.327  10.313  0.00  0.00    +0.013 A 
ATOM     17  C   UNL     1       2.780 -27.273   9.460  0.00  0.00    +0.005 A 
ATOM     18  C   UNL     1       3.733 -26.452   8.717  0.00  0.00    -0.033 A 
ATOM     28  C   UNL     1       5.156 -26.712   8.854  0.00  0.00    +0.005 A 
ATOM     29  C   UNL     1       5.640 -27.745   9.688  0.00  0.00    +0.013 A 
BRANCH  18  19
ATOM     19  C   UNL     1       3.299 -25.320   7.767  0.00  0.00    +0.119 C 
BRANCH  19  20
ATOM     20  N   UNL     1       3.385 -25.587   6.300  0.00  0.00    -0.302 NA
ATOM     21  C   UNL     1       2.584 -24.570   5.483  0.00  0.00    +0.066 C 
ATOM     22  C   UNL     1       2.703 -24.851   3.950  0.00  0.00    -0.064 C 
ATOM     23  N   UNL     1       2.229 -26.275   3.657  0.00  0.00    +0.379 N 
ATOM     24  C   UNL     1       2.285 -26.522   2.208  0.00  0.00    -0.096 C 
ATOM     25  H   UNL     1       1.162 -26.347   3.971  0.00  0.00    -0.082 HD
ATOM     26  C   UNL     1       3.019 -27.293   4.467  0.00  0.00    -0.064 C 
ATOM     27  C   UNL     1       2.917 -26.987   5.988  0.00  0.00    +0.066 C 
ENDBRANCH  19  20
ENDBRANCH  18  19
ENDBRANCH  14  15
ENDBRANCH  12  13
TORSDOF 6
ENDMDL
MODEL 5
REMARK VINA RESULT:      -9.5      3.190      4.307
REMARK  Name = C:\Users\Docking\Desktop\test protocol\1iep_ligandH.pdb
REMARK  8 active torsions:
REMARK  status: ('A' for Active; 'I' for Inactive)
REMARK    1  A    between atoms: _5  and  _11
REMARK    2  A    between atoms: _19  and  _21
REMARK    3  A    between atoms: _22  and  _66
REMARK    4  A    between atoms: _27  and  _30
REMARK    5  A    between atoms: _32  and  _33
REMARK    6  A    between atoms: _38  and  _43
REMARK    7  A    between atoms: _43  and  _46
REMARK    8  A    between atoms: _53  and  _55
REMARK                            x       y       z     vdW  Elec       q    Type
REMARK                         _______ _______ _______ _____ _____    ______ ____
ROOT
ATOM     10  C   UNL     1      -0.636 -28.962  12.336  0.00  0.00    +0.038 A 
ATOM     11  C   UNL     1       0.409 -29.744  11.781  0.00  0.00    +0.047 A 
ATOM     12  C   UNL     1       0.561 -31.149  12.124  0.00  0.00    +0.035 A 
ATOM     32  C   UNL     1      -0.373 -31.728  13.033  0.00  0.00    +0.024 A 
ATOM     33  C   UNL     1      -1.440 -30.947  13.607  0.00  0.00    +0.007 A 
ATOM     34  C   UNL     1      -1.593 -29.560  13.275  0.00  0.00    -0.029 A 
ATOM     35  C   UNL     1      -2.753 -28.770  13.926  0.00  0.00    +0.045 C 
ENDROOT
BRANCH  10   9
ATOM      4  C   UNL     1       0.114 -24.291  13.149  0.00  0.00    +0.077 A 
ATOM      5  C   UNL     1       0.731 -24.551  14.418  0.00  0.00    +0.048 A 
ATOM      6  C   UNL     1       0.829 -25.899  14.828  0.00  0.00    +0.116 A 
ATOM      7  N   UNL     1       0.343 -26.905  14.021  0.00  0.00    -0.223 NA
ATOM      8  C   UNL     1      -0.247 -26.621  12.804  0.00  0.00    +0.220 A 
ATOM      9  N   UNL     1      -0.735 -27.617  11.972  0.00  0.00    -0.283 N 
ATOM     36  H   UNL     1      -1.170 -27.365  11.085  0.00  0.00    +0.155 HD
ATOM     37  N   UNL     1      -0.354 -25.341  12.390  0.00  0.00    -0.214 NA
BRANCH   4   3
ATOM      1  C   UNL     1      -0.571 -20.458  12.784  0.00  0.00    +0.020 A 
ATOM      2  C   UNL     1      -0.415 -21.761  13.387  0.00  0.00    +0.013 A 
ATOM      3  C   UNL     1      -0.060 -22.919  12.576  0.00  0.00    +0.019 A 
ATOM     38  C   UNL     1       0.134 -22.722  11.147  0.00  0.00    +0.120 A 
ATOM     39  N   UNL     1      -0.024 -21.455  10.595  0.00  0.00    -0.263 NA
ATOM     40  C   UNL     1      -0.368 -20.334  11.365  0.00  0.00    +0.111 A 
ENDBRANCH   4   3
ENDBRANCH  10   9
BRANCH  12  13
ATOM     13  N   UNL     1       1.607 -31.991  11.598  0.00  0.00    -0.281 N 
ATOM     14  C   UNL     1       2.606 -32.646  12.300  0.00  0.00    +0.248 C 
ATOM     30  O   UNL     1       2.881 -32.433  13.471  0.00  0.00    -0.270 OA
ATOM     31  H   UNL     1       1.611 -32.120  10.586  0.00  0.00    +0.155 HD
BRANCH  14  15
ATOM     15  C   UNL     1       3.429 -33.675  11.594  0.00  0.00    +0.037 A 
ATOM     16  C   UNL     1       3.008 -35.077  11.540  0.00  0.00    +0.013 A 
ATOM     17  C   UNL     1       3.828 -36.053  10.867  0.00  0.00    +0.005 A 
ATOM     18  C   UNL     1       5.078 -35.628  10.241  0.00  0.00    -0.033 A 
ATOM     28  C   UNL     1       5.469 -34.230  10.305  0.00  0.00    +0.005 A 
ATOM     29  C   UNL     1       4.668 -33.271  10.964  0.00  0.00    +0.013 A 
BRANCH  18  19
ATOM     19  C   UNL     1       6.026 -36.604   9.519  0.00  0.00    +0.119 C 
BRANCH  19  20
ATOM     20  N   UNL     1       7.457 -36.611   9.948  0.00  0.00    -0.302 NA
ATOM     21  C   UNL     1       8.414 -36.483   8.759  0.00  0.00    +0.066 C 
ATOM     22  C   UNL     1       9.905 -36.469   9.228  0.00  0.00    -0.064 C 
ATOM     23  N   UNL     1      10.198 -37.741  10.025  0.00  0.00    +0.379 N 
ATOM     24  C   UNL     1      11.615 -37.758  10.418  0.00  0.00    -0.096 C 
ATOM     25  H   UNL     1      10.024 -38.611   9.350  0.00  0.00    -0.082 HD
ATOM     26  C   UNL     1       9.250 -37.877  11.208  0.00  0.00    -0.064 C 
ATOM     27  C   UNL     1       7.770 -37.860  10.734  0.00  0.00    +0.066 C 
ENDBRANCH  19  20
ENDBRANCH  18  19
ENDBRANCH  14  15
ENDBRANCH  12  13
TORSDOF 6
ENDMDL
