MODEL 1
REMARK VINA RESULT:     -11.0      0.000      0.000
REMARK  Name = C:\Users\Docking\Desktop\test protocol\1iep_ligandH.pdb
REMARK  8 active torsions:
REMARK  status: ('A' for Active; 'I' for Inactive)
REMARK    1  A    between atoms: _5  and  _11
REMARK    2  A    between atoms: _19  and  _21
REMARK    3  A    between atoms: _22  and  _66
REMARK    4  A    between atoms: _27  and  _30
REMARK    5  A    between atoms: _32  and  _33
REMARK    6  A    between atoms: _38  and  _43
REMARK    7  A    between atoms: _43  and  _46
REMARK    8  A    between atoms: _53  and  _55
REMARK                            x       y       z     vdW  Elec       q    Type
REMARK                         _______ _______ _______ _____ _____    ______ ____
ROOT
ATOM     10  C   UNL     1       1.090 -29.530  11.201  0.00  0.00    +0.038 A 
ATOM     11  C   UNL     1       2.052 -30.553  11.396  0.00  0.00    +0.047 A 
ATOM     12  C   UNL     1       2.272 -31.581  10.391  0.00  0.00    +0.035 A 
ATOM     32  C   UNL     1       1.496 -31.534   9.196  0.00  0.00    +0.024 A 
ATOM     33  C   UNL     1       0.513 -30.502   8.982  0.00  0.00    +0.007 A 
ATOM     34  C   UNL     1       0.290 -29.487   9.971  0.00  0.00    -0.029 A 
ATOM     35  C   UNL     1      -0.782 -28.408   9.691  0.00  0.00    +0.045 C 
ENDROOT
BRANCH  10   9
ATOM      4  C   UNL     1      -0.327 -28.187  15.586  0.00  0.00    +0.077 A 
ATOM      5  C   UNL     1      -0.792 -29.507  15.904  0.00  0.00    +0.048 A 
ATOM      6  C   UNL     1      -0.655 -30.500  14.910  0.00  0.00    +0.116 A 
ATOM      7  N   UNL     1      -0.093 -30.187  13.691  0.00  0.00    -0.223 NA
ATOM      8  C   UNL     1       0.344 -28.904  13.416  0.00  0.00    +0.220 A 
ATOM      9  N   UNL     1       0.920 -28.569  12.200  0.00  0.00    -0.283 N 
ATOM     36  H   UNL     1       1.222 -27.609  12.033  0.00  0.00    +0.155 HD
ATOM     37  N   UNL     1       0.223 -27.937  14.349  0.00  0.00    -0.214 NA
BRANCH   4   3
ATOM      1  C   UNL     1      -1.017 -25.989  18.748  0.00  0.00    +0.020 A 
ATOM      2  C   UNL     1      -0.971 -27.137  17.871  0.00  0.00    +0.013 A 
ATOM      3  C   UNL     1      -0.400 -27.031  16.534  0.00  0.00    +0.019 A 
ATOM     38  C   UNL     1       0.120 -25.739  16.112  0.00  0.00    +0.120 A 
ATOM     39  N   UNL     1       0.061 -24.651  16.977  0.00  0.00    -0.263 NA
ATOM     40  C   UNL     1      -0.487 -24.741  18.265  0.00  0.00    +0.111 A 
ENDBRANCH   4   3
ENDBRANCH  10   9
BRANCH  12  13
ATOM     13  N   UNL     1       3.230 -32.649  10.537  0.00  0.00    -0.281 N 
ATOM     14  C   UNL     1       3.389 -33.509  11.612  0.00  0.00    +0.248 C 
ATOM     30  O   UNL     1       2.870 -33.350  12.706  0.00  0.00    -0.270 OA
ATOM     31  H   UNL     1       3.867 -32.789   9.753  0.00  0.00    +0.155 HD
BRANCH  14  15
ATOM     15  C   UNL     1       4.264 -34.710  11.452  0.00  0.00    +0.037 A 
ATOM     16  C   UNL     1       5.000 -35.271  12.588  0.00  0.00    +0.013 A 
ATOM     17  C   UNL     1       5.850 -36.420  12.403  0.00  0.00    +0.005 A 
ATOM     18  C   UNL     1       5.969 -37.016  11.075  0.00  0.00    -0.033 A 
ATOM     28  C   UNL     1       5.224 -36.443   9.966  0.00  0.00    +0.005 A 
ATOM     29  C   UNL     1       4.390 -35.316  10.144  0.00  0.00    +0.013 A 
BRANCH  18  19
ATOM     19  C   UNL     1       6.869 -38.231  10.781  0.00  0.00    +0.119 C 
BRANCH  19  20
ATOM     20  N   UNL     1       8.259 -37.953  10.308  0.00  0.00    -0.302 NA
ATOM     21  C   UNL     1       9.275 -37.999  11.453  0.00  0.00    +0.066 C 
ATOM     22  C   UNL     1      10.726 -37.729  10.938  0.00  0.00    -0.064 C 
ATOM     23  N   UNL     1      10.768 -36.374  10.230  0.00  0.00    +0.379 N 
ATOM     24  C   UNL     1      12.144 -36.090   9.795  0.00  0.00    -0.096 C 
ATOM     25  H   UNL     1      10.482 -35.595  10.974  0.00  0.00    -0.082 HD
ATOM     26  C   UNL     1       9.759 -36.318   9.092  0.00  0.00    -0.064 C 
ATOM     27  C   UNL     1       8.325 -36.617   9.610  0.00  0.00    +0.066 C 
ENDBRANCH  19  20
ENDBRANCH  18  19
ENDBRANCH  14  15
ENDBRANCH  12  13
TORSDOF 6
ENDMDL
MODEL 2
REMARK VINA RESULT:     -10.3      2.926      3.954
REMARK  Name = C:\Users\Docking\Desktop\test protocol\1iep_ligandH.pdb
REMARK  8 active torsions:
REMARK  status: ('A' for Active; 'I' for Inactive)
REMARK    1  A    between atoms: _5  and  _11
REMARK    2  A    between atoms: _19  and  _21
REMARK    3  A    between atoms: _22  and  _66
REMARK    4  A    between atoms: _27  and  _30
REMARK    5  A    between atoms: _32  and  _33
REMARK    6  A    between atoms: _38  and  _43
REMARK    7  A    between atoms: _43  and  _46
REMARK    8  A    between atoms: _53  and  _55
REMARK                            x       y       z     vdW  Elec       q    Type
REMARK                         _______ _______ _______ _____ _____    ______ ____
ROOT
ATOM     10  C   UNL     1      -0.606 -28.894  12.372  0.00  0.00    +0.038 A 
ATOM     11  C   UNL     1       0.465 -29.734  11.971  0.00  0.00    +0.047 A 
ATOM     12  C   UNL     1       0.509 -31.134  12.362  0.00  0.00    +0.035 A 
ATOM     32  C   UNL     1      -0.555 -31.648  13.159  0.00  0.00    +0.024 A 
ATOM     33  C   UNL     1      -1.650 -30.808  13.576  0.00  0.00    +0.007 A 
ATOM     34  C   UNL     1      -1.698 -29.425  13.196  0.00  0.00    -0.029 A 
ATOM     35  C   UNL     1      -2.894 -28.570  13.678  0.00  0.00    +0.045 C 
ENDROOT
BRANCH  10   9
ATOM      4  C   UNL     1       0.277 -24.242  13.157  0.00  0.00    +0.077 A 
ATOM      5  C   UNL     1       0.735 -24.493  14.492  0.00  0.00    +0.048 A 
ATOM      6  C   UNL     1       0.722 -25.833  14.942  0.00  0.00    +0.116 A 
ATOM      7  N   UNL     1       0.281 -26.838  14.109  0.00  0.00    -0.223 NA
ATOM      8  C   UNL     1      -0.157 -26.561  12.827  0.00  0.00    +0.220 A 
ATOM      9  N   UNL     1      -0.598 -27.557  11.969  0.00  0.00    -0.283 N 
ATOM     36  H   UNL     1      -0.920 -27.311  11.033  0.00  0.00    +0.155 HD
ATOM     37  N   UNL     1      -0.155 -25.290  12.374  0.00  0.00    -0.214 NA
BRANCH   4   3
ATOM      1  C   UNL     1       0.550 -20.378  12.612  0.00  0.00    +0.020 A 
ATOM      2  C   UNL     1       0.608 -21.669  13.257  0.00  0.00    +0.013 A 
ATOM      3  C   UNL     1       0.234 -22.880  12.537  0.00  0.00    +0.019 A 
ATOM     38  C   UNL     1      -0.198 -22.748  11.153  0.00  0.00    +0.120 A 
ATOM     39  N   UNL     1      -0.246 -21.491  10.558  0.00  0.00    -0.263 NA
ATOM     40  C   UNL     1       0.110 -20.319  11.242  0.00  0.00    +0.111 A 
ENDBRANCH   4   3
ENDBRANCH  10   9
BRANCH  12  13
ATOM     13  N   UNL     1       1.574 -32.033  11.991  0.00  0.00    -0.281 N 
ATOM     14  C   UNL     1       2.356 -32.817  12.825  0.00  0.00    +0.248 C 
ATOM     30  O   UNL     1       2.400 -32.702  14.040  0.00  0.00    -0.270 OA
ATOM     31  H   UNL     1       1.777 -32.099  10.994  0.00  0.00    +0.155 HD
BRANCH  14  15
ATOM     15  C   UNL     1       3.225 -33.870  12.218  0.00  0.00    +0.037 A 
ATOM     16  C   UNL     1       3.824 -34.927  13.039  0.00  0.00    +0.013 A 
ATOM     17  C   UNL     1       4.672 -35.921  12.432  0.00  0.00    +0.005 A 
ATOM     18  C   UNL     1       4.927 -35.864  10.994  0.00  0.00    -0.033 A 
ATOM     28  C   UNL     1       4.316 -34.809  10.203  0.00  0.00    +0.005 A 
ATOM     29  C   UNL     1       3.485 -33.832  10.795  0.00  0.00    +0.013 A 
BRANCH  18  19
ATOM     19  C   UNL     1       5.836 -36.871  10.265  0.00  0.00    +0.119 C 
BRANCH  19  20
ATOM     20  N   UNL     1       7.311 -36.714  10.443  0.00  0.00    -0.302 NA
ATOM     21  C   UNL     1       8.040 -36.581   9.103  0.00  0.00    +0.066 C 
ATOM     22  C   UNL     1       9.578 -36.394   9.308  0.00  0.00    -0.064 C 
ATOM     23  N   UNL     1      10.130 -37.574  10.110  0.00  0.00    +0.379 N 
ATOM     24  C   UNL     1      11.586 -37.431  10.254  0.00  0.00    -0.096 C 
ATOM     25  H   UNL     1       9.938 -38.502   9.522  0.00  0.00    -0.082 HD
ATOM     26  C   UNL     1       9.409 -37.715  11.443  0.00  0.00    -0.064 C 
ATOM     27  C   UNL     1       7.877 -37.870  11.229  0.00  0.00    +0.066 C 
ENDBRANCH  19  20
ENDBRANCH  18  19
ENDBRANCH  14  15
ENDBRANCH  12  13
TORSDOF 6
ENDMDL
MODEL 3
REMARK VINA RESULT:      -9.9      4.680     12.705
REMARK  Name = C:\Users\Docking\Desktop\test protocol\1iep_ligandH.pdb
REMARK  8 active torsions:
REMARK  status: ('A' for Active; 'I' for Inactive)
REMARK    1  A    between atoms: _5  and  _11
REMARK    2  A    between atoms: _19  and  _21
REMARK    3  A    between atoms: _22  and  _66
REMARK    4  A    between atoms: _27  and  _30
REMARK    5  A    between atoms: _32  and  _33
REMARK    6  A    between atoms: _38  and  _43
REMARK    7  A    between atoms: _43  and  _46
REMARK    8  A    between atoms: _53  and  _55
REMARK                            x       y       z     vdW  Elec       q    Type
REMARK                         _______ _______ _______ _____ _____    ______ ____
ROOT
ATOM     10  C   UNL     1       5.660 -33.489  12.052  0.00  0.00    +0.038 A 
ATOM     11  C   UNL     1       4.933 -32.903  10.985  0.00  0.00    +0.047 A 
ATOM     12  C   UNL     1       3.544 -32.504  11.151  0.00  0.00    +0.035 A 
ATOM     32  C   UNL     1       2.927 -32.715  12.418  0.00  0.00    +0.024 A 
ATOM     33  C   UNL     1       3.652 -33.310  13.514  0.00  0.00    +0.007 A 
ATOM     34  C   UNL     1       5.021 -33.708  13.355  0.00  0.00    -0.029 A 
ATOM     35  C   UNL     1       5.747 -34.348  14.562  0.00  0.00    +0.045 C 
ENDROOT
BRANCH  10   9
ATOM      4  C   UNL     1       9.018 -36.606  10.619  0.00  0.00    +0.077 A 
ATOM      5  C   UNL     1       8.039 -37.603  10.296  0.00  0.00    +0.048 A 
ATOM      6  C   UNL     1       6.682 -37.277  10.520  0.00  0.00    +0.116 A 
ATOM      7  N   UNL     1       6.342 -36.042  11.029  0.00  0.00    -0.223 NA
ATOM      8  C   UNL     1       7.312 -35.104  11.332  0.00  0.00    +0.220 A 
ATOM      9  N   UNL     1       6.992 -33.853  11.837  0.00  0.00    -0.283 N 
ATOM     36  H   UNL     1       7.736 -33.192  12.055  0.00  0.00    +0.155 HD
ATOM     37  N   UNL     1       8.614 -35.392  11.129  0.00  0.00    -0.214 NA
BRANCH   4   3
ATOM      1  C   UNL     1      12.809 -35.953   9.910  0.00  0.00    +0.020 A 
ATOM      2  C   UNL     1      11.394 -35.713  10.075  0.00  0.00    +0.013 A 
ATOM      3  C   UNL     1      10.491 -36.799  10.436  0.00  0.00    +0.019 A 
ATOM     38  C   UNL     1      11.057 -38.126  10.625  0.00  0.00    +0.120 A 
ATOM     39  N   UNL     1      12.424 -38.328  10.458  0.00  0.00    -0.263 NA
ATOM     40  C   UNL     1      13.302 -37.291  10.109  0.00  0.00    +0.111 A 
ENDBRANCH   4   3
ENDBRANCH  10   9
BRANCH  12  13
ATOM     13  N   UNL     1       2.753 -31.912  10.101  0.00  0.00    -0.281 N 
ATOM     14  C   UNL     1       1.564 -32.378   9.564  0.00  0.00    +0.248 C 
ATOM     30  O   UNL     1       1.108 -33.495   9.760  0.00  0.00    -0.270 OA
ATOM     31  H   UNL     1       3.113 -31.043   9.706  0.00  0.00    +0.155 HD
BRANCH  14  15
ATOM     15  C   UNL     1       0.774 -31.479   8.669  0.00  0.00    +0.037 A 
ATOM     16  C   UNL     1      -0.048 -32.019   7.583  0.00  0.00    +0.013 A 
ATOM     17  C   UNL     1      -0.787 -31.129   6.723  0.00  0.00    +0.005 A 
ATOM     18  C   UNL     1      -0.707 -29.687   6.948  0.00  0.00    -0.033 A 
ATOM     28  C   UNL     1       0.112 -29.179   8.035  0.00  0.00    +0.005 A 
ATOM     29  C   UNL     1       0.838 -30.048   8.879  0.00  0.00    +0.013 A 
BRANCH  18  19
ATOM     19  C   UNL     1      -1.445 -28.662   6.066  0.00  0.00    +0.119 C 
BRANCH  19  20
ATOM     20  N   UNL     1      -2.860 -28.968   5.699  0.00  0.00    -0.302 NA
ATOM     21  C   UNL     1      -3.366 -28.071   4.566  0.00  0.00    +0.066 C 
ATOM     22  C   UNL     1      -4.840 -28.420   4.179  0.00  0.00    -0.064 C 
ATOM     23  N   UNL     1      -5.733 -28.289   5.414  0.00  0.00    +0.379 N 
ATOM     24  C   UNL     1      -7.129 -28.560   5.040  0.00  0.00    -0.096 C 
ATOM     25  H   UNL     1      -5.675 -27.231   5.762  0.00  0.00    -0.082 HD
ATOM     26  C   UNL     1      -5.235 -29.175   6.546  0.00  0.00    -0.064 C 
ATOM     27  C   UNL     1      -3.760 -28.840   6.903  0.00  0.00    +0.066 C 
ENDBRANCH  19  20
ENDBRANCH  18  19
ENDBRANCH  14  15
ENDBRANCH  12  13
TORSDOF 6
ENDMDL
MODEL 4
REMARK VINA RESULT:      -9.9      3.862     12.781
REMARK  Name = C:\Users\Docking\Desktop\test protocol\1iep_ligandH.pdb
REMARK  8 active torsions:
REMARK  status: ('A' for Active; 'I' for Inactive)
REMARK    1  A    between atoms: _5  and  _11
REMARK    2  A    between atoms: _19  and  _21
REMARK    3  A    between atoms: _22  and  _66
REMARK    4  A    between atoms: _27  and  _30
REMARK    5  A    between atoms: _32  and  _33
REMARK    6  A    between atoms: _38  and  _43
REMARK    7  A    between atoms: _43  and  _46
REMARK    8  A    between atoms: _53  and  _55
REMARK                            x       y       z     vdW  Elec       q    Type
REMARK                         _______ _______ _______ _____ _____    ______ ____
ROOT
ATOM     10  C   UNL     1       2.034 -32.359  11.810  0.00  0.00    +0.038 A 
ATOM     11  C   UNL     1       1.925 -30.950  11.938  0.00  0.00    +0.047 A 
ATOM     12  C   UNL     1       0.711 -30.332  12.447  0.00  0.00    +0.035 A 
ATOM     32  C   UNL     1      -0.373 -31.179  12.820  0.00  0.00    +0.024 A 
ATOM     33  C   UNL     1      -0.280 -32.612  12.696  0.00  0.00    +0.007 A 
ATOM     34  C   UNL     1       0.914 -33.228  12.192  0.00  0.00    -0.029 A 
ATOM     35  C   UNL     1       0.955 -34.769  12.074  0.00  0.00    +0.045 C 
ENDROOT
BRANCH  10   9
ATOM      4  C   UNL     1       6.430 -34.186  12.422  0.00  0.00    +0.077 A 
ATOM      5  C   UNL     1       6.362 -34.027  13.846  0.00  0.00    +0.048 A 
ATOM      6  C   UNL     1       5.181 -33.464  14.381  0.00  0.00    +0.116 A 
ATOM      7  N   UNL     1       4.151 -33.092  13.544  0.00  0.00    -0.223 NA
ATOM      8  C   UNL     1       4.250 -33.258  12.175  0.00  0.00    +0.220 A 
ATOM      9  N   UNL     1       3.223 -32.899  11.315  0.00  0.00    -0.283 N 
ATOM     36  H   UNL     1       3.337 -33.030  10.311  0.00  0.00    +0.155 HD
ATOM     37  N   UNL     1       5.367 -33.792  11.640  0.00  0.00    -0.214 NA
BRANCH   4   3
ATOM      1  C   UNL     1       9.567 -34.609  10.124  0.00  0.00    +0.020 A 
ATOM      2  C   UNL     1       8.438 -33.999  10.788  0.00  0.00    +0.013 A 
ATOM      3  C   UNL     1       7.609 -34.769  11.707  0.00  0.00    +0.019 A 
ATOM     38  C   UNL     1       7.953 -36.164  11.935  0.00  0.00    +0.120 A 
ATOM     39  N   UNL     1       9.045 -36.725  11.280  0.00  0.00    -0.263 NA
ATOM     40  C   UNL     1       9.848 -35.995  10.392  0.00  0.00    +0.111 A 
ENDBRANCH   4   3
ENDBRANCH  10   9
BRANCH  12  13
ATOM     13  N   UNL     1       0.540 -28.908  12.592  0.00  0.00    -0.281 N 
ATOM     14  C   UNL     1       0.115 -28.210  13.710  0.00  0.00    +0.248 C 
ATOM     30  O   UNL     1      -0.391 -28.726  14.696  0.00  0.00    -0.270 OA
ATOM     31  H   UNL     1       0.760 -28.345  11.769  0.00  0.00    +0.155 HD
BRANCH  14  15
ATOM     15  C   UNL     1       0.258 -26.722  13.731  0.00  0.00    +0.037 A 
ATOM     16  C   UNL     1       0.008 -25.918  12.533  0.00  0.00    +0.013 A 
ATOM     17  C   UNL     1       0.170 -24.486  12.576  0.00  0.00    +0.005 A 
ATOM     18  C   UNL     1       0.584 -23.849  13.824  0.00  0.00    -0.033 A 
ATOM     28  C   UNL     1       0.820 -24.671  14.999  0.00  0.00    +0.005 A 
ATOM     29  C   UNL     1       0.663 -26.075  14.961  0.00  0.00    +0.013 A 
BRANCH  18  19
ATOM     19  C   UNL     1       0.802 -22.330  13.956  0.00  0.00    +0.119 C 
BRANCH  19  20
ATOM     20  N   UNL     1      -0.032 -21.442  13.092  0.00  0.00    -0.302 NA
ATOM     21  C   UNL     1       0.820 -20.625  12.117  0.00  0.00    +0.066 C 
ATOM     22  C   UNL     1      -0.070 -19.718  11.206  0.00  0.00    -0.064 C 
ATOM     23  N   UNL     1      -0.923 -18.799  12.083  0.00  0.00    +0.379 N 
ATOM     24  C   UNL     1      -1.718 -17.905  11.228  0.00  0.00    -0.096 C 
ATOM     25  H   UNL     1      -0.229 -18.165  12.683  0.00  0.00    -0.082 HD
ATOM     26  C   UNL     1      -1.771 -19.604  13.057  0.00  0.00    -0.064 C 
ATOM     27  C   UNL     1      -0.879 -20.523  13.937  0.00  0.00    +0.066 C 
ENDBRANCH  19  20
ENDBRANCH  18  19
ENDBRANCH  14  15
ENDBRANCH  12  13
TORSDOF 6
ENDMDL
MODEL 5
REMARK VINA RESULT:      -9.7      3.945     12.997
REMARK  Name = C:\Users\Docking\Desktop\test protocol\1iep_ligandH.pdb
REMARK  8 active torsions:
REMARK  status: ('A' for Active; 'I' for Inactive)
REMARK    1  A    between atoms: _5  and  _11
REMARK    2  A    between atoms: _19  and  _21
REMARK    3  A    between atoms: _22  and  _66
REMARK    4  A    between atoms: _27  and  _30
REMARK    5  A    between atoms: _32  and  _33
REMARK    6  A    between atoms: _38  and  _43
REMARK    7  A    between atoms: _43  and  _46
REMARK    8  A    between atoms: _53  and  _55
REMARK                            x       y       z     vdW  Elec       q    Type
REMARK                         _______ _______ _______ _____ _____    ______ ____
ROOT
ATOM     10  C   UNL     1       1.637 -32.006  11.672  0.00  0.00    +0.038 A 
ATOM     11  C   UNL     1       1.537 -30.599  11.816  0.00  0.00    +0.047 A 
ATOM     12  C   UNL     1       0.381 -29.988  12.454  0.00  0.00    +0.035 A 
ATOM     32  C   UNL     1      -0.654 -30.842  12.936  0.00  0.00    +0.024 A 
ATOM     33  C   UNL     1      -0.569 -32.275  12.797  0.00  0.00    +0.007 A 
ATOM     34  C   UNL     1       0.568 -32.882  12.166  0.00  0.00    -0.029 A 
ATOM     35  C   UNL     1       0.604 -34.423  12.038  0.00  0.00    +0.045 C 
ENDROOT
BRANCH  10   9
ATOM      4  C   UNL     1       6.033 -33.927  11.816  0.00  0.00    +0.077 A 
ATOM      5  C   UNL     1       6.090 -33.838  13.246  0.00  0.00    +0.048 A 
ATOM      6  C   UNL     1       4.970 -33.285  13.907  0.00  0.00    +0.116 A 
ATOM      7  N   UNL     1       3.880 -32.857  13.180  0.00  0.00    -0.223 NA
ATOM      8  C   UNL     1       3.858 -32.955  11.801  0.00  0.00    +0.220 A 
ATOM      9  N   UNL     1       2.770 -32.538  11.051  0.00  0.00    -0.283 N 
ATOM     36  H   UNL     1       2.796 -32.621  10.035  0.00  0.00    +0.155 HD
ATOM     37  N   UNL     1       4.916 -33.478  11.147  0.00  0.00    -0.214 NA
BRANCH   4   3
ATOM      1  C   UNL     1       9.518 -34.527  10.143  0.00  0.00    +0.020 A 
ATOM      2  C   UNL     1       8.488 -33.945  10.973  0.00  0.00    +0.013 A 
ATOM      3  C   UNL     1       7.137 -34.490  10.975  0.00  0.00    +0.019 A 
ATOM     38  C   UNL     1       6.858 -35.635  10.121  0.00  0.00    +0.120 A 
ATOM     39  N   UNL     1       7.869 -36.173   9.331  0.00  0.00    -0.263 NA
ATOM     40  C   UNL     1       9.173 -35.655   9.319  0.00  0.00    +0.111 A 
ENDBRANCH   4   3
ENDBRANCH  10   9
BRANCH  12  13
ATOM     13  N   UNL     1       0.219 -28.565  12.622  0.00  0.00    -0.281 N 
ATOM     14  C   UNL     1       0.353 -27.824  13.785  0.00  0.00    +0.248 C 
ATOM     30  O   UNL     1       0.422 -28.305  14.906  0.00  0.00    -0.270 OA
ATOM     31  H   UNL     1      -0.022 -28.041  11.781  0.00  0.00    +0.155 HD
BRANCH  14  15
ATOM     15  C   UNL     1       0.402 -26.333  13.689  0.00  0.00    +0.037 A 
ATOM     16  C   UNL     1       0.784 -25.510  14.839  0.00  0.00    +0.013 A 
ATOM     17  C   UNL     1       0.807 -24.074  14.725  0.00  0.00    +0.005 A 
ATOM     18  C   UNL     1       0.447 -23.451  13.453  0.00  0.00    -0.033 A 
ATOM     28  C   UNL     1       0.077 -24.291  12.327  0.00  0.00    +0.005 A 
ATOM     29  C   UNL     1       0.052 -25.700  12.436  0.00  0.00    +0.013 A 
BRANCH  18  19
ATOM     19  C   UNL     1       0.423 -21.925  13.247  0.00  0.00    +0.119 C 
BRANCH  19  20
ATOM     20  N   UNL     1      -0.907 -21.287  13.013  0.00  0.00    -0.302 NA
ATOM     21  C   UNL     1      -1.087 -20.851  11.556  0.00  0.00    +0.066 C 
ATOM     22  C   UNL     1      -2.492 -20.207  11.324  0.00  0.00    -0.064 C 
ATOM     23  N   UNL     1      -2.668 -19.018  12.270  0.00  0.00    +0.379 N 
ATOM     24  C   UNL     1      -3.964 -18.374  12.015  0.00  0.00    -0.096 C 
ATOM     25  H   UNL     1      -1.869 -18.277  12.033  0.00  0.00    -0.082 HD
ATOM     26  C   UNL     1      -2.488 -19.442  13.721  0.00  0.00    -0.064 C 
ATOM     27  C   UNL     1      -1.100 -20.108  13.934  0.00  0.00    +0.066 C 
ENDBRANCH  19  20
ENDBRANCH  18  19
ENDBRANCH  14  15
ENDBRANCH  12  13
TORSDOF 6
ENDMDL
