MODEL 1
REMARK VINA RESULT:     -10.3      0.000      0.000
REMARK  Name = C:\Users\Docking\Desktop\test protocol\1iep_ligandH.pdb
REMARK  8 active torsions:
REMARK  status: ('A' for Active; 'I' for Inactive)
REMARK    1  A    between atoms: _5  and  _11
REMARK    2  A    between atoms: _19  and  _21
REMARK    3  A    between atoms: _22  and  _66
REMARK    4  A    between atoms: _27  and  _30
REMARK    5  A    between atoms: _32  and  _33
REMARK    6  A    between atoms: _38  and  _43
REMARK    7  A    between atoms: _43  and  _46
REMARK    8  A    between atoms: _53  and  _55
REMARK                            x       y       z     vdW  Elec       q    Type
REMARK                         _______ _______ _______ _____ _____    ______ ____
ROOT
ATOM     10  C   UNL     1       1.107 -29.642  11.147  0.00  0.00    +0.038 A 
ATOM     11  C   UNL     1       2.127 -30.620  11.271  0.00  0.00    +0.047 A 
ATOM     12  C   UNL     1       2.396 -31.567  10.200  0.00  0.00    +0.035 A 
ATOM     32  C   UNL     1       1.610 -31.487   9.014  0.00  0.00    +0.024 A 
ATOM     33  C   UNL     1       0.569 -30.499   8.871  0.00  0.00    +0.007 A 
ATOM     34  C   UNL     1       0.297 -29.565   9.925  0.00  0.00    -0.029 A 
ATOM     35  C   UNL     1      -0.836 -28.532   9.720  0.00  0.00    +0.045 C 
ENDROOT
BRANCH  10   9
ATOM      4  C   UNL     1      -0.441 -28.647  15.580  0.00  0.00    +0.077 A 
ATOM      5  C   UNL     1      -0.881 -29.995  15.793  0.00  0.00    +0.048 A 
ATOM      6  C   UNL     1      -0.697 -30.913  14.734  0.00  0.00    +0.116 A 
ATOM      7  N   UNL     1      -0.115 -30.501  13.554  0.00  0.00    -0.223 NA
ATOM      8  C   UNL     1       0.297 -29.192  13.381  0.00  0.00    +0.220 A 
ATOM      9  N   UNL     1       0.891 -28.758  12.206  0.00  0.00    -0.283 N 
ATOM     36  H   UNL     1       1.174 -27.783  12.115  0.00  0.00    +0.155 HD
ATOM     37  N   UNL     1       0.131 -28.297  14.377  0.00  0.00    -0.214 NA
BRANCH   4   3
ATOM      1  C   UNL     1      -0.124 -25.228  17.453  0.00  0.00    +0.020 A 
ATOM      2  C   UNL     1       0.024 -26.240  16.432  0.00  0.00    +0.013 A 
ATOM      3  C   UNL     1      -0.563 -27.562  16.605  0.00  0.00    +0.019 A 
ATOM     38  C   UNL     1      -1.300 -27.831  17.830  0.00  0.00    +0.120 A 
ATOM     39  N   UNL     1      -1.425 -26.837  18.796  0.00  0.00    -0.263 NA
ATOM     40  C   UNL     1      -0.863 -25.561  18.642  0.00  0.00    +0.111 A 
ENDBRANCH   4   3
ENDBRANCH  10   9
BRANCH  12  13
ATOM     13  N   UNL     1       3.413 -32.587  10.273  0.00  0.00    -0.281 N 
ATOM     14  C   UNL     1       3.836 -33.289  11.390  0.00  0.00    +0.248 C 
ATOM     30  O   UNL     1       3.551 -32.994  12.541  0.00  0.00    -0.270 OA
ATOM     31  H   UNL     1       3.877 -32.820   9.395  0.00  0.00    +0.155 HD
BRANCH  14  15
ATOM     15  C   UNL     1       4.714 -34.484  11.201  0.00  0.00    +0.037 A 
ATOM     16  C   UNL     1       5.786 -34.796  12.150  0.00  0.00    +0.013 A 
ATOM     17  C   UNL     1       6.629 -35.945  11.935  0.00  0.00    +0.005 A 
ATOM     18  C   UNL     1       6.402 -36.792  10.766  0.00  0.00    -0.033 A 
ATOM     28  C   UNL     1       5.329 -36.462   9.844  0.00  0.00    +0.005 A 
ATOM     29  C   UNL     1       4.500 -35.336  10.051  0.00  0.00    +0.013 A 
BRANCH  18  19
ATOM     19  C   UNL     1       7.267 -38.026  10.447  0.00  0.00    +0.119 C 
BRANCH  19  20
ATOM     20  N   UNL     1       8.687 -37.783  10.054  0.00  0.00    -0.302 NA
ATOM     21  C   UNL     1       9.657 -38.052  11.208  0.00  0.00    +0.066 C 
ATOM     22  C   UNL     1      11.140 -37.814  10.772  0.00  0.00    -0.064 C 
ATOM     23  N   UNL     1      11.294 -36.382  10.258  0.00  0.00    +0.379 N 
ATOM     24  C   UNL     1      12.699 -36.137   9.902  0.00  0.00    -0.096 C 
ATOM     25  H   UNL     1      11.031 -35.692  11.093  0.00  0.00    -0.082 HD
ATOM     26  C   UNL     1      10.331 -36.105   9.112  0.00  0.00    -0.064 C 
ATOM     27  C   UNL     1       8.863 -36.372   9.546  0.00  0.00    +0.066 C 
ENDBRANCH  19  20
ENDBRANCH  18  19
ENDBRANCH  14  15
ENDBRANCH  12  13
TORSDOF 6
ENDMDL
MODEL 2
REMARK VINA RESULT:      -9.9      4.042     12.737
REMARK  Name = C:\Users\Docking\Desktop\test protocol\1iep_ligandH.pdb
REMARK  8 active torsions:
REMARK  status: ('A' for Active; 'I' for Inactive)
REMARK    1  A    between atoms: _5  and  _11
REMARK    2  A    between atoms: _19  and  _21
REMARK    3  A    between atoms: _22  and  _66
REMARK    4  A    between atoms: _27  and  _30
REMARK    5  A    between atoms: _32  and  _33
REMARK    6  A    between atoms: _38  and  _43
REMARK    7  A    between atoms: _43  and  _46
REMARK    8  A    between atoms: _53  and  _55
REMARK                            x       y       z     vdW  Elec       q    Type
REMARK                         _______ _______ _______ _____ _____    ______ ____
ROOT
ATOM     10  C   UNL     1       2.105 -32.850  11.979  0.00  0.00    +0.038 A 
ATOM     11  C   UNL     1       2.141 -31.440  12.121  0.00  0.00    +0.047 A 
ATOM     12  C   UNL     1       0.959 -30.694  12.525  0.00  0.00    +0.035 A 
ATOM     32  C   UNL     1      -0.243 -31.417  12.779  0.00  0.00    +0.024 A 
ATOM     33  C   UNL     1      -0.297 -32.851  12.638  0.00  0.00    +0.007 A 
ATOM     34  C   UNL     1       0.865 -33.592  12.237  0.00  0.00    -0.029 A 
ATOM     35  C   UNL     1       0.747 -35.128  12.096  0.00  0.00    +0.045 C 
ENDROOT
BRANCH  10   9
ATOM      4  C   UNL     1       6.144 -35.247  12.968  0.00  0.00    +0.077 A 
ATOM      5  C   UNL     1       5.931 -35.141  14.382  0.00  0.00    +0.048 A 
ATOM      6  C   UNL     1       4.773 -34.456  14.814  0.00  0.00    +0.116 A 
ATOM      7  N   UNL     1       3.901 -33.921  13.892  0.00  0.00    -0.223 NA
ATOM      8  C   UNL     1       4.137 -34.039  12.534  0.00  0.00    +0.220 A 
ATOM      9  N   UNL     1       3.269 -33.516  11.588  0.00  0.00    -0.283 N 
ATOM     36  H   UNL     1       3.483 -33.618  10.597  0.00  0.00    +0.155 HD
ATOM     37  N   UNL     1       5.236 -34.688  12.096  0.00  0.00    -0.214 NA
BRANCH   4   3
ATOM      1  C   UNL     1       8.908 -37.894  12.157  0.00  0.00    +0.020 A 
ATOM      2  C   UNL     1       7.767 -37.264  12.782  0.00  0.00    +0.013 A 
ATOM      3  C   UNL     1       7.319 -35.944  12.356  0.00  0.00    +0.019 A 
ATOM     38  C   UNL     1       8.053 -35.283  11.287  0.00  0.00    +0.120 A 
ATOM     39  N   UNL     1       9.149 -35.913  10.706  0.00  0.00    -0.263 NA
ATOM     40  C   UNL     1       9.590 -37.183  11.108  0.00  0.00    +0.111 A 
ENDBRANCH   4   3
ENDBRANCH  10   9
BRANCH  12  13
ATOM     13  N   UNL     1       0.933 -29.260  12.678  0.00  0.00    -0.281 N 
ATOM     14  C   UNL     1      -0.090 -28.476  13.185  0.00  0.00    +0.248 C 
ATOM     30  O   UNL     1      -1.229 -28.872  13.386  0.00  0.00    -0.270 OA
ATOM     31  H   UNL     1       1.772 -28.763  12.377  0.00  0.00    +0.155 HD
BRANCH  14  15
ATOM     15  C   UNL     1       0.187 -27.042  13.500  0.00  0.00    +0.037 A 
ATOM     16  C   UNL     1       0.593 -26.623  14.844  0.00  0.00    +0.013 A 
ATOM     17  C   UNL     1       0.838 -25.231  15.125  0.00  0.00    +0.005 A 
ATOM     18  C   UNL     1       0.679 -24.246  14.057  0.00  0.00    -0.033 A 
ATOM     28  C   UNL     1       0.280 -24.689  12.732  0.00  0.00    +0.005 A 
ATOM     29  C   UNL     1       0.038 -26.053  12.453  0.00  0.00    +0.013 A 
BRANCH  18  19
ATOM     19  C   UNL     1       0.899 -22.737  14.272  0.00  0.00    +0.119 C 
BRANCH  19  20
ATOM     20  N   UNL     1       0.017 -21.802  13.511  0.00  0.00    -0.302 NA
ATOM     21  C   UNL     1       0.748 -21.157  12.330  0.00  0.00    +0.066 C 
ATOM     22  C   UNL     1      -0.196 -20.199  11.532  0.00  0.00    -0.064 C 
ATOM     23  N   UNL     1      -0.750 -19.131  12.475  0.00  0.00    +0.379 N 
ATOM     24  C   UNL     1      -1.592 -18.195  11.716  0.00  0.00    -0.096 C 
ATOM     25  H   UNL     1       0.114 -18.556  12.881  0.00  0.00    -0.082 HD
ATOM     26  C   UNL     1      -1.476 -19.764  13.654  0.00  0.00    -0.064 C 
ATOM     27  C   UNL     1      -0.539 -20.736  14.423  0.00  0.00    +0.066 C 
ENDBRANCH  19  20
ENDBRANCH  18  19
ENDBRANCH  14  15
ENDBRANCH  12  13
TORSDOF 6
ENDMDL
MODEL 3
REMARK VINA RESULT:      -9.8      4.519     12.335
REMARK  Name = C:\Users\Docking\Desktop\test protocol\1iep_ligandH.pdb
REMARK  8 active torsions:
REMARK  status: ('A' for Active; 'I' for Inactive)
REMARK    1  A    between atoms: _5  and  _11
REMARK    2  A    between atoms: _19  and  _21
REMARK    3  A    between atoms: _22  and  _66
REMARK    4  A    between atoms: _27  and  _30
REMARK    5  A    between atoms: _32  and  _33
REMARK    6  A    between atoms: _38  and  _43
REMARK    7  A    between atoms: _43  and  _46
REMARK    8  A    between atoms: _53  and  _55
REMARK                            x       y       z     vdW  Elec       q    Type
REMARK                         _______ _______ _______ _____ _____    ______ ____
ROOT
ATOM     10  C   UNL     1       2.988 -34.830  11.466  0.00  0.00    +0.038 A 
ATOM     11  C   UNL     1       2.417 -33.901  10.559  0.00  0.00    +0.047 A 
ATOM     12  C   UNL     1       1.168 -33.221  10.865  0.00  0.00    +0.035 A 
ATOM     32  C   UNL     1       0.529 -33.510  12.106  0.00  0.00    +0.024 A 
ATOM     33  C   UNL     1       1.095 -34.452  13.039  0.00  0.00    +0.007 A 
ATOM     34  C   UNL     1       2.326 -35.127  12.741  0.00  0.00    -0.029 A 
ATOM     35  C   UNL     1       2.883 -36.133  13.775  0.00  0.00    +0.045 C 
ENDROOT
BRANCH  10   9
ATOM      4  C   UNL     1       7.783 -35.043  11.408  0.00  0.00    +0.077 A 
ATOM      5  C   UNL     1       7.906 -33.792  12.101  0.00  0.00    +0.048 A 
ATOM      6  C   UNL     1       6.711 -33.123  12.448  0.00  0.00    +0.116 A 
ATOM      7  N   UNL     1       5.490 -33.672  12.121  0.00  0.00    -0.223 NA
ATOM      8  C   UNL     1       5.407 -34.879  11.451  0.00  0.00    +0.220 A 
ATOM      9  N   UNL     1       4.190 -35.453  11.120  0.00  0.00    -0.283 N 
ATOM     36  H   UNL     1       4.171 -36.341  10.619  0.00  0.00    +0.155 HD
ATOM     37  N   UNL     1       6.533 -35.537  11.108  0.00  0.00    -0.214 NA
BRANCH   4   3
ATOM      1  C   UNL     1      11.134 -36.192   9.750  0.00  0.00    +0.020 A 
ATOM      2  C   UNL     1      10.026 -35.350  10.138  0.00  0.00    +0.013 A 
ATOM      3  C   UNL     1       8.954 -35.871  10.977  0.00  0.00    +0.019 A 
ATOM     38  C   UNL     1       9.034 -37.257  11.410  0.00  0.00    +0.120 A 
ATOM     39  N   UNL     1      10.113 -38.044  11.020  0.00  0.00    -0.263 NA
ATOM     40  C   UNL     1      11.150 -37.555  10.211  0.00  0.00    +0.111 A 
ENDBRANCH   4   3
ENDBRANCH  10   9
BRANCH  12  13
ATOM     13  N   UNL     1       0.536 -32.275   9.980  0.00  0.00    -0.281 N 
ATOM     14  C   UNL     1       0.984 -31.014   9.621  0.00  0.00    +0.248 C 
ATOM     30  O   UNL     1       1.897 -30.421  10.177  0.00  0.00    -0.270 OA
ATOM     31  H   UNL     1      -0.350 -32.570   9.569  0.00  0.00    +0.155 HD
BRANCH  14  15
ATOM     15  C   UNL     1       0.313 -30.304   8.490  0.00  0.00    +0.037 A 
ATOM     16  C   UNL     1       0.188 -28.844   8.477  0.00  0.00    +0.013 A 
ATOM     17  C   UNL     1      -0.479 -28.185   7.382  0.00  0.00    +0.005 A 
ATOM     18  C   UNL     1      -1.026 -28.987   6.290  0.00  0.00    -0.033 A 
ATOM     28  C   UNL     1      -0.884 -30.433   6.327  0.00  0.00    +0.005 A 
ATOM     29  C   UNL     1      -0.232 -31.083   7.398  0.00  0.00    +0.013 A 
BRANCH  18  19
ATOM     19  C   UNL     1      -1.773 -28.371   5.092  0.00  0.00    +0.119 C 
BRANCH  19  20
ATOM     20  N   UNL     1      -3.190 -28.790   4.880  0.00  0.00    -0.302 NA
ATOM     21  C   UNL     1      -3.850 -28.024   3.731  0.00  0.00    +0.066 C 
ATOM     22  C   UNL     1      -5.326 -28.491   3.508  0.00  0.00    -0.064 C 
ATOM     23  N   UNL     1      -6.116 -28.310   4.805  0.00  0.00    +0.379 N 
ATOM     24  C   UNL     1      -7.518 -28.694   4.582  0.00  0.00    -0.096 C 
ATOM     25  H   UNL     1      -6.099 -27.225   5.062  0.00  0.00    -0.082 HD
ATOM     26  C   UNL     1      -5.465 -29.066   5.954  0.00  0.00    -0.064 C 
ATOM     27  C   UNL     1      -3.991 -28.615   6.147  0.00  0.00    +0.066 C 
ENDBRANCH  19  20
ENDBRANCH  18  19
ENDBRANCH  14  15
ENDBRANCH  12  13
TORSDOF 6
ENDMDL
MODEL 4
REMARK VINA RESULT:      -9.7      4.578     11.671
REMARK  Name = C:\Users\Docking\Desktop\test protocol\1iep_ligandH.pdb
REMARK  8 active torsions:
REMARK  status: ('A' for Active; 'I' for Inactive)
REMARK    1  A    between atoms: _5  and  _11
REMARK    2  A    between atoms: _19  and  _21
REMARK    3  A    between atoms: _22  and  _66
REMARK    4  A    between atoms: _27  and  _30
REMARK    5  A    between atoms: _32  and  _33
REMARK    6  A    between atoms: _38  and  _43
REMARK    7  A    between atoms: _43  and  _46
REMARK    8  A    between atoms: _53  and  _55
REMARK                            x       y       z     vdW  Elec       q    Type
REMARK                         _______ _______ _______ _____ _____    ______ ____
ROOT
ATOM     10  C   UNL     1       3.011 -34.922  11.474  0.00  0.00    +0.038 A 
ATOM     11  C   UNL     1       2.452 -34.021  10.532  0.00  0.00    +0.047 A 
ATOM     12  C   UNL     1       1.199 -33.333  10.801  0.00  0.00    +0.035 A 
ATOM     32  C   UNL     1       0.543 -33.585  12.042  0.00  0.00    +0.024 A 
ATOM     33  C   UNL     1       1.097 -34.498  13.010  0.00  0.00    +0.007 A 
ATOM     34  C   UNL     1       2.332 -35.182  12.749  0.00  0.00    -0.029 A 
ATOM     35  C   UNL     1       2.876 -36.155  13.820  0.00  0.00    +0.045 C 
ENDROOT
BRANCH  10   9
ATOM      4  C   UNL     1       7.806 -35.037  11.286  0.00  0.00    +0.077 A 
ATOM      5  C   UNL     1       7.918 -33.713  11.827  0.00  0.00    +0.048 A 
ATOM      6  C   UNL     1       6.718 -33.034  12.134  0.00  0.00    +0.116 A 
ATOM      7  N   UNL     1       5.502 -33.643  11.912  0.00  0.00    -0.223 NA
ATOM      8  C   UNL     1       5.429 -34.921  11.387  0.00  0.00    +0.220 A 
ATOM      9  N   UNL     1       4.217 -35.555  11.163  0.00  0.00    -0.283 N 
ATOM     36  H   UNL     1       4.206 -36.495  10.768  0.00  0.00    +0.155 HD
ATOM     37  N   UNL     1       6.561 -35.590  11.085  0.00  0.00    -0.214 NA
BRANCH   4   3
ATOM      1  C   UNL     1      11.207 -36.248   9.780  0.00  0.00    +0.020 A 
ATOM      2  C   UNL     1      10.093 -35.389  10.110  0.00  0.00    +0.013 A 
ATOM      3  C   UNL     1       8.984 -35.884  10.915  0.00  0.00    +0.019 A 
ATOM     38  C   UNL     1       9.032 -37.264  11.374  0.00  0.00    +0.120 A 
ATOM     39  N   UNL     1      10.117 -38.069  11.039  0.00  0.00    -0.263 NA
ATOM     40  C   UNL     1      11.190 -37.603  10.264  0.00  0.00    +0.111 A 
ENDBRANCH   4   3
ENDBRANCH  10   9
BRANCH  12  13
ATOM     13  N   UNL     1       0.579 -32.414   9.880  0.00  0.00    -0.281 N 
ATOM     14  C   UNL     1       0.914 -31.091   9.642  0.00  0.00    +0.248 C 
ATOM     30  O   UNL     1       1.666 -30.431  10.344  0.00  0.00    -0.270 OA
ATOM     31  H   UNL     1      -0.202 -32.783   9.337  0.00  0.00    +0.155 HD
BRANCH  14  15
ATOM     15  C   UNL     1       0.316 -30.396   8.462  0.00  0.00    +0.037 A 
ATOM     16  C   UNL     1       0.318 -28.934   8.359  0.00  0.00    +0.013 A 
ATOM     17  C   UNL     1      -0.280 -28.288   7.218  0.00  0.00    +0.005 A 
ATOM     18  C   UNL     1      -0.885 -29.105   6.168  0.00  0.00    -0.033 A 
ATOM     28  C   UNL     1      -0.868 -30.553   6.293  0.00  0.00    +0.005 A 
ATOM     29  C   UNL     1      -0.283 -31.190   7.410  0.00  0.00    +0.013 A 
BRANCH  18  19
ATOM     19  C   UNL     1      -1.564 -28.501   4.925  0.00  0.00    +0.119 C 
BRANCH  19  20
ATOM     20  N   UNL     1      -0.736 -27.612   4.057  0.00  0.00    -0.302 NA
ATOM     21  C   UNL     1      -1.466 -27.224   2.768  0.00  0.00    +0.066 C 
ATOM     22  C   UNL     1      -0.594 -26.276   1.882  0.00  0.00    -0.064 C 
ATOM     23  N   UNL     1       0.737 -26.960   1.566  0.00  0.00    +0.379 N 
ATOM     24  C   UNL     1       1.536 -26.095   0.685  0.00  0.00    -0.096 C 
ATOM     25  H   UNL     1       0.510 -27.897   1.005  0.00  0.00    -0.082 HD
ATOM     26  C   UNL     1       1.469 -27.352   2.842  0.00  0.00    -0.064 C 
ATOM     27  C   UNL     1       0.582 -28.270   3.728  0.00  0.00    +0.066 C 
ENDBRANCH  19  20
ENDBRANCH  18  19
ENDBRANCH  14  15
ENDBRANCH  12  13
TORSDOF 6
ENDMDL
MODEL 5
REMARK VINA RESULT:      -9.7      4.495     11.770
REMARK  Name = C:\Users\Docking\Desktop\test protocol\1iep_ligandH.pdb
REMARK  8 active torsions:
REMARK  status: ('A' for Active; 'I' for Inactive)
REMARK    1  A    between atoms: _5  and  _11
REMARK    2  A    between atoms: _19  and  _21
REMARK    3  A    between atoms: _22  and  _66
REMARK    4  A    between atoms: _27  and  _30
REMARK    5  A    between atoms: _32  and  _33
REMARK    6  A    between atoms: _38  and  _43
REMARK    7  A    between atoms: _43  and  _46
REMARK    8  A    between atoms: _53  and  _55
REMARK                            x       y       z     vdW  Elec       q    Type
REMARK                         _______ _______ _______ _____ _____    ______ ____
ROOT
ATOM     10  C   UNL     1       5.580 -33.899  12.574  0.00  0.00    +0.038 A 
ATOM     11  C   UNL     1       4.874 -33.309  11.494  0.00  0.00    +0.047 A 
ATOM     12  C   UNL     1       3.488 -32.893  11.640  0.00  0.00    +0.035 A 
ATOM     32  C   UNL     1       2.852 -33.089  12.900  0.00  0.00    +0.024 A 
ATOM     33  C   UNL     1       3.554 -33.688  14.008  0.00  0.00    +0.007 A 
ATOM     34  C   UNL     1       4.921 -34.104  13.869  0.00  0.00    -0.029 A 
ATOM     35  C   UNL     1       5.623 -34.746  15.088  0.00  0.00    +0.045 C 
ENDROOT
BRANCH  10   9
ATOM      4  C   UNL     1       8.948 -36.562  10.428  0.00  0.00    +0.077 A 
ATOM      5  C   UNL     1       7.974 -37.273   9.650  0.00  0.00    +0.048 A 
ATOM      6  C   UNL     1       6.617 -36.928   9.837  0.00  0.00    +0.116 A 
ATOM      7  N   UNL     1       6.270 -35.944  10.737  0.00  0.00    -0.223 NA
ATOM      8  C   UNL     1       7.234 -35.279  11.473  0.00  0.00    +0.220 A 
ATOM      9  N   UNL     1       6.909 -34.280  12.378  0.00  0.00    -0.283 N 
ATOM     36  H   UNL     1       7.649 -33.819  12.907  0.00  0.00    +0.155 HD
ATOM     37  N   UNL     1       8.537 -35.591  11.314  0.00  0.00    -0.214 NA
BRANCH   4   3
ATOM      1  C   UNL     1      12.798 -36.053   9.961  0.00  0.00    +0.020 A 
ATOM      2  C   UNL     1      11.385 -35.761  10.033  0.00  0.00    +0.013 A 
ATOM      3  C   UNL     1      10.422 -36.810  10.341  0.00  0.00    +0.019 A 
ATOM     38  C   UNL     1      10.925 -38.156  10.572  0.00  0.00    +0.120 A 
ATOM     39  N   UNL     1      12.291 -38.408  10.495  0.00  0.00    -0.263 NA
ATOM     40  C   UNL     1      13.227 -37.406  10.198  0.00  0.00    +0.111 A 
ENDBRANCH   4   3
ENDBRANCH  10   9
BRANCH  12  13
ATOM     13  N   UNL     1       2.717 -32.296  10.577  0.00  0.00    -0.281 N 
ATOM     14  C   UNL     1       1.592 -32.806   9.950  0.00  0.00    +0.248 C 
ATOM     30  O   UNL     1       1.201 -33.958  10.063  0.00  0.00    -0.270 OA
ATOM     31  H   UNL     1       3.040 -31.386  10.247  0.00  0.00    +0.155 HD
BRANCH  14  15
ATOM     15  C   UNL     1       0.795 -31.912   9.057  0.00  0.00    +0.037 A 
ATOM     16  C   UNL     1       0.188 -32.416   7.822  0.00  0.00    +0.013 A 
ATOM     17  C   UNL     1      -0.562 -31.528   6.970  0.00  0.00    +0.005 A 
ATOM     18  C   UNL     1      -0.710 -30.125   7.351  0.00  0.00    -0.033 A 
ATOM     28  C   UNL     1      -0.102 -29.653   8.584  0.00  0.00    +0.005 A 
ATOM     29  C   UNL     1       0.635 -30.520   9.421  0.00  0.00    +0.013 A 
BRANCH  18  19
ATOM     19  C   UNL     1      -1.475 -29.102   6.491  0.00  0.00    +0.119 C 
BRANCH  19  20
ATOM     20  N   UNL     1      -0.684 -28.316   5.498  0.00  0.00    -0.302 NA
ATOM     21  C   UNL     1       0.016 -29.218   4.478  0.00  0.00    +0.066 C 
ATOM     22  C   UNL     1       0.821 -28.379   3.433  0.00  0.00    -0.064 C 
ATOM     23  N   UNL     1       1.836 -27.498   4.163  0.00  0.00    +0.379 N 
ATOM     24  C   UNL     1       2.633 -26.750   3.180  0.00  0.00    -0.096 C 
ATOM     25  H   UNL     1       2.528 -28.170   4.720  0.00  0.00    -0.082 HD
ATOM     26  C   UNL     1       1.148 -26.599   5.181  0.00  0.00    -0.064 C 
ATOM     27  C   UNL     1       0.328 -27.441   6.197  0.00  0.00    +0.066 C 
ENDBRANCH  19  20
ENDBRANCH  18  19
ENDBRANCH  14  15
ENDBRANCH  12  13
TORSDOF 6
ENDMDL
