MODEL 1
REMARK VINA RESULT:      -9.6      0.000      0.000
REMARK  Name = C:\Users\Docking\Desktop\test protocol\1iep_ligandH.pdb
REMARK  8 active torsions:
REMARK  status: ('A' for Active; 'I' for Inactive)
REMARK    1  A    between atoms: _5  and  _11
REMARK    2  A    between atoms: _19  and  _21
REMARK    3  A    between atoms: _22  and  _66
REMARK    4  A    between atoms: _27  and  _30
REMARK    5  A    between atoms: _32  and  _33
REMARK    6  A    between atoms: _38  and  _43
REMARK    7  A    between atoms: _43  and  _46
REMARK    8  A    between atoms: _53  and  _55
REMARK                            x       y       z     vdW  Elec       q    Type
REMARK                         _______ _______ _______ _____ _____    ______ ____
ROOT
ATOM     10  C   UNL     1      21.844  14.412  -2.184  0.00  0.00    +0.038 A 
ATOM     11  C   UNL     1      21.718  15.430  -1.206  0.00  0.00    +0.047 A 
ATOM     12  C   UNL     1      21.925  16.830  -1.545  0.00  0.00    +0.035 A 
ATOM     32  C   UNL     1      22.257  17.156  -2.892  0.00  0.00    +0.024 A 
ATOM     33  C   UNL     1      22.391  16.133  -3.899  0.00  0.00    +0.007 A 
ATOM     34  C   UNL     1      22.190  14.751  -3.570  0.00  0.00    -0.029 A 
ATOM     35  C   UNL     1      22.353  13.695  -4.688  0.00  0.00    +0.045 C 
ENDROOT
BRANCH  10   9
ATOM      4  C   UNL     1      19.069  10.518  -1.759  0.00  0.00    +0.077 A 
ATOM      5  C   UNL     1      17.934  11.193  -2.319  0.00  0.00    +0.048 A 
ATOM      6  C   UNL     1      18.104  12.544  -2.697  0.00  0.00    +0.116 A 
ATOM      7  N   UNL     1      19.323  13.163  -2.524  0.00  0.00    -0.223 NA
ATOM      8  C   UNL     1      20.397  12.484  -1.979  0.00  0.00    +0.220 A 
ATOM      9  N   UNL     1      21.634  13.084  -1.803  0.00  0.00    -0.283 N 
ATOM     36  H   UNL     1      22.399  12.551  -1.390  0.00  0.00    +0.155 HD
ATOM     37  N   UNL     1      20.260  11.194  -1.608  0.00  0.00    -0.214 NA
BRANCH   4   3
ATOM      1  C   UNL     1      18.584   7.282   0.385  0.00  0.00    +0.020 A 
ATOM      2  C   UNL     1      18.585   8.676   0.005  0.00  0.00    +0.013 A 
ATOM      3  C   UNL     1      19.048   9.089  -1.314  0.00  0.00    +0.019 A 
ATOM     38  C   UNL     1      19.508   8.058  -2.232  0.00  0.00    +0.120 A 
ATOM     39  N   UNL     1      19.497   6.723  -1.838  0.00  0.00    -0.263 NA
ATOM     40  C   UNL     1      19.055   6.315  -0.571  0.00  0.00    +0.111 A 
ENDBRANCH   4   3
ENDBRANCH  10   9
BRANCH  12  13
ATOM     13  N   UNL     1      21.818  17.907  -0.592  0.00  0.00    -0.281 N 
ATOM     14  C   UNL     1      22.808  18.787  -0.188  0.00  0.00    +0.248 C 
ATOM     30  O   UNL     1      23.998  18.647  -0.427  0.00  0.00    -0.270 OA
ATOM     31  H   UNL     1      20.901  18.036  -0.164  0.00  0.00    +0.155 HD
BRANCH  14  15
ATOM     15  C   UNL     1      22.422  19.991   0.610  0.00  0.00    +0.037 A 
ATOM     16  C   UNL     1      21.172  20.708   0.346  0.00  0.00    +0.013 A 
ATOM     17  C   UNL     1      20.831  21.877   1.119  0.00  0.00    +0.005 A 
ATOM     18  C   UNL     1      21.743  22.334   2.165  0.00  0.00    -0.033 A 
ATOM     28  C   UNL     1      22.974  21.600   2.409  0.00  0.00    +0.005 A 
ATOM     29  C   UNL     1      23.311  20.455   1.653  0.00  0.00    +0.013 A 
BRANCH  18  19
ATOM     19  C   UNL     1      21.471  23.583   3.024  0.00  0.00    +0.119 C 
BRANCH  19  20
ATOM     20  N   UNL     1      21.749  24.913   2.405  0.00  0.00    -0.302 NA
ATOM     21  C   UNL     1      23.049  25.530   2.930  0.00  0.00    +0.066 C 
ATOM     22  C   UNL     1      23.336  26.911   2.255  0.00  0.00    -0.064 C 
ATOM     23  N   UNL     1      22.153  27.850   2.498  0.00  0.00    +0.379 N 
ATOM     24  C   UNL     1      22.445  29.167   1.914  0.00  0.00    -0.096 C 
ATOM     25  H   UNL     1      22.048  27.984   3.600  0.00  0.00    -0.082 HD
ATOM     26  C   UNL     1      20.857  27.243   1.981  0.00  0.00    -0.064 C 
ATOM     27  C   UNL     1      20.596  25.858   2.636  0.00  0.00    +0.066 C 
ENDBRANCH  19  20
ENDBRANCH  18  19
ENDBRANCH  14  15
ENDBRANCH  12  13
TORSDOF 6
ENDMDL
MODEL 2
REMARK VINA RESULT:      -9.2      2.573     13.136
REMARK  Name = C:\Users\Docking\Desktop\test protocol\1iep_ligandH.pdb
REMARK  8 active torsions:
REMARK  status: ('A' for Active; 'I' for Inactive)
REMARK    1  A    between atoms: _5  and  _11
REMARK    2  A    between atoms: _19  and  _21
REMARK    3  A    between atoms: _22  and  _66
REMARK    4  A    between atoms: _27  and  _30
REMARK    5  A    between atoms: _32  and  _33
REMARK    6  A    between atoms: _38  and  _43
REMARK    7  A    between atoms: _43  and  _46
REMARK    8  A    between atoms: _53  and  _55
REMARK                            x       y       z     vdW  Elec       q    Type
REMARK                         _______ _______ _______ _____ _____    ______ ____
ROOT
ATOM     10  C   UNL     1      25.084  19.654   0.597  0.00  0.00    +0.038 A 
ATOM     11  C   UNL     1      24.356  18.481   0.273  0.00  0.00    +0.047 A 
ATOM     12  C   UNL     1      25.038  17.250  -0.095  0.00  0.00    +0.035 A 
ATOM     32  C   UNL     1      26.463  17.249  -0.120  0.00  0.00    +0.024 A 
ATOM     33  C   UNL     1      27.219  18.433   0.205  0.00  0.00    +0.007 A 
ATOM     34  C   UNL     1      26.552  19.650   0.567  0.00  0.00    -0.029 A 
ATOM     35  C   UNL     1      27.412  20.891   0.900  0.00  0.00    +0.045 C 
ENDROOT
BRANCH  10   9
ATOM      4  C   UNL     1      22.186  23.326  -0.478  0.00  0.00    +0.077 A 
ATOM      5  C   UNL     1      22.092  22.926  -1.853  0.00  0.00    +0.048 A 
ATOM      6  C   UNL     1      22.811  21.774  -2.244  0.00  0.00    +0.116 A 
ATOM      7  N   UNL     1      23.563  21.081  -1.321  0.00  0.00    -0.223 NA
ATOM      8  C   UNL     1      23.634  21.495  -0.003  0.00  0.00    +0.220 A 
ATOM      9  N   UNL     1      24.378  20.808   0.944  0.00  0.00    -0.283 N 
ATOM     36  H   UNL     1      24.410  21.150   1.904  0.00  0.00    +0.155 HD
ATOM     37  N   UNL     1      22.958  22.592   0.395  0.00  0.00    -0.214 NA
BRANCH   4   3
ATOM      1  C   UNL     1      21.409  26.614   1.493  0.00  0.00    +0.020 A 
ATOM      2  C   UNL     1      22.134  25.478   0.973  0.00  0.00    +0.013 A 
ATOM      3  C   UNL     1      21.482  24.519   0.089  0.00  0.00    +0.019 A 
ATOM     38  C   UNL     1      20.085  24.742  -0.253  0.00  0.00    +0.120 A 
ATOM     39  N   UNL     1      19.412  25.845   0.264  0.00  0.00    -0.263 NA
ATOM     40  C   UNL     1      20.028  26.773   1.117  0.00  0.00    +0.111 A 
ENDBRANCH   4   3
ENDBRANCH  10   9
BRANCH  12  13
ATOM     13  N   UNL     1      24.352  16.030  -0.442  0.00  0.00    -0.281 N 
ATOM     14  C   UNL     1      23.168  15.889  -1.146  0.00  0.00    +0.248 C 
ATOM     30  O   UNL     1      22.403  16.808  -1.401  0.00  0.00    -0.270 OA
ATOM     31  H   UNL     1      24.794  15.164  -0.131  0.00  0.00    +0.155 HD
BRANCH  14  15
ATOM     15  C   UNL     1      22.768  14.531  -1.623  0.00  0.00    +0.037 A 
ATOM     16  C   UNL     1      23.727  13.424  -1.656  0.00  0.00    +0.013 A 
ATOM     17  C   UNL     1      23.320  12.128  -2.137  0.00  0.00    +0.005 A 
ATOM     18  C   UNL     1      21.944  11.931  -2.587  0.00  0.00    -0.033 A 
ATOM     28  C   UNL     1      21.011  13.044  -2.538  0.00  0.00    +0.005 A 
ATOM     29  C   UNL     1      21.407  14.317  -2.069  0.00  0.00    +0.013 A 
BRANCH  18  19
ATOM     19  C   UNL     1      21.427  10.587  -3.135  0.00  0.00    +0.119 C 
BRANCH  19  20
ATOM     20  N   UNL     1      20.408   9.862  -2.319  0.00  0.00    -0.302 NA
ATOM     21  C   UNL     1      20.699   9.959  -0.818  0.00  0.00    +0.066 C 
ATOM     22  C   UNL     1      19.611   9.214   0.022  0.00  0.00    -0.064 C 
ATOM     23  N   UNL     1      19.540   7.752  -0.423  0.00  0.00    +0.379 N 
ATOM     24  C   UNL     1      18.559   7.035   0.405  0.00  0.00    -0.096 C 
ATOM     25  H   UNL     1      20.539   7.294  -0.237  0.00  0.00    -0.082 HD
ATOM     26  C   UNL     1      19.254   7.647  -1.914  0.00  0.00    -0.064 C 
ATOM     27  C   UNL     1      20.325   8.415  -2.738  0.00  0.00    +0.066 C 
ENDBRANCH  19  20
ENDBRANCH  18  19
ENDBRANCH  14  15
ENDBRANCH  12  13
TORSDOF 6
ENDMDL
MODEL 3
REMARK VINA RESULT:      -8.9     19.421     23.472
REMARK  Name = C:\Users\Docking\Desktop\test protocol\1iep_ligandH.pdb
REMARK  8 active torsions:
REMARK  status: ('A' for Active; 'I' for Inactive)
REMARK    1  A    between atoms: _5  and  _11
REMARK    2  A    between atoms: _19  and  _21
REMARK    3  A    between atoms: _22  and  _66
REMARK    4  A    between atoms: _27  and  _30
REMARK    5  A    between atoms: _32  and  _33
REMARK    6  A    between atoms: _38  and  _43
REMARK    7  A    between atoms: _43  and  _46
REMARK    8  A    between atoms: _53  and  _55
REMARK                            x       y       z     vdW  Elec       q    Type
REMARK                         _______ _______ _______ _____ _____    ______ ____
ROOT
ATOM     10  C   UNL     1      15.384   5.744  16.817  0.00  0.00    +0.038 A 
ATOM     11  C   UNL     1      14.416   6.109  15.847  0.00  0.00    +0.047 A 
ATOM     12  C   UNL     1      14.002   5.176  14.810  0.00  0.00    +0.035 A 
ATOM     32  C   UNL     1      14.593   3.879  14.792  0.00  0.00    +0.024 A 
ATOM     33  C   UNL     1      15.579   3.493  15.770  0.00  0.00    +0.007 A 
ATOM     34  C   UNL     1      15.994   4.409  16.794  0.00  0.00    -0.029 A 
ATOM     35  C   UNL     1      17.060   3.942  17.812  0.00  0.00    +0.045 C 
ENDROOT
BRANCH  10   9
ATOM      4  C   UNL     1      14.705   7.947  21.027  0.00  0.00    +0.077 A 
ATOM      5  C   UNL     1      13.516   7.191  21.298  0.00  0.00    +0.048 A 
ATOM      6  C   UNL     1      13.109   6.251  20.325  0.00  0.00    +0.116 A 
ATOM      7  N   UNL     1      13.845   6.086  19.171  0.00  0.00    -0.223 NA
ATOM      8  C   UNL     1      14.986   6.833  18.940  0.00  0.00    +0.220 A 
ATOM      9  N   UNL     1      15.745   6.679  17.791  0.00  0.00    -0.283 N 
ATOM     36  H   UNL     1      16.576   7.254  17.654  0.00  0.00    +0.155 HD
ATOM     37  N   UNL     1      15.394   7.739  19.853  0.00  0.00    -0.214 NA
BRANCH   4   3
ATOM      1  C   UNL     1      15.163  11.188  23.169  0.00  0.00    +0.020 A 
ATOM      2  C   UNL     1      14.580  10.227  22.261  0.00  0.00    +0.013 A 
ATOM      3  C   UNL     1      15.264   8.976  21.960  0.00  0.00    +0.019 A 
ATOM     38  C   UNL     1      16.547   8.725  22.599  0.00  0.00    +0.120 A 
ATOM     39  N   UNL     1      17.085   9.669  23.469  0.00  0.00    -0.263 NA
ATOM     40  C   UNL     1      16.436  10.877  23.765  0.00  0.00    +0.111 A 
ENDBRANCH   4   3
ENDBRANCH  10   9
BRANCH  12  13
ATOM     13  N   UNL     1      13.029   5.493  13.794  0.00  0.00    -0.281 N 
ATOM     14  C   UNL     1      11.869   6.238  13.928  0.00  0.00    +0.248 C 
ATOM     30  O   UNL     1      11.380   6.569  14.998  0.00  0.00    -0.270 OA
ATOM     31  H   UNL     1      13.219   5.123  12.862  0.00  0.00    +0.155 HD
BRANCH  14  15
ATOM     15  C   UNL     1      11.140   6.666  12.696  0.00  0.00    +0.037 A 
ATOM     16  C   UNL     1      11.754   6.552  11.370  0.00  0.00    +0.013 A 
ATOM     17  C   UNL     1      11.035   6.988  10.200  0.00  0.00    +0.005 A 
ATOM     18  C   UNL     1       9.691   7.542  10.350  0.00  0.00    -0.033 A 
ATOM     28  C   UNL     1       9.104   7.639  11.676  0.00  0.00    +0.005 A 
ATOM     29  C   UNL     1       9.806   7.214  12.826  0.00  0.00    +0.013 A 
BRANCH  18  19
ATOM     19  C   UNL     1       8.859   8.051   9.158  0.00  0.00    +0.119 C 
BRANCH  19  20
ATOM     20  N   UNL     1       7.545   7.387   8.908  0.00  0.00    -0.302 NA
ATOM     21  C   UNL     1       7.713   5.950   8.409  0.00  0.00    +0.066 C 
ATOM     22  C   UNL     1       6.329   5.262   8.174  0.00  0.00    -0.064 C 
ATOM     23  N   UNL     1       5.515   6.089   7.178  0.00  0.00    +0.379 N 
ATOM     24  C   UNL     1       4.236   5.416   6.911  0.00  0.00    -0.096 C 
ATOM     25  H   UNL     1       6.086   6.124   6.221  0.00  0.00    -0.082 HD
ATOM     26  C   UNL     1       5.344   7.521   7.665  0.00  0.00    -0.064 C 
ATOM     27  C   UNL     1       6.726   8.185   7.924  0.00  0.00    +0.066 C 
ENDBRANCH  19  20
ENDBRANCH  18  19
ENDBRANCH  14  15
ENDBRANCH  12  13
TORSDOF 6
ENDMDL
MODEL 4
REMARK VINA RESULT:      -8.9      4.524      5.371
REMARK  Name = C:\Users\Docking\Desktop\test protocol\1iep_ligandH.pdb
REMARK  8 active torsions:
REMARK  status: ('A' for Active; 'I' for Inactive)
REMARK    1  A    between atoms: _5  and  _11
REMARK    2  A    between atoms: _19  and  _21
REMARK    3  A    between atoms: _22  and  _66
REMARK    4  A    between atoms: _27  and  _30
REMARK    5  A    between atoms: _32  and  _33
REMARK    6  A    between atoms: _38  and  _43
REMARK    7  A    between atoms: _43  and  _46
REMARK    8  A    between atoms: _53  and  _55
REMARK                            x       y       z     vdW  Elec       q    Type
REMARK                         _______ _______ _______ _____ _____    ______ ____
ROOT
ATOM     10  C   UNL     1      21.731  14.526  -1.121  0.00  0.00    +0.038 A 
ATOM     11  C   UNL     1      22.044  14.869   0.219  0.00  0.00    +0.047 A 
ATOM     12  C   UNL     1      22.889  16.013   0.525  0.00  0.00    +0.035 A 
ATOM     32  C   UNL     1      23.397  16.787  -0.558  0.00  0.00    +0.024 A 
ATOM     33  C   UNL     1      23.090  16.452  -1.927  0.00  0.00    +0.007 A 
ATOM     34  C   UNL     1      22.258  15.323  -2.235  0.00  0.00    -0.029 A 
ATOM     35  C   UNL     1      21.967  15.007  -3.720  0.00  0.00    +0.045 C 
ENDROOT
BRANCH  10   9
ATOM      4  C   UNL     1      20.980   9.790  -1.330  0.00  0.00    +0.077 A 
ATOM      5  C   UNL     1      22.336   9.499  -0.964  0.00  0.00    +0.048 A 
ATOM      6  C   UNL     1      23.197  10.597  -0.737  0.00  0.00    +0.116 A 
ATOM      7  N   UNL     1      22.726  11.885  -0.869  0.00  0.00    -0.223 NA
ATOM      8  C   UNL     1      21.412  12.130  -1.226  0.00  0.00    +0.220 A 
ATOM      9  N   UNL     1      20.915  13.418  -1.357  0.00  0.00    -0.283 N 
ATOM     36  H   UNL     1      19.942  13.557  -1.629  0.00  0.00    +0.155 HD
ATOM     37  N   UNL     1      20.571  11.099  -1.449  0.00  0.00    -0.214 NA
BRANCH   4   3
ATOM      1  C   UNL     1      18.948   6.449  -1.253  0.00  0.00    +0.020 A 
ATOM      2  C   UNL     1      19.967   7.429  -0.958  0.00  0.00    +0.013 A 
ATOM      3  C   UNL     1      19.950   8.738  -1.599  0.00  0.00    +0.019 A 
ATOM     38  C   UNL     1      18.878   9.025  -2.541  0.00  0.00    +0.120 A 
ATOM     39  N   UNL     1      17.911   8.061  -2.806  0.00  0.00    -0.263 NA
ATOM     40  C   UNL     1      17.918   6.798  -2.196  0.00  0.00    +0.111 A 
ENDBRANCH   4   3
ENDBRANCH  10   9
BRANCH  12  13
ATOM     13  N   UNL     1      23.248  16.405   1.866  0.00  0.00    -0.281 N 
ATOM     14  C   UNL     1      24.514  16.647   2.373  0.00  0.00    +0.248 C 
ATOM     30  O   UNL     1      25.554  16.355   1.802  0.00  0.00    -0.270 OA
ATOM     31  H   UNL     1      22.474  16.517   2.521  0.00  0.00    +0.155 HD
BRANCH  14  15
ATOM     15  C   UNL     1      24.644  17.295   3.713  0.00  0.00    +0.037 A 
ATOM     16  C   UNL     1      25.127  18.672   3.848  0.00  0.00    +0.013 A 
ATOM     17  C   UNL     1      25.258  19.267   5.155  0.00  0.00    +0.005 A 
ATOM     18  C   UNL     1      24.904  18.485   6.337  0.00  0.00    -0.033 A 
ATOM     28  C   UNL     1      24.423  17.123   6.174  0.00  0.00    +0.005 A 
ATOM     29  C   UNL     1      24.293  16.536   4.895  0.00  0.00    +0.013 A 
BRANCH  18  19
ATOM     19  C   UNL     1      25.033  19.032   7.771  0.00  0.00    +0.119 C 
BRANCH  19  20
ATOM     20  N   UNL     1      23.804  19.604   8.398  0.00  0.00    -0.302 NA
ATOM     21  C   UNL     1      23.582  21.065   7.999  0.00  0.00    +0.066 C 
ATOM     22  C   UNL     1      22.280  21.640   8.645  0.00  0.00    -0.064 C 
ATOM     23  N   UNL     1      22.365  21.501  10.166  0.00  0.00    +0.379 N 
ATOM     24  C   UNL     1      21.168  22.094  10.781  0.00  0.00    -0.096 C 
ATOM     25  H   UNL     1      23.248  22.089  10.510  0.00  0.00    -0.082 HD
ATOM     26  C   UNL     1      22.589  20.051  10.572  0.00  0.00    -0.064 C 
ATOM     27  C   UNL     1      23.869  19.481   9.900  0.00  0.00    +0.066 C 
ENDBRANCH  19  20
ENDBRANCH  18  19
ENDBRANCH  14  15
ENDBRANCH  12  13
TORSDOF 6
ENDMDL
MODEL 5
REMARK VINA RESULT:      -8.4     23.037     26.935
REMARK  Name = C:\Users\Docking\Desktop\test protocol\1iep_ligandH.pdb
REMARK  8 active torsions:
REMARK  status: ('A' for Active; 'I' for Inactive)
REMARK    1  A    between atoms: _5  and  _11
REMARK    2  A    between atoms: _19  and  _21
REMARK    3  A    between atoms: _22  and  _66
REMARK    4  A    between atoms: _27  and  _30
REMARK    5  A    between atoms: _32  and  _33
REMARK    6  A    between atoms: _38  and  _43
REMARK    7  A    between atoms: _43  and  _46
REMARK    8  A    between atoms: _53  and  _55
REMARK                            x       y       z     vdW  Elec       q    Type
REMARK                         _______ _______ _______ _____ _____    ______ ____
ROOT
ATOM     10  C   UNL     1      15.705  -3.932   8.132  0.00  0.00    +0.038 A 
ATOM     11  C   UNL     1      16.652  -4.904   7.719  0.00  0.00    +0.047 A 
ATOM     12  C   UNL     1      17.574  -5.508   8.669  0.00  0.00    +0.035 A 
ATOM     32  C   UNL     1      17.501  -5.100  10.033  0.00  0.00    +0.024 A 
ATOM     33  C   UNL     1      16.545  -4.112  10.469  0.00  0.00    +0.007 A 
ATOM     34  C   UNL     1      15.635  -3.512   9.536  0.00  0.00    -0.029 A 
ATOM     35  C   UNL     1      14.636  -2.454  10.059  0.00  0.00    +0.045 C 
ENDROOT
BRANCH  10   9
ATOM      4  C   UNL     1      12.041  -4.269   5.050  0.00  0.00    +0.077 A 
ATOM      5  C   UNL     1      11.841  -5.658   5.347  0.00  0.00    +0.048 A 
ATOM      6  C   UNL     1      12.708  -6.250   6.293  0.00  0.00    +0.116 A 
ATOM      7  N   UNL     1      13.696  -5.499   6.892  0.00  0.00    -0.223 NA
ATOM      8  C   UNL     1      13.862  -4.162   6.581  0.00  0.00    +0.220 A 
ATOM      9  N   UNL     1      14.845  -3.386   7.177  0.00  0.00    -0.283 N 
ATOM     36  H   UNL     1      14.940  -2.405   6.915  0.00  0.00    +0.155 HD
ATOM     37  N   UNL     1      13.049  -3.574   5.680  0.00  0.00    -0.214 NA
BRANCH   4   3
ATOM      1  C   UNL     1      10.507  -1.369   2.920  0.00  0.00    +0.020 A 
ATOM      2  C   UNL     1      11.339  -2.063   3.875  0.00  0.00    +0.013 A 
ATOM      3  C   UNL     1      11.205  -3.501   4.074  0.00  0.00    +0.019 A 
ATOM     38  C   UNL     1      10.211  -4.212   3.284  0.00  0.00    +0.120 A 
ATOM     39  N   UNL     1       9.423  -3.517   2.372  0.00  0.00    -0.263 NA
ATOM     40  C   UNL     1       9.542  -2.133   2.173  0.00  0.00    +0.111 A 
ENDBRANCH   4   3
ENDBRANCH  10   9
BRANCH  12  13
ATOM     13  N   UNL     1      18.562  -6.493   8.308  0.00  0.00    -0.281 N 
ATOM     14  C   UNL     1      18.354  -7.813   7.942  0.00  0.00    +0.248 C 
ATOM     30  O   UNL     1      17.296  -8.410   8.077  0.00  0.00    -0.270 OA
ATOM     31  H   UNL     1      19.533  -6.180   8.323  0.00  0.00    +0.155 HD
BRANCH  14  15
ATOM     15  C   UNL     1      19.490  -8.587   7.353  0.00  0.00    +0.037 A 
ATOM     16  C   UNL     1      20.343  -9.437   8.188  0.00  0.00    +0.013 A 
ATOM     17  C   UNL     1      21.442 -10.159   7.598  0.00  0.00    +0.005 A 
ATOM     18  C   UNL     1      21.693 -10.035   6.164  0.00  0.00    -0.033 A 
ATOM     28  C   UNL     1      20.828  -9.188   5.359  0.00  0.00    +0.005 A 
ATOM     29  C   UNL     1      19.751  -8.478   5.934  0.00  0.00    +0.013 A 
BRANCH  18  19
ATOM     19  C   UNL     1      22.857 -10.752   5.453  0.00  0.00    +0.119 C 
BRANCH  19  20
ATOM     20  N   UNL     1      23.380 -10.130   4.201  0.00  0.00    -0.302 NA
ATOM     21  C   UNL     1      23.394 -11.118   3.031  0.00  0.00    +0.066 C 
ATOM     22  C   UNL     1      23.924 -10.445   1.723  0.00  0.00    -0.064 C 
ATOM     23  N   UNL     1      25.324  -9.882   1.974  0.00  0.00    +0.379 N 
ATOM     24  C   UNL     1      25.849  -9.299   0.730  0.00  0.00    -0.096 C 
ATOM     25  H   UNL     1      25.986 -10.734   2.253  0.00  0.00    -0.082 HD
ATOM     26  C   UNL     1      25.320  -8.900   3.137  0.00  0.00    -0.064 C 
ATOM     27  C   UNL     1      24.764  -9.571   4.424  0.00  0.00    +0.066 C 
ENDBRANCH  19  20
ENDBRANCH  18  19
ENDBRANCH  14  15
ENDBRANCH  12  13
TORSDOF 6
ENDMDL
