MODEL 1
REMARK VINA RESULT:      -9.4      0.000      0.000
REMARK  Name = C:\Users\Docking\Desktop\test protocol\1iep_ligandH.pdb
REMARK  8 active torsions:
REMARK  status: ('A' for Active; 'I' for Inactive)
REMARK    1  A    between atoms: _5  and  _11
REMARK    2  A    between atoms: _19  and  _21
REMARK    3  A    between atoms: _22  and  _66
REMARK    4  A    between atoms: _27  and  _30
REMARK    5  A    between atoms: _32  and  _33
REMARK    6  A    between atoms: _38  and  _43
REMARK    7  A    between atoms: _43  and  _46
REMARK    8  A    between atoms: _53  and  _55
REMARK                            x       y       z     vdW  Elec       q    Type
REMARK                         _______ _______ _______ _____ _____    ______ ____
ROOT
ATOM     10  C   UNL     1      10.225  25.944  20.116  0.00  0.00    +0.038 A 
ATOM     11  C   UNL     1       9.657  27.189  19.745  0.00  0.00    +0.047 A 
ATOM     12  C   UNL     1       8.534  27.753  20.478  0.00  0.00    +0.035 A 
ATOM     32  C   UNL     1       8.015  27.022  21.586  0.00  0.00    +0.024 A 
ATOM     33  C   UNL     1       8.580  25.754  21.977  0.00  0.00    +0.007 A 
ATOM     34  C   UNL     1       9.686  25.192  21.256  0.00  0.00    -0.029 A 
ATOM     35  C   UNL     1      10.247  23.826  21.716  0.00  0.00    +0.045 C 
ENDROOT
BRANCH  10   9
ATOM      4  C   UNL     1      12.146  22.863  16.977  0.00  0.00    +0.077 A 
ATOM      5  C   UNL     1      10.905  22.162  16.815  0.00  0.00    +0.048 A 
ATOM      6  C   UNL     1       9.798  22.622  17.563  0.00  0.00    +0.116 A 
ATOM      7  N   UNL     1       9.933  23.703  18.407  0.00  0.00    -0.223 NA
ATOM      8  C   UNL     1      11.145  24.355  18.541  0.00  0.00    +0.220 A 
ATOM      9  N   UNL     1      11.302  25.450  19.377  0.00  0.00    -0.283 N 
ATOM     36  H   UNL     1      12.214  25.899  19.454  0.00  0.00    +0.155 HD
ATOM     37  N   UNL     1      12.217  23.935  17.838  0.00  0.00    -0.214 NA
BRANCH   4   3
ATOM      1  C   UNL     1      14.681  21.854  14.174  0.00  0.00    +0.020 A 
ATOM      2  C   UNL     1      13.439  22.199  14.826  0.00  0.00    +0.013 A 
ATOM      3  C   UNL     1      13.404  22.500  16.252  0.00  0.00    +0.019 A 
ATOM     38  C   UNL     1      14.654  22.443  16.995  0.00  0.00    +0.120 A 
ATOM     39  N   UNL     1      15.835  22.106  16.341  0.00  0.00    -0.263 NA
ATOM     40  C   UNL     1      15.880  21.813  14.970  0.00  0.00    +0.111 A 
ENDBRANCH   4   3
ENDBRANCH  10   9
BRANCH  12  13
ATOM     13  N   UNL     1       7.910  29.009  20.142  0.00  0.00    -0.281 N 
ATOM     14  C   UNL     1       7.942  30.194  20.858  0.00  0.00    +0.248 C 
ATOM     30  O   UNL     1       8.337  30.294  22.011  0.00  0.00    -0.270 OA
ATOM     31  H   UNL     1       7.381  29.026  19.270  0.00  0.00    +0.155 HD
BRANCH  14  15
ATOM     15  C   UNL     1       7.452  31.446  20.206  0.00  0.00    +0.037 A 
ATOM     16  C   UNL     1       8.381  32.494  19.777  0.00  0.00    +0.013 A 
ATOM     17  C   UNL     1       7.880  33.699  19.166  0.00  0.00    +0.005 A 
ATOM     18  C   UNL     1       6.441  33.862  18.978  0.00  0.00    -0.033 A 
ATOM     28  C   UNL     1       5.541  32.804  19.407  0.00  0.00    +0.005 A 
ATOM     29  C   UNL     1       6.029  31.622  20.008  0.00  0.00    +0.013 A 
BRANCH  18  19
ATOM     19  C   UNL     1       5.816  35.124  18.353  0.00  0.00    +0.119 C 
BRANCH  19  20
ATOM     20  N   UNL     1       5.681  36.325  19.230  0.00  0.00    -0.302 NA
ATOM     21  C   UNL     1       4.596  36.141  20.294  0.00  0.00    +0.066 C 
ATOM     22  C   UNL     1       4.484  37.398  21.216  0.00  0.00    -0.064 C 
ATOM     23  N   UNL     1       4.198  38.633  20.359  0.00  0.00    +0.379 N 
ATOM     24  C   UNL     1       4.034  39.807  21.228  0.00  0.00    -0.096 C 
ATOM     25  H   UNL     1       3.229  38.462  19.834  0.00  0.00    -0.082 HD
ATOM     26  C   UNL     1       5.271  38.822  19.296  0.00  0.00    -0.064 C 
ATOM     27  C   UNL     1       5.394  37.555  18.404  0.00  0.00    +0.066 C 
ENDBRANCH  19  20
ENDBRANCH  18  19
ENDBRANCH  14  15
ENDBRANCH  12  13
TORSDOF 6
ENDMDL
MODEL 2
REMARK VINA RESULT:      -9.2      3.524     12.867
REMARK  Name = C:\Users\Docking\Desktop\test protocol\1iep_ligandH.pdb
REMARK  8 active torsions:
REMARK  status: ('A' for Active; 'I' for Inactive)
REMARK    1  A    between atoms: _5  and  _11
REMARK    2  A    between atoms: _19  and  _21
REMARK    3  A    between atoms: _22  and  _66
REMARK    4  A    between atoms: _27  and  _30
REMARK    5  A    between atoms: _32  and  _33
REMARK    6  A    between atoms: _38  and  _43
REMARK    7  A    between atoms: _43  and  _46
REMARK    8  A    between atoms: _53  and  _55
REMARK                            x       y       z     vdW  Elec       q    Type
REMARK                         _______ _______ _______ _____ _____    ______ ____
ROOT
ATOM     10  C   UNL     1       9.275  25.390  19.077  0.00  0.00    +0.038 A 
ATOM     11  C   UNL     1      10.591  25.135  18.612  0.00  0.00    +0.047 A 
ATOM     12  C   UNL     1      11.152  23.794  18.639  0.00  0.00    +0.035 A 
ATOM     32  C   UNL     1      10.345  22.734  19.145  0.00  0.00    +0.024 A 
ATOM     33  C   UNL     1       9.007  22.975  19.624  0.00  0.00    +0.007 A 
ATOM     34  C   UNL     1       8.448  24.296  19.601  0.00  0.00    -0.029 A 
ATOM     35  C   UNL     1       7.010  24.497  20.133  0.00  0.00    +0.045 C 
ENDROOT
BRANCH  10   9
ATOM      4  C   UNL     1       8.235  29.601  21.133  0.00  0.00    +0.077 A 
ATOM      5  C   UNL     1       8.679  29.149  22.420  0.00  0.00    +0.048 A 
ATOM      6  C   UNL     1       9.161  27.824  22.512  0.00  0.00    +0.116 A 
ATOM      7  N   UNL     1       9.193  27.020  21.394  0.00  0.00    -0.223 NA
ATOM      8  C   UNL     1       8.756  27.486  20.167  0.00  0.00    +0.220 A 
ATOM      9  N   UNL     1       8.786  26.697  19.028  0.00  0.00    -0.283 N 
ATOM     36  H   UNL     1       8.448  27.075  18.143  0.00  0.00    +0.155 HD
ATOM     37  N   UNL     1       8.290  28.747  20.054  0.00  0.00    -0.214 NA
BRANCH   4   3
ATOM      1  C   UNL     1       6.159  32.907  21.378  0.00  0.00    +0.020 A 
ATOM      2  C   UNL     1       6.637  31.575  21.669  0.00  0.00    +0.013 A 
ATOM      3  C   UNL     1       7.702  30.976  20.874  0.00  0.00    +0.019 A 
ATOM     38  C   UNL     1       8.267  31.757  19.784  0.00  0.00    +0.120 A 
ATOM     39  N   UNL     1       7.785  33.037  19.527  0.00  0.00    -0.263 NA
ATOM     40  C   UNL     1       6.760  33.623  20.283  0.00  0.00    +0.111 A 
ENDBRANCH   4   3
ENDBRANCH  10   9
BRANCH  12  13
ATOM     13  N   UNL     1      12.484  23.477  18.187  0.00  0.00    -0.281 N 
ATOM     14  C   UNL     1      12.859  22.866  17.001  0.00  0.00    +0.248 C 
ATOM     30  O   UNL     1      12.086  22.304  16.239  0.00  0.00    -0.270 OA
ATOM     31  H   UNL     1      13.244  23.733  18.818  0.00  0.00    +0.155 HD
BRANCH  14  15
ATOM     15  C   UNL     1      14.302  22.868  16.612  0.00  0.00    +0.037 A 
ATOM     16  C   UNL     1      15.341  23.299  17.550  0.00  0.00    +0.013 A 
ATOM     17  C   UNL     1      16.724  23.307  17.144  0.00  0.00    +0.005 A 
ATOM     18  C   UNL     1      17.076  22.881  15.792  0.00  0.00    -0.033 A 
ATOM     28  C   UNL     1      16.025  22.453  14.883  0.00  0.00    +0.005 A 
ATOM     29  C   UNL     1      14.668  22.445  15.277  0.00  0.00    +0.013 A 
BRANCH  18  19
ATOM     19  C   UNL     1      18.523  22.877  15.265  0.00  0.00    +0.119 C 
BRANCH  19  20
ATOM     20  N   UNL     1      19.301  24.145  15.396  0.00  0.00    -0.302 NA
ATOM     21  C   UNL     1      18.482  25.368  14.971  0.00  0.00    +0.066 C 
ATOM     22  C   UNL     1      19.304  26.688  15.135  0.00  0.00    -0.064 C 
ATOM     23  N   UNL     1      20.592  26.588  14.317  0.00  0.00    +0.379 N 
ATOM     24  C   UNL     1      21.339  27.850  14.422  0.00  0.00    -0.096 C 
ATOM     25  H   UNL     1      20.304  26.454  13.248  0.00  0.00    -0.082 HD
ATOM     26  C   UNL     1      21.411  25.374  14.730  0.00  0.00    -0.064 C 
ATOM     27  C   UNL     1      20.576  24.070  14.592  0.00  0.00    +0.066 C 
ENDBRANCH  19  20
ENDBRANCH  18  19
ENDBRANCH  14  15
ENDBRANCH  12  13
TORSDOF 6
ENDMDL
MODEL 3
REMARK VINA RESULT:      -9.0      3.237     14.062
REMARK  Name = C:\Users\Docking\Desktop\test protocol\1iep_ligandH.pdb
REMARK  8 active torsions:
REMARK  status: ('A' for Active; 'I' for Inactive)
REMARK    1  A    between atoms: _5  and  _11
REMARK    2  A    between atoms: _19  and  _21
REMARK    3  A    between atoms: _22  and  _66
REMARK    4  A    between atoms: _27  and  _30
REMARK    5  A    between atoms: _32  and  _33
REMARK    6  A    between atoms: _38  and  _43
REMARK    7  A    between atoms: _43  and  _46
REMARK    8  A    between atoms: _53  and  _55
REMARK                            x       y       z     vdW  Elec       q    Type
REMARK                         _______ _______ _______ _____ _____    ______ ____
ROOT
ATOM     10  C   UNL     1       9.376  25.323  19.121  0.00  0.00    +0.038 A 
ATOM     11  C   UNL     1      10.671  25.091  18.591  0.00  0.00    +0.047 A 
ATOM     12  C   UNL     1      11.272  23.767  18.625  0.00  0.00    +0.035 A 
ATOM     32  C   UNL     1      10.524  22.701  19.205  0.00  0.00    +0.024 A 
ATOM     33  C   UNL     1       9.207  22.919  19.749  0.00  0.00    +0.007 A 
ATOM     34  C   UNL     1       8.610  24.224  19.720  0.00  0.00    -0.029 A 
ATOM     35  C   UNL     1       7.198  24.401  20.324  0.00  0.00    +0.045 C 
ENDROOT
BRANCH  10   9
ATOM      4  C   UNL     1       8.253  29.534  21.132  0.00  0.00    +0.077 A 
ATOM      5  C   UNL     1       8.736  29.116  22.416  0.00  0.00    +0.048 A 
ATOM      6  C   UNL     1       9.259  27.808  22.519  0.00  0.00    +0.116 A 
ATOM      7  N   UNL     1       9.292  26.987  21.413  0.00  0.00    -0.223 NA
ATOM      8  C   UNL     1       8.816  27.420  20.189  0.00  0.00    +0.220 A 
ATOM      9  N   UNL     1       8.847  26.615  19.061  0.00  0.00    -0.283 N 
ATOM     36  H   UNL     1       8.480  26.969  18.178  0.00  0.00    +0.155 HD
ATOM     37  N   UNL     1       8.310  28.665  20.065  0.00  0.00    -0.214 NA
BRANCH   4   3
ATOM      1  C   UNL     1       6.056  32.763  21.342  0.00  0.00    +0.020 A 
ATOM      2  C   UNL     1       6.578  31.450  21.642  0.00  0.00    +0.013 A 
ATOM      3  C   UNL     1       7.674  30.888  20.863  0.00  0.00    +0.019 A 
ATOM     38  C   UNL     1       8.224  31.688  19.779  0.00  0.00    +0.120 A 
ATOM     39  N   UNL     1       7.700  32.949  19.512  0.00  0.00    -0.263 NA
ATOM     40  C   UNL     1       6.644  33.499  20.254  0.00  0.00    +0.111 A 
ENDBRANCH   4   3
ENDBRANCH  10   9
BRANCH  12  13
ATOM     13  N   UNL     1      12.586  23.473  18.110  0.00  0.00    -0.281 N 
ATOM     14  C   UNL     1      12.916  22.924  16.881  0.00  0.00    +0.248 C 
ATOM     30  O   UNL     1      12.115  22.403  16.120  0.00  0.00    -0.270 OA
ATOM     31  H   UNL     1      13.368  23.696  18.726  0.00  0.00    +0.155 HD
BRANCH  14  15
ATOM     15  C   UNL     1      14.344  22.945  16.442  0.00  0.00    +0.037 A 
ATOM     16  C   UNL     1      15.398  23.479  17.308  0.00  0.00    +0.013 A 
ATOM     17  C   UNL     1      16.766  23.504  16.852  0.00  0.00    +0.005 A 
ATOM     18  C   UNL     1      17.087  22.990  15.522  0.00  0.00    -0.033 A 
ATOM     28  C   UNL     1      16.022  22.461  14.686  0.00  0.00    +0.005 A 
ATOM     29  C   UNL     1      14.681  22.436  15.129  0.00  0.00    +0.013 A 
BRANCH  18  19
ATOM     19  C   UNL     1      18.515  22.996  14.946  0.00  0.00    +0.119 C 
BRANCH  19  20
ATOM     20  N   UNL     1      18.923  21.822  14.117  0.00  0.00    -0.302 NA
ATOM     21  C   UNL     1      18.705  20.496  14.853  0.00  0.00    +0.066 C 
ATOM     22  C   UNL     1      19.116  19.278  13.963  0.00  0.00    -0.064 C 
ATOM     23  N   UNL     1      20.578  19.429  13.540  0.00  0.00    +0.379 N 
ATOM     24  C   UNL     1      20.984  18.256  12.751  0.00  0.00    -0.096 C 
ATOM     25  H   UNL     1      21.198  19.445  14.466  0.00  0.00    -0.082 HD
ATOM     26  C   UNL     1      20.803  20.746  12.810  0.00  0.00    -0.064 C 
ATOM     27  C   UNL     1      20.365  21.948  13.692  0.00  0.00    +0.066 C 
ENDBRANCH  19  20
ENDBRANCH  18  19
ENDBRANCH  14  15
ENDBRANCH  12  13
TORSDOF 6
ENDMDL
MODEL 4
REMARK VINA RESULT:      -9.0      5.956     11.861
REMARK  Name = C:\Users\Docking\Desktop\test protocol\1iep_ligandH.pdb
REMARK  8 active torsions:
REMARK  status: ('A' for Active; 'I' for Inactive)
REMARK    1  A    between atoms: _5  and  _11
REMARK    2  A    between atoms: _19  and  _21
REMARK    3  A    between atoms: _22  and  _66
REMARK    4  A    between atoms: _27  and  _30
REMARK    5  A    between atoms: _32  and  _33
REMARK    6  A    between atoms: _38  and  _43
REMARK    7  A    between atoms: _43  and  _46
REMARK    8  A    between atoms: _53  and  _55
REMARK                            x       y       z     vdW  Elec       q    Type
REMARK                         _______ _______ _______ _____ _____    ______ ____
ROOT
ATOM     10  C   UNL     1      19.438  23.243  14.331  0.00  0.00    +0.038 A 
ATOM     11  C   UNL     1      18.221  23.302  15.056  0.00  0.00    +0.047 A 
ATOM     12  C   UNL     1      16.992  22.746  14.510  0.00  0.00    +0.035 A 
ATOM     32  C   UNL     1      17.040  22.136  13.223  0.00  0.00    +0.024 A 
ATOM     33  C   UNL     1      18.269  22.068  12.472  0.00  0.00    +0.007 A 
ATOM     34  C   UNL     1      19.483  22.617  13.004  0.00  0.00    -0.029 A 
ATOM     35  C   UNL     1      20.770  22.522  12.151  0.00  0.00    +0.045 C 
ENDROOT
BRANCH  10   9
ATOM      4  C   UNL     1      22.207  26.982  15.509  0.00  0.00    +0.077 A 
ATOM      5  C   UNL     1      21.300  27.919  14.911  0.00  0.00    +0.048 A 
ATOM      6  C   UNL     1      20.135  27.397  14.305  0.00  0.00    +0.116 A 
ATOM      7  N   UNL     1      19.906  26.038  14.302  0.00  0.00    -0.223 NA
ATOM      8  C   UNL     1      20.802  25.162  14.886  0.00  0.00    +0.220 A 
ATOM      9  N   UNL     1      20.588  23.793  14.903  0.00  0.00    -0.283 N 
ATOM     36  H   UNL     1      21.277  23.179  15.337  0.00  0.00    +0.155 HD
ATOM     37  N   UNL     1      21.923  25.636  15.471  0.00  0.00    -0.214 NA
BRANCH   4   3
ATOM      1  C   UNL     1      25.731  28.517  16.238  0.00  0.00    +0.020 A 
ATOM      2  C   UNL     1      24.521  28.158  15.534  0.00  0.00    +0.013 A 
ATOM      3  C   UNL     1      23.479  27.380  16.192  0.00  0.00    +0.019 A 
ATOM     38  C   UNL     1      23.693  26.977  17.574  0.00  0.00    +0.120 A 
ATOM     39  N   UNL     1      24.869  27.336  18.226  0.00  0.00    -0.263 NA
ATOM     40  C   UNL     1      25.879  28.083  17.603  0.00  0.00    +0.111 A 
ENDBRANCH   4   3
ENDBRANCH  10   9
BRANCH  12  13
ATOM     13  N   UNL     1      15.725  22.784  15.197  0.00  0.00    -0.281 N 
ATOM     14  C   UNL     1      15.422  22.286  16.454  0.00  0.00    +0.248 C 
ATOM     30  O   UNL     1      16.147  21.538  17.094  0.00  0.00    -0.270 OA
ATOM     31  H   UNL     1      14.958  23.232  14.696  0.00  0.00    +0.155 HD
BRANCH  14  15
ATOM     15  C   UNL     1      14.120  22.660  17.084  0.00  0.00    +0.037 A 
ATOM     16  C   UNL     1      14.073  23.413  18.340  0.00  0.00    +0.013 A 
ATOM     17  C   UNL     1      12.803  23.747  18.936  0.00  0.00    +0.005 A 
ATOM     18  C   UNL     1      11.570  23.328  18.275  0.00  0.00    -0.033 A 
ATOM     28  C   UNL     1      11.645  22.586  17.027  0.00  0.00    +0.005 A 
ATOM     29  C   UNL     1      12.888  22.256  16.441  0.00  0.00    +0.013 A 
BRANCH  18  19
ATOM     19  C   UNL     1      10.171  23.621  18.850  0.00  0.00    +0.119 C 
BRANCH  19  20
ATOM     20  N   UNL     1      10.031  24.821  19.728  0.00  0.00    -0.302 NA
ATOM     21  C   UNL     1       8.718  24.806  20.516  0.00  0.00    +0.066 C 
ATOM     22  C   UNL     1       8.598  26.057  21.446  0.00  0.00    -0.064 C 
ATOM     23  N   UNL     1       8.710  27.329  20.603  0.00  0.00    +0.379 N 
ATOM     24  C   UNL     1       8.540  28.506  21.467  0.00  0.00    -0.096 C 
ATOM     25  H   UNL     1       7.871  27.323  19.869  0.00  0.00    -0.082 HD
ATOM     26  C   UNL     1      10.012  27.350  19.815  0.00  0.00    -0.064 C 
ATOM     27  C   UNL     1      10.134  26.088  18.916  0.00  0.00    +0.066 C 
ENDBRANCH  19  20
ENDBRANCH  18  19
ENDBRANCH  14  15
ENDBRANCH  12  13
TORSDOF 6
ENDMDL
MODEL 5
REMARK VINA RESULT:      -8.9      7.768     12.439
REMARK  Name = C:\Users\Docking\Desktop\test protocol\1iep_ligandH.pdb
REMARK  8 active torsions:
REMARK  status: ('A' for Active; 'I' for Inactive)
REMARK    1  A    between atoms: _5  and  _11
REMARK    2  A    between atoms: _19  and  _21
REMARK    3  A    between atoms: _22  and  _66
REMARK    4  A    between atoms: _27  and  _30
REMARK    5  A    between atoms: _32  and  _33
REMARK    6  A    between atoms: _38  and  _43
REMARK    7  A    between atoms: _43  and  _46
REMARK    8  A    between atoms: _53  and  _55
REMARK                            x       y       z     vdW  Elec       q    Type
REMARK                         _______ _______ _______ _____ _____    ______ ____
ROOT
ATOM     10  C   UNL     1      19.676  23.343  14.302  0.00  0.00    +0.038 A 
ATOM     11  C   UNL     1      18.518  23.517  15.103  0.00  0.00    +0.047 A 
ATOM     12  C   UNL     1      17.235  22.964  14.700  0.00  0.00    +0.035 A 
ATOM     32  C   UNL     1      17.166  22.237  13.476  0.00  0.00    +0.024 A 
ATOM     33  C   UNL     1      18.333  22.052  12.649  0.00  0.00    +0.007 A 
ATOM     34  C   UNL     1      19.601  22.597  13.040  0.00  0.00    -0.029 A 
ATOM     35  C   UNL     1      20.817  22.373  12.111  0.00  0.00    +0.045 C 
ENDROOT
BRANCH  10   9
ATOM      4  C   UNL     1      22.499  27.096  15.294  0.00  0.00    +0.077 A 
ATOM      5  C   UNL     1      21.494  28.035  14.885  0.00  0.00    +0.048 A 
ATOM      6  C   UNL     1      20.268  27.511  14.420  0.00  0.00    +0.116 A 
ATOM      7  N   UNL     1      20.071  26.148  14.371  0.00  0.00    -0.223 NA
ATOM      8  C   UNL     1      21.061  25.270  14.770  0.00  0.00    +0.220 A 
ATOM      9  N   UNL     1      20.883  23.896  14.737  0.00  0.00    -0.283 N 
ATOM     36  H   UNL     1      21.640  23.281  15.033  0.00  0.00    +0.155 HD
ATOM     37  N   UNL     1      22.242  25.745  15.218  0.00  0.00    -0.214 NA
BRANCH   4   3
ATOM      1  C   UNL     1      25.507  29.203  16.641  0.00  0.00    +0.020 A 
ATOM      2  C   UNL     1      24.192  28.871  16.143  0.00  0.00    +0.013 A 
ATOM      3  C   UNL     1      23.846  27.495  15.812  0.00  0.00    +0.019 A 
ATOM     38  C   UNL     1      24.862  26.469  15.998  0.00  0.00    +0.120 A 
ATOM     39  N   UNL     1      26.120  26.819  16.478  0.00  0.00    -0.263 NA
ATOM     40  C   UNL     1      26.465  28.140  16.798  0.00  0.00    +0.111 A 
ENDBRANCH   4   3
ENDBRANCH  10   9
BRANCH  12  13
ATOM     13  N   UNL     1      16.024  23.115  15.468  0.00  0.00    -0.281 N 
ATOM     14  C   UNL     1      15.725  22.565  16.704  0.00  0.00    +0.248 C 
ATOM     30  O   UNL     1      16.375  21.681  17.243  0.00  0.00    -0.270 OA
ATOM     31  H   UNL     1      15.298  23.698  15.050  0.00  0.00    +0.155 HD
BRANCH  14  15
ATOM     15  C   UNL     1      14.523  23.058  17.442  0.00  0.00    +0.037 A 
ATOM     16  C   UNL     1      13.195  23.049  16.823  0.00  0.00    +0.013 A 
ATOM     17  C   UNL     1      12.054  23.546  17.551  0.00  0.00    +0.005 A 
ATOM     18  C   UNL     1      12.237  24.055  18.908  0.00  0.00    -0.033 A 
ATOM     28  C   UNL     1      13.565  24.048  19.500  0.00  0.00    +0.005 A 
ATOM     29  C   UNL     1      14.685  23.562  18.789  0.00  0.00    +0.013 A 
BRANCH  18  19
ATOM     19  C   UNL     1      11.080  24.624  19.751  0.00  0.00    +0.119 C 
BRANCH  19  20
ATOM     20  N   UNL     1       9.757  23.940  19.647  0.00  0.00    -0.302 NA
ATOM     21  C   UNL     1       8.815  24.656  18.675  0.00  0.00    +0.066 C 
ATOM     22  C   UNL     1       7.444  23.915  18.560  0.00  0.00    -0.064 C 
ATOM     23  N   UNL     1       6.809  23.805  19.947  0.00  0.00    +0.379 N 
ATOM     24  C   UNL     1       5.493  23.160  19.835  0.00  0.00    -0.096 C 
ATOM     25  H   UNL     1       6.647  24.840  20.328  0.00  0.00    -0.082 HD
ATOM     26  C   UNL     1       7.740  23.096  20.921  0.00  0.00    -0.064 C 
ATOM     27  C   UNL     1       9.110  23.825  21.005  0.00  0.00    +0.066 C 
ENDBRANCH  19  20
ENDBRANCH  18  19
ENDBRANCH  14  15
ENDBRANCH  12  13
TORSDOF 6
ENDMDL
