MODEL 1
REMARK VINA RESULT:      -8.8      0.000      0.000
REMARK  Name = C:\Users\Docking\Desktop\test protocol\1iep_ligandH.pdb
REMARK  8 active torsions:
REMARK  status: ('A' for Active; 'I' for Inactive)
REMARK    1  A    between atoms: _5  and  _11
REMARK    2  A    between atoms: _19  and  _21
REMARK    3  A    between atoms: _22  and  _66
REMARK    4  A    between atoms: _27  and  _30
REMARK    5  A    between atoms: _32  and  _33
REMARK    6  A    between atoms: _38  and  _43
REMARK    7  A    between atoms: _43  and  _46
REMARK    8  A    between atoms: _53  and  _55
REMARK                            x       y       z     vdW  Elec       q    Type
REMARK                         _______ _______ _______ _____ _____    ______ ____
ROOT
ATOM     10  C   UNL     1       8.959  25.708  19.033  0.00  0.00    +0.038 A 
ATOM     11  C   UNL     1      10.213  25.446  18.423  0.00  0.00    +0.047 A 
ATOM     12  C   UNL     1      10.788  24.110  18.430  0.00  0.00    +0.035 A 
ATOM     32  C   UNL     1      10.059  23.063  19.065  0.00  0.00    +0.024 A 
ATOM     33  C   UNL     1       8.784  23.312  19.692  0.00  0.00    +0.007 A 
ATOM     34  C   UNL     1       8.212  24.628  19.690  0.00  0.00    -0.029 A 
ATOM     35  C   UNL     1       6.846  24.838  20.382  0.00  0.00    +0.045 C 
ENDROOT
BRANCH  10   9
ATOM      4  C   UNL     1       8.048  29.953  21.078  0.00  0.00    +0.077 A 
ATOM      5  C   UNL     1       8.603  29.535  22.333  0.00  0.00    +0.048 A 
ATOM      6  C   UNL     1       9.106  28.216  22.413  0.00  0.00    +0.116 A 
ATOM      7  N   UNL     1       9.053  27.388  21.313  0.00  0.00    -0.223 NA
ATOM      8  C   UNL     1       8.510  27.823  20.118  0.00  0.00    +0.220 A 
ATOM      9  N   UNL     1       8.453  27.009  18.997  0.00  0.00    -0.283 N 
ATOM     36  H   UNL     1       8.038  27.364  18.136  0.00  0.00    +0.155 HD
ATOM     37  N   UNL     1       8.022  29.076  20.016  0.00  0.00    -0.214 NA
BRANCH   4   3
ATOM      1  C   UNL     1       5.900  33.209  21.372  0.00  0.00    +0.020 A 
ATOM      2  C   UNL     1       6.412  31.886  21.647  0.00  0.00    +0.013 A 
ATOM      3  C   UNL     1       7.480  31.317  20.836  0.00  0.00    +0.019 A 
ATOM     38  C   UNL     1       8.013  32.119  19.744  0.00  0.00    +0.120 A 
ATOM     39  N   UNL     1       7.499  33.389  19.501  0.00  0.00    -0.263 NA
ATOM     40  C   UNL     1       6.469  33.946  20.275  0.00  0.00    +0.111 A 
ENDBRANCH   4   3
ENDBRANCH  10   9
BRANCH  12  13
ATOM     13  N   UNL     1      12.061  23.786  17.834  0.00  0.00    -0.281 N 
ATOM     14  C   UNL     1      12.308  22.953  16.755  0.00  0.00    +0.248 C 
ATOM     30  O   UNL     1      11.487  22.188  16.269  0.00  0.00    -0.270 OA
ATOM     31  H   UNL     1      12.878  24.223  18.259  0.00  0.00    +0.155 HD
BRANCH  14  15
ATOM     15  C   UNL     1      13.668  22.960  16.134  0.00  0.00    +0.037 A 
ATOM     16  C   UNL     1      14.863  22.643  16.919  0.00  0.00    +0.013 A 
ATOM     17  C   UNL     1      16.164  22.674  16.300  0.00  0.00    +0.005 A 
ATOM     18  C   UNL     1      16.276  23.022  14.885  0.00  0.00    -0.033 A 
ATOM     28  C   UNL     1      15.073  23.326  14.129  0.00  0.00    +0.005 A 
ATOM     29  C   UNL     1      13.796  23.298  14.733  0.00  0.00    +0.013 A 
BRANCH  18  19
ATOM     19  C   UNL     1      17.626  23.100  14.148  0.00  0.00    +0.119 C 
BRANCH  19  20
ATOM     20  N   UNL     1      18.586  24.155  14.589  0.00  0.00    -0.302 NA
ATOM     21  C   UNL     1      18.104  25.561  14.221  0.00  0.00    +0.066 C 
ATOM     22  C   UNL     1      19.110  26.654  14.710  0.00  0.00    -0.064 C 
ATOM     23  N   UNL     1      20.489  26.379  14.108  0.00  0.00    +0.379 N 
ATOM     24  C   UNL     1      21.423  27.438  14.519  0.00  0.00    -0.096 C 
ATOM     25  H   UNL     1      20.389  26.428  12.998  0.00  0.00    -0.082 HD
ATOM     26  C   UNL     1      20.975  24.982  14.466  0.00  0.00    -0.064 C 
ATOM     27  C   UNL     1      19.954  23.906  14.002  0.00  0.00    +0.066 C 
ENDBRANCH  19  20
ENDBRANCH  18  19
ENDBRANCH  14  15
ENDBRANCH  12  13
TORSDOF 6
ENDMDL
MODEL 2
REMARK VINA RESULT:      -8.8      3.822     12.910
REMARK  Name = C:\Users\Docking\Desktop\test protocol\1iep_ligandH.pdb
REMARK  8 active torsions:
REMARK  status: ('A' for Active; 'I' for Inactive)
REMARK    1  A    between atoms: _5  and  _11
REMARK    2  A    between atoms: _19  and  _21
REMARK    3  A    between atoms: _22  and  _66
REMARK    4  A    between atoms: _27  and  _30
REMARK    5  A    between atoms: _32  and  _33
REMARK    6  A    between atoms: _38  and  _43
REMARK    7  A    between atoms: _43  and  _46
REMARK    8  A    between atoms: _53  and  _55
REMARK                            x       y       z     vdW  Elec       q    Type
REMARK                         _______ _______ _______ _____ _____    ______ ____
ROOT
ATOM     10  C   UNL     1      10.182  26.216  20.023  0.00  0.00    +0.038 A 
ATOM     11  C   UNL     1       9.602  27.425  19.561  0.00  0.00    +0.047 A 
ATOM     12  C   UNL     1       8.649  28.162  20.376  0.00  0.00    +0.035 A 
ATOM     32  C   UNL     1       8.310  27.639  21.658  0.00  0.00    +0.024 A 
ATOM     33  C   UNL     1       8.888  26.410  22.142  0.00  0.00    +0.007 A 
ATOM     34  C   UNL     1       9.828  25.678  21.342  0.00  0.00    -0.029 A 
ATOM     35  C   UNL     1      10.412  24.363  21.909  0.00  0.00    +0.045 C 
ENDROOT
BRANCH  10   9
ATOM      4  C   UNL     1      11.293  22.810  16.828  0.00  0.00    +0.077 A 
ATOM      5  C   UNL     1       9.954  22.298  16.820  0.00  0.00    +0.048 A 
ATOM      6  C   UNL     1       9.010  22.934  17.657  0.00  0.00    +0.116 A 
ATOM      7  N   UNL     1       9.389  24.003  18.440  0.00  0.00    -0.223 NA
ATOM      8  C   UNL     1      10.690  24.471  18.426  0.00  0.00    +0.220 A 
ATOM      9  N   UNL     1      11.092  25.550  19.199  0.00  0.00    -0.283 N 
ATOM     36  H   UNL     1      12.063  25.860  19.166  0.00  0.00    +0.155 HD
ATOM     37  N   UNL     1      11.610  23.880  17.636  0.00  0.00    -0.214 NA
BRANCH   4   3
ATOM      1  C   UNL     1      13.323  20.614  14.307  0.00  0.00    +0.020 A 
ATOM      2  C   UNL     1      12.219  21.120  15.090  0.00  0.00    +0.013 A 
ATOM      3  C   UNL     1      12.403  22.247  15.995  0.00  0.00    +0.019 A 
ATOM     38  C   UNL     1      13.726  22.845  16.086  0.00  0.00    +0.120 A 
ATOM     39  N   UNL     1      14.771  22.335  15.321  0.00  0.00    -0.263 NA
ATOM     40  C   UNL     1      14.607  21.250  14.448  0.00  0.00    +0.111 A 
ENDBRANCH   4   3
ENDBRANCH  10   9
BRANCH  12  13
ATOM     13  N   UNL     1       8.022  29.391  19.957  0.00  0.00    -0.281 N 
ATOM     14  C   UNL     1       7.656  30.472  20.742  0.00  0.00    +0.248 C 
ATOM     30  O   UNL     1       7.619  30.457  21.964  0.00  0.00    -0.270 OA
ATOM     31  H   UNL     1       7.823  29.474  18.960  0.00  0.00    +0.155 HD
BRANCH  14  15
ATOM     15  C   UNL     1       7.261  31.749  20.074  0.00  0.00    +0.037 A 
ATOM     16  C   UNL     1       8.260  32.757  19.711  0.00  0.00    +0.013 A 
ATOM     17  C   UNL     1       7.850  33.988  19.083  0.00  0.00    +0.005 A 
ATOM     18  C   UNL     1       6.433  34.217  18.813  0.00  0.00    -0.033 A 
ATOM     28  C   UNL     1       5.464  33.198  19.179  0.00  0.00    +0.005 A 
ATOM     29  C   UNL     1       5.862  31.990  19.796  0.00  0.00    +0.013 A 
BRANCH  18  19
ATOM     19  C   UNL     1       5.903  35.510  18.166  0.00  0.00    +0.119 C 
BRANCH  19  20
ATOM     20  N   UNL     1       5.773  36.711  19.044  0.00  0.00    -0.302 NA
ATOM     21  C   UNL     1       4.689  36.528  20.110  0.00  0.00    +0.066 C 
ATOM     22  C   UNL     1       4.582  37.784  21.035  0.00  0.00    -0.064 C 
ATOM     23  N   UNL     1       4.297  39.020  20.179  0.00  0.00    +0.379 N 
ATOM     24  C   UNL     1       4.138  40.193  21.050  0.00  0.00    -0.096 C 
ATOM     25  H   UNL     1       3.326  38.852  19.657  0.00  0.00    -0.082 HD
ATOM     26  C   UNL     1       5.368  39.208  19.114  0.00  0.00    -0.064 C 
ATOM     27  C   UNL     1       5.487  37.942  18.220  0.00  0.00    +0.066 C 
ENDBRANCH  19  20
ENDBRANCH  18  19
ENDBRANCH  14  15
ENDBRANCH  12  13
TORSDOF 6
ENDMDL
MODEL 3
REMARK VINA RESULT:      -8.8      1.687      2.719
REMARK  Name = C:\Users\Docking\Desktop\test protocol\1iep_ligandH.pdb
REMARK  8 active torsions:
REMARK  status: ('A' for Active; 'I' for Inactive)
REMARK    1  A    between atoms: _5  and  _11
REMARK    2  A    between atoms: _19  and  _21
REMARK    3  A    between atoms: _22  and  _66
REMARK    4  A    between atoms: _27  and  _30
REMARK    5  A    between atoms: _32  and  _33
REMARK    6  A    between atoms: _38  and  _43
REMARK    7  A    between atoms: _43  and  _46
REMARK    8  A    between atoms: _53  and  _55
REMARK                            x       y       z     vdW  Elec       q    Type
REMARK                         _______ _______ _______ _____ _____    ______ ____
ROOT
ATOM     10  C   UNL     1       9.228  25.682  18.817  0.00  0.00    +0.038 A 
ATOM     11  C   UNL     1      10.528  25.473  18.291  0.00  0.00    +0.047 A 
ATOM     12  C   UNL     1      11.135  24.151  18.286  0.00  0.00    +0.035 A 
ATOM     32  C   UNL     1      10.387  23.063  18.822  0.00  0.00    +0.024 A 
ATOM     33  C   UNL     1       9.065  23.257  19.362  0.00  0.00    +0.007 A 
ATOM     34  C   UNL     1       8.462  24.559  19.372  0.00  0.00    -0.029 A 
ATOM     35  C   UNL     1       7.044  24.709  19.970  0.00  0.00    +0.045 C 
ENDROOT
BRANCH  10   9
ATOM      4  C   UNL     1       8.134  29.844  20.944  0.00  0.00    +0.077 A 
ATOM      5  C   UNL     1       8.646  29.400  22.208  0.00  0.00    +0.048 A 
ATOM      6  C   UNL     1       9.175  28.091  22.271  0.00  0.00    +0.116 A 
ATOM      7  N   UNL     1       9.187  27.295  21.147  0.00  0.00    -0.223 NA
ATOM      8  C   UNL     1       8.684  27.753  19.943  0.00  0.00    +0.220 A 
ATOM      9  N   UNL     1       8.694  26.972  18.797  0.00  0.00    -0.283 N 
ATOM     36  H   UNL     1       8.306  27.344  17.930  0.00  0.00    +0.155 HD
ATOM     37  N   UNL     1       8.172  28.998  19.857  0.00  0.00    -0.214 NA
BRANCH   4   3
ATOM      1  C   UNL     1       7.379  33.386  19.467  0.00  0.00    +0.020 A 
ATOM      2  C   UNL     1       7.981  32.085  19.643  0.00  0.00    +0.013 A 
ATOM      3  C   UNL     1       7.545  31.201  20.717  0.00  0.00    +0.019 A 
ATOM     38  C   UNL     1       6.490  31.669  21.603  0.00  0.00    +0.120 A 
ATOM     39  N   UNL     1       5.930  32.928  21.410  0.00  0.00    -0.263 NA
ATOM     40  C   UNL     1       6.342  33.787  20.381  0.00  0.00    +0.111 A 
ENDBRANCH   4   3
ENDBRANCH  10   9
BRANCH  12  13
ATOM     13  N   UNL     1      12.455  23.881  17.772  0.00  0.00    -0.281 N 
ATOM     14  C   UNL     1      12.796  23.172  16.632  0.00  0.00    +0.248 C 
ATOM     30  O   UNL     1      12.021  22.477  15.992  0.00  0.00    -0.270 OA
ATOM     31  H   UNL     1      13.232  24.257  18.315  0.00  0.00    +0.155 HD
BRANCH  14  15
ATOM     15  C   UNL     1      14.206  23.232  16.139  0.00  0.00    +0.037 A 
ATOM     16  C   UNL     1      14.508  23.338  14.710  0.00  0.00    +0.013 A 
ATOM     17  C   UNL     1      15.877  23.377  14.260  0.00  0.00    +0.005 A 
ATOM     18  C   UNL     1      16.955  23.311  15.243  0.00  0.00    -0.033 A 
ATOM     28  C   UNL     1      16.628  23.211  16.656  0.00  0.00    +0.005 A 
ATOM     29  C   UNL     1      15.287  23.172  17.100  0.00  0.00    +0.013 A 
BRANCH  18  19
ATOM     19  C   UNL     1      18.445  23.325  14.853  0.00  0.00    +0.119 C 
BRANCH  19  20
ATOM     20  N   UNL     1      18.921  22.248  13.934  0.00  0.00    -0.302 NA
ATOM     21  C   UNL     1      18.606  20.851  14.475  0.00  0.00    +0.066 C 
ATOM     22  C   UNL     1      19.091  19.737  13.491  0.00  0.00    -0.064 C 
ATOM     23  N   UNL     1      20.592  19.896  13.245  0.00  0.00    +0.379 N 
ATOM     24  C   UNL     1      21.062  18.815  12.366  0.00  0.00    -0.096 C 
ATOM     25  H   UNL     1      21.109  19.784  14.226  0.00  0.00    -0.082 HD
ATOM     26  C   UNL     1      20.914  21.284  12.709  0.00  0.00    -0.064 C 
ATOM     27  C   UNL     1      20.402  22.384  13.680  0.00  0.00    +0.066 C 
ENDBRANCH  19  20
ENDBRANCH  18  19
ENDBRANCH  14  15
ENDBRANCH  12  13
TORSDOF 6
ENDMDL
MODEL 4
REMARK VINA RESULT:      -8.6      9.480     14.362
REMARK  Name = C:\Users\Docking\Desktop\test protocol\1iep_ligandH.pdb
REMARK  8 active torsions:
REMARK  status: ('A' for Active; 'I' for Inactive)
REMARK    1  A    between atoms: _5  and  _11
REMARK    2  A    between atoms: _19  and  _21
REMARK    3  A    between atoms: _22  and  _66
REMARK    4  A    between atoms: _27  and  _30
REMARK    5  A    between atoms: _32  and  _33
REMARK    6  A    between atoms: _38  and  _43
REMARK    7  A    between atoms: _43  and  _46
REMARK    8  A    between atoms: _53  and  _55
REMARK                            x       y       z     vdW  Elec       q    Type
REMARK                         _______ _______ _______ _____ _____    ______ ____
ROOT
ATOM     10  C   UNL     1      19.726  25.055  14.587  0.00  0.00    +0.038 A 
ATOM     11  C   UNL     1      21.068  25.497  14.708  0.00  0.00    +0.047 A 
ATOM     12  C   UNL     1      21.397  26.914  14.710  0.00  0.00    +0.035 A 
ATOM     32  C   UNL     1      20.332  27.854  14.590  0.00  0.00    +0.024 A 
ATOM     33  C   UNL     1      18.962  27.423  14.465  0.00  0.00    +0.007 A 
ATOM     34  C   UNL     1      18.632  26.026  14.460  0.00  0.00    -0.029 A 
ATOM     35  C   UNL     1      17.147  25.621  14.317  0.00  0.00    +0.045 C 
ENDROOT
BRANCH  10   9
ATOM      4  C   UNL     1      18.845  20.908  12.337  0.00  0.00    +0.077 A 
ATOM      5  C   UNL     1      18.876  21.533  11.047  0.00  0.00    +0.048 A 
ATOM      6  C   UNL     1      19.114  22.925  11.006  0.00  0.00    +0.116 A 
ATOM      7  N   UNL     1      19.306  23.629  12.175  0.00  0.00    -0.223 NA
ATOM      8  C   UNL     1      19.269  22.996  13.403  0.00  0.00    +0.220 A 
ATOM      9  N   UNL     1      19.467  23.682  14.591  0.00  0.00    -0.283 N 
ATOM     36  H   UNL     1      19.424  23.180  15.477  0.00  0.00    +0.155 HD
ATOM     37  N   UNL     1      19.041  21.667  13.469  0.00  0.00    -0.214 NA
BRANCH   4   3
ATOM      1  C   UNL     1      19.241  17.017  12.279  0.00  0.00    +0.020 A 
ATOM      2  C   UNL     1      19.516  18.417  12.051  0.00  0.00    +0.013 A 
ATOM      3  C   UNL     1      18.608  19.444  12.544  0.00  0.00    +0.019 A 
ATOM     38  C   UNL     1      17.420  19.018  13.270  0.00  0.00    +0.120 A 
ATOM     39  N   UNL     1      17.181  17.663  13.473  0.00  0.00    -0.263 NA
ATOM     40  C   UNL     1      18.047  16.665  13.002  0.00  0.00    +0.111 A 
ENDBRANCH   4   3
ENDBRANCH  10   9
BRANCH  12  13
ATOM     13  N   UNL     1      22.742  27.421  14.822  0.00  0.00    -0.281 N 
ATOM     14  C   UNL     1      23.568  27.406  15.934  0.00  0.00    +0.248 C 
ATOM     30  O   UNL     1      23.197  27.143  17.068  0.00  0.00    -0.270 OA
ATOM     31  H   UNL     1      23.132  27.843  13.979  0.00  0.00    +0.155 HD
BRANCH  14  15
ATOM     15  C   UNL     1      25.014  27.745  15.763  0.00  0.00    +0.037 A 
ATOM     16  C   UNL     1      25.451  29.128  15.559  0.00  0.00    +0.013 A 
ATOM     17  C   UNL     1      26.850  29.426  15.380  0.00  0.00    +0.005 A 
ATOM     18  C   UNL     1      27.823  28.337  15.407  0.00  0.00    -0.033 A 
ATOM     28  C   UNL     1      27.363  26.974  15.617  0.00  0.00    +0.005 A 
ATOM     29  C   UNL     1      25.992  26.679  15.791  0.00  0.00    +0.013 A 
BRANCH  18  19
ATOM     19  C   UNL     1      29.333  28.560  15.204  0.00  0.00    +0.119 C 
BRANCH  19  20
ATOM     20  N   UNL     1      30.063  27.569  14.358  0.00  0.00    -0.302 NA
ATOM     21  C   UNL     1      31.230  26.922  15.109  0.00  0.00    +0.066 C 
ATOM     22  C   UNL     1      31.968  25.871  14.216  0.00  0.00    -0.064 C 
ATOM     23  N   UNL     1      32.458  26.549  12.935  0.00  0.00    +0.379 N 
ATOM     24  C   UNL     1      33.203  25.578  12.121  0.00  0.00    -0.096 C 
ATOM     25  H   UNL     1      33.166  27.357  13.230  0.00  0.00    -0.082 HD
ATOM     26  C   UNL     1      31.304  27.197  12.184  0.00  0.00    -0.064 C 
ATOM     27  C   UNL     1      30.559  28.218  13.089  0.00  0.00    +0.066 C 
ENDBRANCH  19  20
ENDBRANCH  18  19
ENDBRANCH  14  15
ENDBRANCH  12  13
TORSDOF 6
ENDMDL
MODEL 5
REMARK VINA RESULT:      -8.6      4.155      7.804
REMARK  Name = C:\Users\Docking\Desktop\test protocol\1iep_ligandH.pdb
REMARK  8 active torsions:
REMARK  status: ('A' for Active; 'I' for Inactive)
REMARK    1  A    between atoms: _5  and  _11
REMARK    2  A    between atoms: _19  and  _21
REMARK    3  A    between atoms: _22  and  _66
REMARK    4  A    between atoms: _27  and  _30
REMARK    5  A    between atoms: _32  and  _33
REMARK    6  A    between atoms: _38  and  _43
REMARK    7  A    between atoms: _43  and  _46
REMARK    8  A    between atoms: _53  and  _55
REMARK                            x       y       z     vdW  Elec       q    Type
REMARK                         _______ _______ _______ _____ _____    ______ ____
ROOT
ATOM     10  C   UNL     1      14.256  22.417  14.640  0.00  0.00    +0.038 A 
ATOM     11  C   UNL     1      15.402  23.239  14.785  0.00  0.00    +0.047 A 
ATOM     12  C   UNL     1      16.689  22.840  14.236  0.00  0.00    +0.035 A 
ATOM     32  C   UNL     1      16.772  21.598  13.542  0.00  0.00    +0.024 A 
ATOM     33  C   UNL     1      15.617  20.749  13.386  0.00  0.00    +0.007 A 
ATOM     34  C   UNL     1      14.346  21.136  13.928  0.00  0.00    -0.029 A 
ATOM     35  C   UNL     1      13.143  20.183  13.736  0.00  0.00    +0.045 C 
ENDROOT
BRANCH  10   9
ATOM      4  C   UNL     1      11.285  23.077  18.351  0.00  0.00    +0.077 A 
ATOM      5  C   UNL     1      12.211  22.487  19.274  0.00  0.00    +0.048 A 
ATOM      6  C   UNL     1      13.438  22.019  18.752  0.00  0.00    +0.116 A 
ATOM      7  N   UNL     1      13.708  22.139  17.406  0.00  0.00    -0.223 NA
ATOM      8  C   UNL     1      12.792  22.711  16.543  0.00  0.00    +0.220 A 
ATOM      9  N   UNL     1      13.046  22.849  15.187  0.00  0.00    -0.283 N 
ATOM     36  H   UNL     1      12.341  23.270  14.582  0.00  0.00    +0.155 HD
ATOM     37  N   UNL     1      11.612  23.164  17.016  0.00  0.00    -0.214 NA
BRANCH   4   3
ATOM      1  C   UNL     1       7.539  24.203  18.278  0.00  0.00    +0.020 A 
ATOM      2  C   UNL     1       8.809  23.668  17.842  0.00  0.00    +0.013 A 
ATOM      3  C   UNL     1       9.948  23.620  18.750  0.00  0.00    +0.019 A 
ATOM     38  C   UNL     1       9.768  24.124  20.103  0.00  0.00    +0.120 A 
ATOM     39  N   UNL     1       8.534  24.635  20.494  0.00  0.00    -0.263 NA
ATOM     40  C   UNL     1       7.431  24.687  19.629  0.00  0.00    +0.111 A 
ENDBRANCH   4   3
ENDBRANCH  10   9
BRANCH  12  13
ATOM     13  N   UNL     1      17.889  23.630  14.359  0.00  0.00    -0.281 N 
ATOM     14  C   UNL     1      18.239  24.765  13.645  0.00  0.00    +0.248 C 
ATOM     30  O   UNL     1      17.665  25.152  12.638  0.00  0.00    -0.270 OA
ATOM     31  H   UNL     1      18.563  23.315  15.057  0.00  0.00    +0.155 HD
BRANCH  14  15
ATOM     15  C   UNL     1      19.403  25.579  14.109  0.00  0.00    +0.037 A 
ATOM     16  C   UNL     1      19.281  27.022  14.331  0.00  0.00    +0.013 A 
ATOM     17  C   UNL     1      20.424  27.787  14.762  0.00  0.00    +0.005 A 
ATOM     18  C   UNL     1      21.700  27.110  14.975  0.00  0.00    -0.033 A 
ATOM     28  C   UNL     1      21.792  25.676  14.752  0.00  0.00    +0.005 A 
ATOM     29  C   UNL     1      20.674  24.923  14.328  0.00  0.00    +0.013 A 
BRANCH  18  19
ATOM     19  C   UNL     1      22.977  27.850  15.414  0.00  0.00    +0.119 C 
BRANCH  19  20
ATOM     20  N   UNL     1      24.131  27.015  15.864  0.00  0.00    -0.302 NA
ATOM     21  C   UNL     1      24.113  26.779  17.377  0.00  0.00    +0.066 C 
ATOM     22  C   UNL     1      25.315  25.885  17.827  0.00  0.00    -0.064 C 
ATOM     23  N   UNL     1      26.626  26.544  17.397  0.00  0.00    +0.379 N 
ATOM     24  C   UNL     1      27.760  25.736  17.870  0.00  0.00    -0.096 C 
ATOM     25  H   UNL     1      26.686  27.538  17.900  0.00  0.00    -0.082 HD
ATOM     26  C   UNL     1      26.651  26.786  15.895  0.00  0.00    -0.064 C 
ATOM     27  C   UNL     1      25.437  27.650  15.453  0.00  0.00    +0.066 C 
ENDBRANCH  19  20
ENDBRANCH  18  19
ENDBRANCH  14  15
ENDBRANCH  12  13
TORSDOF 6
ENDMDL
