MODEL 1
REMARK VINA RESULT:      -9.2      0.000      0.000
REMARK  Name = C:\Users\Docking\Desktop\test protocol\1iep_ligandH.pdb
REMARK  8 active torsions:
REMARK  status: ('A' for Active; 'I' for Inactive)
REMARK    1  A    between atoms: _5  and  _11
REMARK    2  A    between atoms: _19  and  _21
REMARK    3  A    between atoms: _22  and  _66
REMARK    4  A    between atoms: _27  and  _30
REMARK    5  A    between atoms: _32  and  _33
REMARK    6  A    between atoms: _38  and  _43
REMARK    7  A    between atoms: _43  and  _46
REMARK    8  A    between atoms: _53  and  _55
REMARK                            x       y       z     vdW  Elec       q    Type
REMARK                         _______ _______ _______ _____ _____    ______ ____
ROOT
ATOM     10  C   UNL     1     221.354-137.962 118.008  0.00  0.00    +0.038 A 
ATOM     11  C   UNL     1     222.524-137.783 118.788  0.00  0.00    +0.047 A 
ATOM     12  C   UNL     1     223.607-138.753 118.756  0.00  0.00    +0.035 A 
ATOM     32  C   UNL     1     223.466-139.895 117.915  0.00  0.00    +0.024 A 
ATOM     33  C   UNL     1     222.283-140.094 117.115  0.00  0.00    +0.007 A 
ATOM     34  C   UNL     1     221.210-139.141 117.145  0.00  0.00    -0.029 A 
ATOM     35  C   UNL     1     219.962-139.409 116.272  0.00  0.00    +0.045 C 
ENDROOT
BRANCH  10   9
ATOM      4  C   UNL     1     217.307-136.200 119.891  0.00  0.00    +0.077 A 
ATOM      5  C   UNL     1     217.176-137.306 120.795  0.00  0.00    +0.048 A 
ATOM      6  C   UNL     1     218.167-138.311 120.738  0.00  0.00    +0.116 A 
ATOM      7  N   UNL     1     219.208-138.207 119.841  0.00  0.00    -0.223 NA
ATOM      8  C   UNL     1     219.303-137.128 118.982  0.00  0.00    +0.220 A 
ATOM      9  N   UNL     1     220.346-136.999 118.077  0.00  0.00    -0.283 N 
ATOM     36  H   UNL     1     220.376-136.191 117.456  0.00  0.00    +0.155 HD
ATOM     37  N   UNL     1     218.369-136.155 119.016  0.00  0.00    -0.214 NA
BRANCH   4   3
ATOM      1  C   UNL     1     214.893-133.296 120.913  0.00  0.00    +0.020 A 
ATOM      2  C   UNL     1     215.823-134.396 121.025  0.00  0.00    +0.013 A 
ATOM      3  C   UNL     1     216.341-135.057 119.833  0.00  0.00    +0.019 A 
ATOM     38  C   UNL     1     215.895-134.577 118.534  0.00  0.00    +0.120 A 
ATOM     39  N   UNL     1     214.997-133.517 118.458  0.00  0.00    -0.263 NA
ATOM     40  C   UNL     1     214.490-132.874 119.598  0.00  0.00    +0.111 A 
ENDBRANCH   4   3
ENDBRANCH  10   9
BRANCH  12  13
ATOM     13  N   UNL     1     224.816-138.628 119.533  0.00  0.00    -0.281 N 
ATOM     14  C   UNL     1     225.754-137.610 119.490  0.00  0.00    +0.248 C 
ATOM     30  O   UNL     1     225.805-136.754 118.619  0.00  0.00    -0.270 OA
ATOM     31  H   UNL     1     225.002-139.382 120.195  0.00  0.00    +0.155 HD
BRANCH  14  15
ATOM     15  C   UNL     1     226.794-137.541 120.561  0.00  0.00    +0.037 A 
ATOM     16  C   UNL     1     227.932-136.624 120.458  0.00  0.00    +0.013 A 
ATOM     17  C   UNL     1     228.930-136.589 121.497  0.00  0.00    +0.005 A 
ATOM     18  C   UNL     1     228.794-137.476 122.650  0.00  0.00    -0.033 A 
ATOM     28  C   UNL     1     227.653-138.373 122.730  0.00  0.00    +0.005 A 
ATOM     29  C   UNL     1     226.673-138.410 121.712  0.00  0.00    +0.013 A 
BRANCH  18  19
ATOM     19  C   UNL     1     229.823-137.522 123.796  0.00  0.00    +0.119 C 
BRANCH  19  20
ATOM     20  N   UNL     1     230.048-136.261 124.563  0.00  0.00    -0.302 NA
ATOM     21  C   UNL     1     231.387-135.606 124.212  0.00  0.00    +0.066 C 
ATOM     22  C   UNL     1     231.596-134.277 125.007  0.00  0.00    -0.064 C 
ATOM     23  N   UNL     1     231.511-134.564 126.507  0.00  0.00    +0.379 N 
ATOM     24  C   UNL     1     231.765-133.327 127.259  0.00  0.00    -0.096 C 
ATOM     25  H   UNL     1     232.322-135.286 126.759  0.00  0.00    -0.082 HD
ATOM     26  C   UNL     1     230.184-135.218 126.865  0.00  0.00    -0.064 C 
ATOM     27  C   UNL     1     229.972-136.523 126.047  0.00  0.00    +0.066 C 
ENDBRANCH  19  20
ENDBRANCH  18  19
ENDBRANCH  14  15
ENDBRANCH  12  13
TORSDOF 6
ENDMDL
MODEL 2
REMARK VINA RESULT:      -8.9      2.209      2.891
REMARK  Name = C:\Users\Docking\Desktop\test protocol\1iep_ligandH.pdb
REMARK  8 active torsions:
REMARK  status: ('A' for Active; 'I' for Inactive)
REMARK    1  A    between atoms: _5  and  _11
REMARK    2  A    between atoms: _19  and  _21
REMARK    3  A    between atoms: _22  and  _66
REMARK    4  A    between atoms: _27  and  _30
REMARK    5  A    between atoms: _32  and  _33
REMARK    6  A    between atoms: _38  and  _43
REMARK    7  A    between atoms: _43  and  _46
REMARK    8  A    between atoms: _53  and  _55
REMARK                            x       y       z     vdW  Elec       q    Type
REMARK                         _______ _______ _______ _____ _____    ______ ____
ROOT
ATOM     10  C   UNL     1     222.785-137.370 118.293  0.00  0.00    +0.038 A 
ATOM     11  C   UNL     1     223.733-136.660 119.073  0.00  0.00    +0.047 A 
ATOM     12  C   UNL     1     225.008-137.258 119.437  0.00  0.00    +0.035 A 
ATOM     32  C   UNL     1     225.286-138.582 118.986  0.00  0.00    +0.024 A 
ATOM     33  C   UNL     1     224.333-139.318 118.193  0.00  0.00    +0.007 A 
ATOM     34  C   UNL     1     223.073-138.734 117.833  0.00  0.00    -0.029 A 
ATOM     35  C   UNL     1     222.087-139.572 116.987  0.00  0.00    +0.045 C 
ENDROOT
BRANCH  10   9
ATOM      4  C   UNL     1     218.135-136.488 119.093  0.00  0.00    +0.077 A 
ATOM      5  C   UNL     1     218.104-137.364 120.229  0.00  0.00    +0.048 A 
ATOM      6  C   UNL     1     219.304-138.027 120.570  0.00  0.00    +0.116 A 
ATOM      7  N   UNL     1     220.444-137.823 119.824  0.00  0.00    -0.223 NA
ATOM      8  C   UNL     1     220.440-136.973 118.733  0.00  0.00    +0.220 A 
ATOM      9  N   UNL     1     221.577-136.746 117.973  0.00  0.00    -0.283 N 
ATOM     36  H   UNL     1     221.531-136.118 117.172  0.00  0.00    +0.155 HD
ATOM     37  N   UNL     1     219.306-136.328 118.386  0.00  0.00    -0.214 NA
BRANCH   4   3
ATOM      1  C   UNL     1     214.842-134.379 118.993  0.00  0.00    +0.020 A 
ATOM      2  C   UNL     1     215.970-135.119 119.512  0.00  0.00    +0.013 A 
ATOM      3  C   UNL     1     216.949-135.713 118.610  0.00  0.00    +0.019 A 
ATOM     38  C   UNL     1     216.757-135.538 117.178  0.00  0.00    +0.120 A 
ATOM     39  N   UNL     1     215.660-134.822 116.708  0.00  0.00    -0.263 NA
ATOM     40  C   UNL     1     214.711-134.248 117.566  0.00  0.00    +0.111 A 
ENDBRANCH   4   3
ENDBRANCH  10   9
BRANCH  12  13
ATOM     13  N   UNL     1     226.006-136.589 120.234  0.00  0.00    -0.281 N 
ATOM     14  C   UNL     1     225.858-136.036 121.495  0.00  0.00    +0.248 C 
ATOM     30  O   UNL     1     224.783-135.843 122.044  0.00  0.00    -0.270 OA
ATOM     31  H   UNL     1     226.934-136.514 119.817  0.00  0.00    +0.155 HD
BRANCH  14  15
ATOM     15  C   UNL     1     227.080-135.623 122.250  0.00  0.00    +0.037 A 
ATOM     16  C   UNL     1     228.261-136.489 122.317  0.00  0.00    +0.013 A 
ATOM     17  C   UNL     1     229.420-136.075 123.067  0.00  0.00    +0.005 A 
ATOM     18  C   UNL     1     229.405-134.786 123.755  0.00  0.00    -0.033 A 
ATOM     28  C   UNL     1     228.223-133.945 123.668  0.00  0.00    +0.005 A 
ATOM     29  C   UNL     1     227.084-134.348 122.935  0.00  0.00    +0.013 A 
BRANCH  18  19
ATOM     19  C   UNL     1     230.589-134.273 124.595  0.00  0.00    +0.119 C 
BRANCH  19  20
ATOM     20  N   UNL     1     231.773-133.742 123.856  0.00  0.00    -0.302 NA
ATOM     21  C   UNL     1     233.091-134.102 124.548  0.00  0.00    +0.066 C 
ATOM     22  C   UNL     1     234.320-133.558 123.749  0.00  0.00    -0.064 C 
ATOM     23  N   UNL     1     234.189-132.043 123.586  0.00  0.00    +0.379 N 
ATOM     24  C   UNL     1     235.372-131.521 122.886  0.00  0.00    -0.096 C 
ATOM     25  H   UNL     1     234.174-131.593 124.606  0.00  0.00    -0.082 HD
ATOM     26  C   UNL     1     232.880-131.676 122.901  0.00  0.00    -0.064 C 
ATOM     27  C   UNL     1     231.667-132.246 123.688  0.00  0.00    +0.066 C 
ENDBRANCH  19  20
ENDBRANCH  18  19
ENDBRANCH  14  15
ENDBRANCH  12  13
TORSDOF 6
ENDMDL
MODEL 3
REMARK VINA RESULT:      -8.8      1.618      2.072
REMARK  Name = C:\Users\Docking\Desktop\test protocol\1iep_ligandH.pdb
REMARK  8 active torsions:
REMARK  status: ('A' for Active; 'I' for Inactive)
REMARK    1  A    between atoms: _5  and  _11
REMARK    2  A    between atoms: _19  and  _21
REMARK    3  A    between atoms: _22  and  _66
REMARK    4  A    between atoms: _27  and  _30
REMARK    5  A    between atoms: _32  and  _33
REMARK    6  A    between atoms: _38  and  _43
REMARK    7  A    between atoms: _43  and  _46
REMARK    8  A    between atoms: _53  and  _55
REMARK                            x       y       z     vdW  Elec       q    Type
REMARK                         _______ _______ _______ _____ _____    ______ ____
ROOT
ATOM     10  C   UNL     1     222.132-137.564 118.673  0.00  0.00    +0.038 A 
ATOM     11  C   UNL     1     223.142-137.214 119.605  0.00  0.00    +0.047 A 
ATOM     12  C   UNL     1     224.317-138.051 119.791  0.00  0.00    +0.035 A 
ATOM     32  C   UNL     1     224.432-139.237 119.010  0.00  0.00    +0.024 A 
ATOM     33  C   UNL     1     223.414-139.609 118.059  0.00  0.00    +0.007 A 
ATOM     34  C   UNL     1     222.252-138.788 117.872  0.00  0.00    -0.029 A 
ATOM     35  C   UNL     1     221.189-139.239 116.843  0.00  0.00    +0.045 C 
ENDROOT
BRANCH  10   9
ATOM      4  C   UNL     1     217.620-136.301 119.715  0.00  0.00    +0.077 A 
ATOM      5  C   UNL     1     217.444-137.426 120.588  0.00  0.00    +0.048 A 
ATOM      6  C   UNL     1     218.537-138.310 120.736  0.00  0.00    +0.116 A 
ATOM      7  N   UNL     1     219.713-138.076 120.057  0.00  0.00    -0.223 NA
ATOM      8  C   UNL     1     219.849-136.982 119.222  0.00  0.00    +0.220 A 
ATOM      9  N   UNL     1     221.025-136.723 118.535  0.00  0.00    -0.283 N 
ATOM     36  H   UNL     1     221.083-135.910 117.923  0.00  0.00    +0.155 HD
ATOM     37  N   UNL     1     218.820-136.124 119.062  0.00  0.00    -0.214 NA
BRANCH   4   3
ATOM      1  C   UNL     1     214.971-133.466 120.208  0.00  0.00    +0.020 A 
ATOM      2  C   UNL     1     215.993-134.441 120.510  0.00  0.00    +0.013 A 
ATOM      3  C   UNL     1     216.559-135.276 119.458  0.00  0.00    +0.019 A 
ATOM     38  C   UNL     1     216.066-135.097 118.101  0.00  0.00    +0.120 A 
ATOM     39  N   UNL     1     215.080-134.151 117.840  0.00  0.00    -0.263 NA
ATOM     40  C   UNL     1     214.526-133.343 118.845  0.00  0.00    +0.111 A 
ENDBRANCH   4   3
ENDBRANCH  10   9
BRANCH  12  13
ATOM     13  N   UNL     1     225.371-137.751 120.728  0.00  0.00    -0.281 N 
ATOM     14  C   UNL     1     226.569-137.099 120.483  0.00  0.00    +0.248 C 
ATOM     30  O   UNL     1     227.011-136.862 119.368  0.00  0.00    -0.270 OA
ATOM     31  H   UNL     1     225.216-138.056 121.689  0.00  0.00    +0.155 HD
BRANCH  14  15
ATOM     15  C   UNL     1     227.402-136.659 121.643  0.00  0.00    +0.037 A 
ATOM     16  C   UNL     1     226.841-135.826 122.709  0.00  0.00    +0.013 A 
ATOM     17  C   UNL     1     227.672-135.401 123.808  0.00  0.00    +0.005 A 
ATOM     18  C   UNL     1     229.073-135.811 123.846  0.00  0.00    -0.033 A 
ATOM     28  C   UNL     1     229.603-136.641 122.778  0.00  0.00    +0.005 A 
ATOM     29  C   UNL     1     228.792-137.059 121.699  0.00  0.00    +0.013 A 
BRANCH  18  19
ATOM     19  C   UNL     1     230.038-135.387 124.969  0.00  0.00    +0.119 C 
BRANCH  19  20
ATOM     20  N   UNL     1     231.179-136.302 125.273  0.00  0.00    -0.302 NA
ATOM     21  C   UNL     1     230.927-137.134 126.534  0.00  0.00    +0.066 C 
ATOM     22  C   UNL     1     232.120-138.102 126.824  0.00  0.00    -0.064 C 
ATOM     23  N   UNL     1     233.410-137.292 126.958  0.00  0.00    +0.379 N 
ATOM     24  C   UNL     1     234.524-138.193 127.289  0.00  0.00    -0.096 C 
ATOM     25  H   UNL     1     233.279-136.588 127.813  0.00  0.00    -0.082 HD
ATOM     26  C   UNL     1     233.666-136.459 125.710  0.00  0.00    -0.064 C 
ATOM     27  C   UNL     1     232.462-135.522 125.414  0.00  0.00    +0.066 C 
ENDBRANCH  19  20
ENDBRANCH  18  19
ENDBRANCH  14  15
ENDBRANCH  12  13
TORSDOF 6
ENDMDL
MODEL 4
REMARK VINA RESULT:      -8.5      4.486     13.581
REMARK  Name = C:\Users\Docking\Desktop\test protocol\1iep_ligandH.pdb
REMARK  8 active torsions:
REMARK  status: ('A' for Active; 'I' for Inactive)
REMARK    1  A    between atoms: _5  and  _11
REMARK    2  A    between atoms: _19  and  _21
REMARK    3  A    between atoms: _22  and  _66
REMARK    4  A    between atoms: _27  and  _30
REMARK    5  A    between atoms: _32  and  _33
REMARK    6  A    between atoms: _38  and  _43
REMARK    7  A    between atoms: _43  and  _46
REMARK    8  A    between atoms: _53  and  _55
REMARK                            x       y       z     vdW  Elec       q    Type
REMARK                         _______ _______ _______ _____ _____    ______ ____
ROOT
ATOM     10  C   UNL     1     221.093-136.203 117.991  0.00  0.00    +0.038 A 
ATOM     11  C   UNL     1     219.886-136.579 118.635  0.00  0.00    +0.047 A 
ATOM     12  C   UNL     1     218.641-136.691 117.891  0.00  0.00    +0.035 A 
ATOM     32  C   UNL     1     218.662-136.417 116.493  0.00  0.00    +0.024 A 
ATOM     33  C   UNL     1     219.879-136.032 115.823  0.00  0.00    +0.007 A 
ATOM     34  C   UNL     1     221.110-135.917 116.552  0.00  0.00    -0.029 A 
ATOM     35  C   UNL     1     222.384-135.495 115.783  0.00  0.00    +0.045 C 
ENDROOT
BRANCH  10   9
ATOM      4  C   UNL     1     225.235-137.995 119.625  0.00  0.00    +0.077 A 
ATOM      5  C   UNL     1     225.046-139.231 118.922  0.00  0.00    +0.048 A 
ATOM      6  C   UNL     1     223.866-139.368 118.157  0.00  0.00    +0.116 A 
ATOM      7  N   UNL     1     222.951-138.339 118.106  0.00  0.00    -0.223 NA
ATOM      8  C   UNL     1     223.163-137.161 118.797  0.00  0.00    +0.220 A 
ATOM      9  N   UNL     1     222.260-136.110 118.754  0.00  0.00    -0.283 N 
ATOM     36  H   UNL     1     222.449-135.260 119.284  0.00  0.00    +0.155 HD
ATOM     37  N   UNL     1     224.281-137.006 119.536  0.00  0.00    -0.214 NA
BRANCH   4   3
ATOM      1  C   UNL     1     228.556-136.432 120.979  0.00  0.00    +0.020 A 
ATOM      2  C   UNL     1     227.417-136.680 120.125  0.00  0.00    +0.013 A 
ATOM      3  C   UNL     1     226.433-137.698 120.473  0.00  0.00    +0.019 A 
ATOM     38  C   UNL     1     226.631-138.452 121.702  0.00  0.00    +0.120 A 
ATOM     39  N   UNL     1     227.738-138.192 122.504  0.00  0.00    -0.263 NA
ATOM     40  C   UNL     1     228.693-137.216 122.178  0.00  0.00    +0.111 A 
ENDBRANCH   4   3
ENDBRANCH  10   9
BRANCH  12  13
ATOM     13  N   UNL     1     217.383-137.061 118.492  0.00  0.00    -0.281 N 
ATOM     14  C   UNL     1     216.453-136.233 119.097  0.00  0.00    +0.248 C 
ATOM     30  O   UNL     1     216.660-135.068 119.405  0.00  0.00    -0.270 OA
ATOM     31  H   UNL     1     217.151-138.054 118.468  0.00  0.00    +0.155 HD
BRANCH  14  15
ATOM     15  C   UNL     1     215.100-136.781 119.420  0.00  0.00    +0.037 A 
ATOM     16  C   UNL     1     214.384-136.373 120.632  0.00  0.00    +0.013 A 
ATOM     17  C   UNL     1     213.088-136.930 120.928  0.00  0.00    +0.005 A 
ATOM     18  C   UNL     1     212.499-137.901 120.009  0.00  0.00    -0.033 A 
ATOM     28  C   UNL     1     213.228-138.284 118.812  0.00  0.00    +0.005 A 
ATOM     29  C   UNL     1     214.499-137.741 118.519  0.00  0.00    +0.013 A 
BRANCH  18  19
ATOM     19  C   UNL     1     211.130-138.562 120.256  0.00  0.00    +0.119 C 
BRANCH  19  20
ATOM     20  N   UNL     1     210.332-138.069 121.419  0.00  0.00    -0.302 NA
ATOM     21  C   UNL     1     209.706-139.218 122.214  0.00  0.00    +0.066 C 
ATOM     22  C   UNL     1     208.894-138.686 123.439  0.00  0.00    -0.064 C 
ATOM     23  N   UNL     1     207.817-137.715 122.951  0.00  0.00    +0.379 N 
ATOM     24  C   UNL     1     207.014-137.257 124.094  0.00  0.00    -0.096 C 
ATOM     25  H   UNL     1     207.141-138.277 122.266  0.00  0.00    -0.082 HD
ATOM     26  C   UNL     1     208.431-136.571 122.157  0.00  0.00    -0.064 C 
ATOM     27  C   UNL     1     209.261-137.112 120.959  0.00  0.00    +0.066 C 
ENDBRANCH  19  20
ENDBRANCH  18  19
ENDBRANCH  14  15
ENDBRANCH  12  13
TORSDOF 6
ENDMDL
MODEL 5
REMARK VINA RESULT:      -8.4     37.466     42.049
REMARK  Name = C:\Users\Docking\Desktop\test protocol\1iep_ligandH.pdb
REMARK  8 active torsions:
REMARK  status: ('A' for Active; 'I' for Inactive)
REMARK    1  A    between atoms: _5  and  _11
REMARK    2  A    between atoms: _19  and  _21
REMARK    3  A    between atoms: _22  and  _66
REMARK    4  A    between atoms: _27  and  _30
REMARK    5  A    between atoms: _32  and  _33
REMARK    6  A    between atoms: _38  and  _43
REMARK    7  A    between atoms: _43  and  _46
REMARK    8  A    between atoms: _53  and  _55
REMARK                            x       y       z     vdW  Elec       q    Type
REMARK                         _______ _______ _______ _____ _____    ______ ____
ROOT
ATOM     10  C   UNL     1     194.373-109.821 135.774  0.00  0.00    +0.038 A 
ATOM     11  C   UNL     1     194.602-110.804 136.771  0.00  0.00    +0.047 A 
ATOM     12  C   UNL     1     193.839-110.813 138.008  0.00  0.00    +0.035 A 
ATOM     32  C   UNL     1     192.847-109.807 138.197  0.00  0.00    +0.024 A 
ATOM     33  C   UNL     1     192.602-108.799 137.195  0.00  0.00    +0.007 A 
ATOM     34  C   UNL     1     193.354-108.784 135.973  0.00  0.00    -0.029 A 
ATOM     35  C   UNL     1     193.053-107.677 134.937  0.00  0.00    +0.045 C 
ENDROOT
BRANCH  10   9
ATOM      4  C   UNL     1     198.320-108.761 133.256  0.00  0.00    +0.077 A 
ATOM      5  C   UNL     1     198.901-108.046 134.356  0.00  0.00    +0.048 A 
ATOM      6  C   UNL     1     198.148-107.968 135.549  0.00  0.00    +0.116 A 
ATOM      7  N   UNL     1     196.909-108.565 135.626  0.00  0.00    -0.223 NA
ATOM      8  C   UNL     1     196.377-109.246 134.547  0.00  0.00    +0.220 A 
ATOM      9  N   UNL     1     195.136-109.860 134.604  0.00  0.00    -0.283 N 
ATOM     36  H   UNL     1     194.775-110.347 133.784  0.00  0.00    +0.155 HD
ATOM     37  N   UNL     1     197.075-109.333 133.395  0.00  0.00    -0.214 NA
BRANCH   4   3
ATOM      1  C   UNL     1     200.580-110.116 130.366  0.00  0.00    +0.020 A 
ATOM      2  C   UNL     1     199.959-109.992 131.664  0.00  0.00    +0.013 A 
ATOM      3  C   UNL     1     198.993-108.934 131.931  0.00  0.00    +0.019 A 
ATOM     38  C   UNL     1     198.676-108.009 130.853  0.00  0.00    +0.120 A 
ATOM     39  N   UNL     1     199.291-108.151 129.613  0.00  0.00    -0.263 NA
ATOM     40  C   UNL     1     200.223-109.165 129.346  0.00  0.00    +0.111 A 
ENDBRANCH   4   3
ENDBRANCH  10   9
BRANCH  12  13
ATOM     13  N   UNL     1     194.032-111.781 139.060  0.00  0.00    -0.281 N 
ATOM     14  C   UNL     1     195.175-112.007 139.809  0.00  0.00    +0.248 C 
ATOM     30  O   UNL     1     196.278-111.552 139.542  0.00  0.00    -0.270 OA
ATOM     31  H   UNL     1     193.229-112.371 139.278  0.00  0.00    +0.155 HD
BRANCH  14  15
ATOM     15  C   UNL     1     195.083-112.875 141.022  0.00  0.00    +0.037 A 
ATOM     16  C   UNL     1     195.531-114.270 140.994  0.00  0.00    +0.013 A 
ATOM     17  C   UNL     1     195.416-115.090 142.174  0.00  0.00    +0.005 A 
ATOM     18  C   UNL     1     194.850-114.516 143.393  0.00  0.00    -0.033 A 
ATOM     28  C   UNL     1     194.419-113.128 143.394  0.00  0.00    +0.005 A 
ATOM     29  C   UNL     1     194.529-112.321 142.239  0.00  0.00    +0.013 A 
BRANCH  18  19
ATOM     19  C   UNL     1     194.669-115.324 144.692  0.00  0.00    +0.119 C 
BRANCH  19  20
ATOM     20  N   UNL     1     195.660-115.091 145.785  0.00  0.00    -0.302 NA
ATOM     21  C   UNL     1     196.892-115.989 145.644  0.00  0.00    +0.066 C 
ATOM     22  C   UNL     1     197.928-115.717 146.783  0.00  0.00    -0.064 C 
ATOM     23  N   UNL     1     197.256-115.928 148.141  0.00  0.00    +0.379 N 
ATOM     24  C   UNL     1     198.243-115.729 149.213  0.00  0.00    -0.096 C 
ATOM     25  H   UNL     1     196.915-116.988 148.188  0.00  0.00    -0.082 HD
ATOM     26  C   UNL     1     196.028-115.041 148.288  0.00  0.00    -0.064 C 
ATOM     27  C   UNL     1     195.019-115.299 147.135  0.00  0.00    +0.066 C 
ENDBRANCH  19  20
ENDBRANCH  18  19
ENDBRANCH  14  15
ENDBRANCH  12  13
TORSDOF 6
ENDMDL
