MODEL 1
REMARK VINA RESULT:      -9.9      0.000      0.000
REMARK  Name = C:\Users\Docking\Desktop\test protocol\1iep_ligandH.pdb
REMARK  8 active torsions:
REMARK  status: ('A' for Active; 'I' for Inactive)
REMARK    1  A    between atoms: _5  and  _11
REMARK    2  A    between atoms: _19  and  _21
REMARK    3  A    between atoms: _22  and  _66
REMARK    4  A    between atoms: _27  and  _30
REMARK    5  A    between atoms: _32  and  _33
REMARK    6  A    between atoms: _38  and  _43
REMARK    7  A    between atoms: _43  and  _46
REMARK    8  A    between atoms: _53  and  _55
REMARK                            x       y       z     vdW  Elec       q    Type
REMARK                         _______ _______ _______ _____ _____    ______ ____
ROOT
ATOM     10  C   UNL     1     233.536-135.022 124.171  0.00  0.00    +0.038 A 
ATOM     11  C   UNL     1     232.674-135.578 123.191  0.00  0.00    +0.047 A 
ATOM     12  C   UNL     1     231.228-135.466 123.311  0.00  0.00    +0.035 A 
ATOM     32  C   UNL     1     230.695-134.779 124.440  0.00  0.00    +0.024 A 
ATOM     33  C   UNL     1     231.557-134.209 125.446  0.00  0.00    +0.007 A 
ATOM     34  C   UNL     1     232.984-134.318 125.334  0.00  0.00    -0.029 A 
ATOM     35  C   UNL     1     233.860-133.694 126.445  0.00  0.00    +0.045 C 
ENDROOT
BRANCH  10   9
ATOM      4  C   UNL     1     237.637-137.465 124.672  0.00  0.00    +0.077 A 
ATOM      5  C   UNL     1     236.979-138.548 125.344  0.00  0.00    +0.048 A 
ATOM      6  C   UNL     1     235.585-138.435 125.548  0.00  0.00    +0.116 A 
ATOM      7  N   UNL     1     234.910-137.317 125.107  0.00  0.00    -0.223 NA
ATOM      8  C   UNL     1     235.576-136.289 124.464  0.00  0.00    +0.220 A 
ATOM      9  N   UNL     1     234.916-135.159 124.005  0.00  0.00    -0.283 N 
ATOM     36  H   UNL     1     235.444-134.420 123.542  0.00  0.00    +0.155 HD
ATOM     37  N   UNL     1     236.907-136.373 124.259  0.00  0.00    -0.214 NA
BRANCH   4   3
ATOM      1  C   UNL     1     241.481-138.182 124.796  0.00  0.00    +0.020 A 
ATOM      2  C   UNL     1     240.073-138.243 125.117  0.00  0.00    +0.013 A 
ATOM      3  C   UNL     1     239.105-137.440 124.381  0.00  0.00    +0.019 A 
ATOM     38  C   UNL     1     239.598-136.579 123.316  0.00  0.00    +0.120 A 
ATOM     39  N   UNL     1     240.959-136.540 123.030  0.00  0.00    -0.263 NA
ATOM     40  C   UNL     1     241.900-137.307 123.733  0.00  0.00    +0.111 A 
ENDBRANCH   4   3
ENDBRANCH  10   9
BRANCH  12  13
ATOM     13  N   UNL     1     230.303-136.017 122.353  0.00  0.00    -0.281 N 
ATOM     14  C   UNL     1     229.771-135.402 121.231  0.00  0.00    +0.248 C 
ATOM     30  O   UNL     1     229.847-134.204 120.998  0.00  0.00    -0.270 OA
ATOM     31  H   UNL     1     230.003-136.977 122.521  0.00  0.00    +0.155 HD
BRANCH  14  15
ATOM     15  C   UNL     1     229.037-136.234 120.230  0.00  0.00    +0.037 A 
ATOM     16  C   UNL     1     228.806-135.754 118.865  0.00  0.00    +0.013 A 
ATOM     17  C   UNL     1     228.081-136.571 117.924  0.00  0.00    +0.005 A 
ATOM     18  C   UNL     1     227.581-137.877 118.346  0.00  0.00    -0.033 A 
ATOM     28  C   UNL     1     227.829-138.331 119.705  0.00  0.00    +0.005 A 
ATOM     29  C   UNL     1     228.539-137.533 120.630  0.00  0.00    +0.013 A 
BRANCH  18  19
ATOM     19  C   UNL     1     226.778-138.806 117.416  0.00  0.00    +0.119 C 
BRANCH  19  20
ATOM     20  N   UNL     1     225.289-138.742 117.505  0.00  0.00    -0.302 NA
ATOM     21  C   UNL     1     224.764-137.313 117.344  0.00  0.00    +0.066 C 
ATOM     22  C   UNL     1     223.203-137.268 117.418  0.00  0.00    -0.064 C 
ATOM     23  N   UNL     1     222.741-137.868 118.747  0.00  0.00    +0.379 N 
ATOM     24  C   UNL     1     221.277-137.775 118.845  0.00  0.00    -0.096 C 
ATOM     25  H   UNL     1     223.175-137.249 119.566  0.00  0.00    -0.082 HD
ATOM     26  C   UNL     1     223.261-139.289 118.917  0.00  0.00    -0.064 C 
ATOM     27  C   UNL     1     224.811-139.326 118.812  0.00  0.00    +0.066 C 
ENDBRANCH  19  20
ENDBRANCH  18  19
ENDBRANCH  14  15
ENDBRANCH  12  13
TORSDOF 6
ENDMDL
MODEL 2
REMARK VINA RESULT:      -9.9      5.961     13.390
REMARK  Name = C:\Users\Docking\Desktop\test protocol\1iep_ligandH.pdb
REMARK  8 active torsions:
REMARK  status: ('A' for Active; 'I' for Inactive)
REMARK    1  A    between atoms: _5  and  _11
REMARK    2  A    between atoms: _19  and  _21
REMARK    3  A    between atoms: _22  and  _66
REMARK    4  A    between atoms: _27  and  _30
REMARK    5  A    between atoms: _32  and  _33
REMARK    6  A    between atoms: _38  and  _43
REMARK    7  A    between atoms: _43  and  _46
REMARK    8  A    between atoms: _53  and  _55
REMARK                            x       y       z     vdW  Elec       q    Type
REMARK                         _______ _______ _______ _____ _____    ______ ____
ROOT
ATOM     10  C   UNL     1     226.810-135.090 120.129  0.00  0.00    +0.038 A 
ATOM     11  C   UNL     1     226.850-134.822 121.521  0.00  0.00    +0.047 A 
ATOM     12  C   UNL     1     228.105-134.531 122.196  0.00  0.00    +0.035 A 
ATOM     32  C   UNL     1     229.301-134.518 121.422  0.00  0.00    +0.024 A 
ATOM     33  C   UNL     1     229.280-134.788 120.006  0.00  0.00    +0.007 A 
ATOM     34  C   UNL     1     228.045-135.079 119.335  0.00  0.00    -0.029 A 
ATOM     35  C   UNL     1     228.082-135.368 117.816  0.00  0.00    +0.045 C 
ENDROOT
BRANCH  10   9
ATOM      4  C   UNL     1     223.359-138.124 118.742  0.00  0.00    +0.077 A 
ATOM      5  C   UNL     1     224.086-139.263 119.224  0.00  0.00    +0.048 A 
ATOM      6  C   UNL     1     225.347-139.026 119.815  0.00  0.00    +0.116 A 
ATOM      7  N   UNL     1     225.835-137.741 119.913  0.00  0.00    -0.223 NA
ATOM      8  C   UNL     1     225.109-136.665 119.437  0.00  0.00    +0.220 A 
ATOM      9  N   UNL     1     225.578-135.363 119.532  0.00  0.00    -0.283 N 
ATOM     36  H   UNL     1     225.015-134.597 119.162  0.00  0.00    +0.155 HD
ATOM     37  N   UNL     1     223.903-136.865 118.866  0.00  0.00    -0.214 NA
BRANCH   4   3
ATOM      1  C   UNL     1     219.554-137.658 117.965  0.00  0.00    +0.020 A 
ATOM      2  C   UNL     1     220.832-137.541 118.628  0.00  0.00    +0.013 A 
ATOM      3  C   UNL     1     222.012-138.212 118.096  0.00  0.00    +0.019 A 
ATOM     38  C   UNL     1     221.863-138.998 116.880  0.00  0.00    +0.120 A 
ATOM     39  N   UNL     1     220.619-139.093 116.264  0.00  0.00    -0.263 NA
ATOM     40  C   UNL     1     219.477-138.454 116.768  0.00  0.00    +0.111 A 
ENDBRANCH   4   3
ENDBRANCH  10   9
BRANCH  12  13
ATOM     13  N   UNL     1     228.207-134.260 123.609  0.00  0.00    -0.281 N 
ATOM     14  C   UNL     1     229.229-134.619 124.473  0.00  0.00    +0.248 C 
ATOM     30  O   UNL     1     230.113-135.418 124.203  0.00  0.00    -0.270 OA
ATOM     31  H   UNL     1     227.433-133.740 124.022  0.00  0.00    +0.155 HD
BRANCH  14  15
ATOM     15  C   UNL     1     229.265-134.015 125.839  0.00  0.00    +0.037 A 
ATOM     16  C   UNL     1     228.335-132.950 126.224  0.00  0.00    +0.013 A 
ATOM     17  C   UNL     1     228.403-132.372 127.542  0.00  0.00    +0.005 A 
ATOM     18  C   UNL     1     229.404-132.860 128.487  0.00  0.00    -0.033 A 
ATOM     28  C   UNL     1     230.311-133.921 128.081  0.00  0.00    +0.005 A 
ATOM     29  C   UNL     1     230.248-134.489 126.789  0.00  0.00    +0.013 A 
BRANCH  18  19
ATOM     19  C   UNL     1     229.562-132.287 129.908  0.00  0.00    +0.119 C 
BRANCH  19  20
ATOM     20  N   UNL     1     228.649-132.816 130.965  0.00  0.00    -0.302 NA
ATOM     21  C   UNL     1     227.588-131.790 131.373  0.00  0.00    +0.066 C 
ATOM     22  C   UNL     1     226.627-132.368 132.462  0.00  0.00    -0.064 C 
ATOM     23  N   UNL     1     227.445-132.813 133.676  0.00  0.00    +0.379 N 
ATOM     24  C   UNL     1     226.539-133.304 134.725  0.00  0.00    -0.096 C 
ATOM     25  H   UNL     1     227.972-131.916 134.076  0.00  0.00    -0.082 HD
ATOM     26  C   UNL     1     228.504-133.831 133.278  0.00  0.00    -0.064 C 
ATOM     27  C   UNL     1     229.436-133.257 132.174  0.00  0.00    +0.066 C 
ENDBRANCH  19  20
ENDBRANCH  18  19
ENDBRANCH  14  15
ENDBRANCH  12  13
TORSDOF 6
ENDMDL
MODEL 3
REMARK VINA RESULT:      -9.8      2.888     12.029
REMARK  Name = C:\Users\Docking\Desktop\test protocol\1iep_ligandH.pdb
REMARK  8 active torsions:
REMARK  status: ('A' for Active; 'I' for Inactive)
REMARK    1  A    between atoms: _5  and  _11
REMARK    2  A    between atoms: _19  and  _21
REMARK    3  A    between atoms: _22  and  _66
REMARK    4  A    between atoms: _27  and  _30
REMARK    5  A    between atoms: _32  and  _33
REMARK    6  A    between atoms: _38  and  _43
REMARK    7  A    between atoms: _43  and  _46
REMARK    8  A    between atoms: _53  and  _55
REMARK                            x       y       z     vdW  Elec       q    Type
REMARK                         _______ _______ _______ _____ _____    ______ ____
ROOT
ATOM     10  C   UNL     1     231.020-134.392 123.983  0.00  0.00    +0.038 A 
ATOM     11  C   UNL     1     232.355-134.869 123.946  0.00  0.00    +0.047 A 
ATOM     12  C   UNL     1     233.052-135.251 125.164  0.00  0.00    +0.035 A 
ATOM     32  C   UNL     1     232.357-135.136 126.404  0.00  0.00    +0.024 A 
ATOM     33  C   UNL     1     231.000-134.652 126.460  0.00  0.00    +0.007 A 
ATOM     34  C   UNL     1     230.309-134.272 125.261  0.00  0.00    -0.029 A 
ATOM     35  C   UNL     1     228.857-133.753 125.382  0.00  0.00    +0.045 C 
ENDROOT
BRANCH  10   9
ATOM      4  C   UNL     1     228.256-135.403 120.191  0.00  0.00    +0.077 A 
ATOM      5  C   UNL     1     228.053-136.756 120.625  0.00  0.00    +0.048 A 
ATOM      6  C   UNL     1     228.684-137.154 121.825  0.00  0.00    +0.116 A 
ATOM      7  N   UNL     1     229.457-136.257 122.531  0.00  0.00    -0.223 NA
ATOM      8  C   UNL     1     229.632-134.960 122.084  0.00  0.00    +0.220 A 
ATOM      9  N   UNL     1     230.399-134.040 122.782  0.00  0.00    -0.283 N 
ATOM     36  H   UNL     1     230.510-133.095 122.415  0.00  0.00    +0.155 HD
ATOM     37  N   UNL     1     229.042-134.557 120.940  0.00  0.00    -0.214 NA
BRANCH   4   3
ATOM      1  C   UNL     1     225.845-133.585 117.704  0.00  0.00    +0.020 A 
ATOM      2  C   UNL     1     226.383-134.117 118.935  0.00  0.00    +0.013 A 
ATOM      3  C   UNL     1     227.653-134.833 118.945  0.00  0.00    +0.019 A 
ATOM     38  C   UNL     1     228.359-134.994 117.683  0.00  0.00    +0.120 A 
ATOM     39  N   UNL     1     227.816-134.472 116.513  0.00  0.00    -0.263 NA
ATOM     40  C   UNL     1     226.594-133.782 116.491  0.00  0.00    +0.111 A 
ENDBRANCH   4   3
ENDBRANCH  10   9
BRANCH  12  13
ATOM     13  N   UNL     1     234.410-135.734 125.189  0.00  0.00    -0.281 N 
ATOM     14  C   UNL     1     234.906-136.908 124.646  0.00  0.00    +0.248 C 
ATOM     30  O   UNL     1     234.213-137.828 124.239  0.00  0.00    -0.270 OA
ATOM     31  H   UNL     1     235.088-135.139 125.665  0.00  0.00    +0.155 HD
BRANCH  14  15
ATOM     15  C   UNL     1     236.387-137.092 124.556  0.00  0.00    +0.037 A 
ATOM     16  C   UNL     1     237.244-136.068 123.954  0.00  0.00    +0.013 A 
ATOM     17  C   UNL     1     238.667-136.278 123.864  0.00  0.00    +0.005 A 
ATOM     18  C   UNL     1     239.242-137.519 124.378  0.00  0.00    -0.033 A 
ATOM     28  C   UNL     1     238.369-138.516 124.974  0.00  0.00    +0.005 A 
ATOM     29  C   UNL     1     236.973-138.314 125.064  0.00  0.00    +0.013 A 
BRANCH  18  19
ATOM     19  C   UNL     1     240.747-137.837 124.304  0.00  0.00    +0.119 C 
BRANCH  19  20
ATOM     20  N   UNL     1     241.402-137.737 122.966  0.00  0.00    -0.302 NA
ATOM     21  C   UNL     1     241.608-136.283 122.534  0.00  0.00    +0.066 C 
ATOM     22  C   UNL     1     242.315-136.197 121.142  0.00  0.00    -0.064 C 
ATOM     23  N   UNL     1     241.487-136.958 120.105  0.00  0.00    +0.379 N 
ATOM     24  C   UNL     1     242.119-136.830 118.784  0.00  0.00    -0.096 C 
ATOM     25  H   UNL     1     240.486-136.472 120.050  0.00  0.00    -0.082 HD
ATOM     26  C   UNL     1     241.276-138.404 120.528  0.00  0.00    -0.064 C 
ATOM     27  C   UNL     1     240.599-138.478 121.926  0.00  0.00    +0.066 C 
ENDBRANCH  19  20
ENDBRANCH  18  19
ENDBRANCH  14  15
ENDBRANCH  12  13
TORSDOF 6
ENDMDL
MODEL 4
REMARK VINA RESULT:      -9.8      6.046     13.368
REMARK  Name = C:\Users\Docking\Desktop\test protocol\1iep_ligandH.pdb
REMARK  8 active torsions:
REMARK  status: ('A' for Active; 'I' for Inactive)
REMARK    1  A    between atoms: _5  and  _11
REMARK    2  A    between atoms: _19  and  _21
REMARK    3  A    between atoms: _22  and  _66
REMARK    4  A    between atoms: _27  and  _30
REMARK    5  A    between atoms: _32  and  _33
REMARK    6  A    between atoms: _38  and  _43
REMARK    7  A    between atoms: _43  and  _46
REMARK    8  A    between atoms: _53  and  _55
REMARK                            x       y       z     vdW  Elec       q    Type
REMARK                         _______ _______ _______ _____ _____    ______ ____
ROOT
ATOM     10  C   UNL     1     226.783-137.490 120.783  0.00  0.00    +0.038 A 
ATOM     11  C   UNL     1     227.036-136.625 121.879  0.00  0.00    +0.047 A 
ATOM     12  C   UNL     1     228.386-136.418 122.378  0.00  0.00    +0.035 A 
ATOM     32  C   UNL     1     229.457-137.106 121.736  0.00  0.00    +0.024 A 
ATOM     33  C   UNL     1     229.218-137.990 120.622  0.00  0.00    +0.007 A 
ATOM     34  C   UNL     1     227.888-138.199 120.126  0.00  0.00    -0.029 A 
ATOM     35  C   UNL     1     227.690-139.163 118.933  0.00  0.00    +0.045 C 
ENDROOT
BRANCH  10   9
ATOM      4  C   UNL     1     223.077-136.284 117.982  0.00  0.00    +0.077 A 
ATOM      5  C   UNL     1     223.817-135.225 117.358  0.00  0.00    +0.048 A 
ATOM      6  C   UNL     1     225.146-135.018 117.792  0.00  0.00    +0.116 A 
ATOM      7  N   UNL     1     225.684-135.818 118.776  0.00  0.00    -0.223 NA
ATOM      8  C   UNL     1     224.943-136.830 119.358  0.00  0.00    +0.220 A 
ATOM      9  N   UNL     1     225.467-137.651 120.345  0.00  0.00    -0.283 N 
ATOM     36  H   UNL     1     224.885-138.382 120.754  0.00  0.00    +0.155 HD
ATOM     37  N   UNL     1     223.671-137.046 118.963  0.00  0.00    -0.214 NA
BRANCH   4   3
ATOM      1  C   UNL     1     219.613-136.438 116.172  0.00  0.00    +0.020 A 
ATOM      2  C   UNL     1     220.979-136.073 116.468  0.00  0.00    +0.013 A 
ATOM      3  C   UNL     1     221.663-136.627 117.630  0.00  0.00    +0.019 A 
ATOM     38  C   UNL     1     220.931-137.556 118.478  0.00  0.00    +0.120 A 
ATOM     39  N   UNL     1     219.616-137.888 118.169  0.00  0.00    -0.263 NA
ATOM     40  C   UNL     1     218.946-137.360 117.055  0.00  0.00    +0.111 A 
ENDBRANCH   4   3
ENDBRANCH  10   9
BRANCH  12  13
ATOM     13  N   UNL     1     228.703-135.559 123.492  0.00  0.00    -0.281 N 
ATOM     14  C   UNL     1     228.943-134.195 123.474  0.00  0.00    +0.248 C 
ATOM     30  O   UNL     1     229.132-133.540 122.460  0.00  0.00    -0.270 OA
ATOM     31  H   UNL     1     228.757-136.012 124.405  0.00  0.00    +0.155 HD
BRANCH  14  15
ATOM     15  C   UNL     1     228.993-133.453 124.771  0.00  0.00    +0.037 A 
ATOM     16  C   UNL     1     228.889-131.993 124.816  0.00  0.00    +0.013 A 
ATOM     17  C   UNL     1     228.958-131.301 126.078  0.00  0.00    +0.005 A 
ATOM     18  C   UNL     1     229.131-132.071 127.308  0.00  0.00    -0.033 A 
ATOM     28  C   UNL     1     229.227-133.519 127.235  0.00  0.00    +0.005 A 
ATOM     29  C   UNL     1     229.160-134.201 125.999  0.00  0.00    +0.013 A 
BRANCH  18  19
ATOM     19  C   UNL     1     229.237-131.415 128.697  0.00  0.00    +0.119 C 
BRANCH  19  20
ATOM     20  N   UNL     1     228.179-131.754 129.696  0.00  0.00    -0.302 NA
ATOM     21  C   UNL     1     227.105-130.666 129.787  0.00  0.00    +0.066 C 
ATOM     22  C   UNL     1     225.994-131.048 130.819  0.00  0.00    -0.064 C 
ATOM     23  N   UNL     1     226.635-131.292 132.186  0.00  0.00    +0.379 N 
ATOM     24  C   UNL     1     225.587-131.594 133.172  0.00  0.00    -0.096 C 
ATOM     25  H   UNL     1     227.133-130.345 132.500  0.00  0.00    -0.082 HD
ATOM     26  C   UNL     1     227.706-132.371 132.104  0.00  0.00    -0.064 C 
ATOM     27  C   UNL     1     228.789-131.995 131.054  0.00  0.00    +0.066 C 
ENDBRANCH  19  20
ENDBRANCH  18  19
ENDBRANCH  14  15
ENDBRANCH  12  13
TORSDOF 6
ENDMDL
MODEL 5
REMARK VINA RESULT:      -9.5     21.351     26.225
REMARK  Name = C:\Users\Docking\Desktop\test protocol\1iep_ligandH.pdb
REMARK  8 active torsions:
REMARK  status: ('A' for Active; 'I' for Inactive)
REMARK    1  A    between atoms: _5  and  _11
REMARK    2  A    between atoms: _19  and  _21
REMARK    3  A    between atoms: _22  and  _66
REMARK    4  A    between atoms: _27  and  _30
REMARK    5  A    between atoms: _32  and  _33
REMARK    6  A    between atoms: _38  and  _43
REMARK    7  A    between atoms: _43  and  _46
REMARK    8  A    between atoms: _53  and  _55
REMARK                            x       y       z     vdW  Elec       q    Type
REMARK                         _______ _______ _______ _____ _____    ______ ____
ROOT
ATOM     10  C   UNL     1     222.998-121.880 104.582  0.00  0.00    +0.038 A 
ATOM     11  C   UNL     1     221.736-121.907 103.936  0.00  0.00    +0.047 A 
ATOM     12  C   UNL     1     221.449-121.036 102.807  0.00  0.00    +0.035 A 
ATOM     32  C   UNL     1     222.472-120.150 102.361  0.00  0.00    +0.024 A 
ATOM     33  C   UNL     1     223.761-120.108 103.006  0.00  0.00    +0.007 A 
ATOM     34  C   UNL     1     224.049-120.964 104.121  0.00  0.00    -0.029 A 
ATOM     35  C   UNL     1     225.445-120.872 104.779  0.00  0.00    +0.045 C 
ENDROOT
BRANCH  10   9
ATOM      4  C   UNL     1     224.053-126.188 106.415  0.00  0.00    +0.077 A 
ATOM      5  C   UNL     1     224.145-126.785 105.114  0.00  0.00    +0.048 A 
ATOM      6  C   UNL     1     223.907-125.951 103.999  0.00  0.00    +0.116 A 
ATOM      7  N   UNL     1     223.600-124.620 104.184  0.00  0.00    -0.223 NA
ATOM      8  C   UNL     1     223.518-124.076 105.452  0.00  0.00    +0.220 A 
ATOM      9  N   UNL     1     223.219-122.739 105.661  0.00  0.00    -0.283 N 
ATOM     36  H   UNL     1     223.161-122.377 106.613  0.00  0.00    +0.155 HD
ATOM     37  N   UNL     1     223.740-124.853 106.533  0.00  0.00    -0.214 NA
BRANCH   4   3
ATOM      1  C   UNL     1     224.349-127.103 110.207  0.00  0.00    +0.020 A 
ATOM      2  C   UNL     1     224.117-126.334 109.006  0.00  0.00    +0.013 A 
ATOM      3  C   UNL     1     224.281-126.939 107.691  0.00  0.00    +0.019 A 
ATOM     38  C   UNL     1     224.684-128.336 107.624  0.00  0.00    +0.120 A 
ATOM     39  N   UNL     1     224.902-129.051 108.797  0.00  0.00    -0.263 NA
ATOM     40  C   UNL     1     224.749-128.479 110.069  0.00  0.00    +0.111 A 
ENDBRANCH   4   3
ENDBRANCH  10   9
BRANCH  12  13
ATOM     13  N   UNL     1     220.183-121.014 102.117  0.00  0.00    -0.281 N 
ATOM     14  C   UNL     1     219.734-121.879 101.134  0.00  0.00    +0.248 C 
ATOM     30  O   UNL     1     220.442-122.681 100.543  0.00  0.00    -0.270 OA
ATOM     31  H   UNL     1     219.539-120.269 102.387  0.00  0.00    +0.155 HD
BRANCH  14  15
ATOM     15  C   UNL     1     218.293-121.838 100.738  0.00  0.00    +0.037 A 
ATOM     16  C   UNL     1     217.255-122.426 101.589  0.00  0.00    +0.013 A 
ATOM     17  C   UNL     1     215.874-122.387 101.176  0.00  0.00    +0.005 A 
ATOM     18  C   UNL     1     215.524-121.758  99.905  0.00  0.00    -0.033 A 
ATOM     28  C   UNL     1     216.573-121.179  99.083  0.00  0.00    +0.005 A 
ATOM     29  C   UNL     1     217.928-121.215  99.484  0.00  0.00    +0.013 A 
BRANCH  18  19
ATOM     19  C   UNL     1     214.079-121.690  99.375  0.00  0.00    +0.119 C 
BRANCH  19  20
ATOM     20  N   UNL     1     212.989-122.102 100.309  0.00  0.00    -0.302 NA
ATOM     21  C   UNL     1     212.009-123.079  99.652  0.00  0.00    +0.066 C 
ATOM     22  C   UNL     1     210.888-123.517 100.649  0.00  0.00    -0.064 C 
ATOM     23  N   UNL     1     210.154-122.277 101.164  0.00  0.00    +0.379 N 
ATOM     24  C   UNL     1     209.061-122.689 102.057  0.00  0.00    -0.096 C 
ATOM     25  H   UNL     1     209.697-121.766 100.284  0.00  0.00    -0.082 HD
ATOM     26  C   UNL     1     211.121-121.299 101.816  0.00  0.00    -0.064 C 
ATOM     27  C   UNL     1     212.248-120.893 100.825  0.00  0.00    +0.066 C 
ENDBRANCH  19  20
ENDBRANCH  18  19
ENDBRANCH  14  15
ENDBRANCH  12  13
TORSDOF 6
ENDMDL
