MODEL 1
REMARK VINA RESULT:      -9.3      0.000      0.000
REMARK  Name = C:\Users\Docking\Desktop\test protocol\1iep_ligandH.pdb
REMARK  8 active torsions:
REMARK  status: ('A' for Active; 'I' for Inactive)
REMARK    1  A    between atoms: _5  and  _11
REMARK    2  A    between atoms: _19  and  _21
REMARK    3  A    between atoms: _22  and  _66
REMARK    4  A    between atoms: _27  and  _30
REMARK    5  A    between atoms: _32  and  _33
REMARK    6  A    between atoms: _38  and  _43
REMARK    7  A    between atoms: _43  and  _46
REMARK    8  A    between atoms: _53  and  _55
REMARK                            x       y       z     vdW  Elec       q    Type
REMARK                         _______ _______ _______ _____ _____    ______ ____
ROOT
ATOM     10  C   UNL     1     258.330 -96.017 153.446  0.00  0.00    +0.038 A 
ATOM     11  C   UNL     1     256.942 -95.866 153.198  0.00  0.00    +0.047 A 
ATOM     12  C   UNL     1     256.409 -95.914 151.845  0.00  0.00    +0.035 A 
ATOM     32  C   UNL     1     257.320 -96.120 150.768  0.00  0.00    +0.024 A 
ATOM     33  C   UNL     1     258.734 -96.274 151.002  0.00  0.00    +0.007 A 
ATOM     34  C   UNL     1     259.265 -96.225 152.334  0.00  0.00    -0.029 A 
ATOM     35  C   UNL     1     260.791 -96.390 152.526  0.00  0.00    +0.045 C 
ENDROOT
BRANCH  10   9
ATOM      4  C   UNL     1     259.246 -93.639 157.514  0.00  0.00    +0.077 A 
ATOM      5  C   UNL     1     258.804 -92.394 156.955  0.00  0.00    +0.048 A 
ATOM      6  C   UNL     1     258.354 -92.407 155.615  0.00  0.00    +0.116 A 
ATOM      7  N   UNL     1     258.352 -93.583 154.898  0.00  0.00    -0.223 NA
ATOM      8  C   UNL     1     258.787 -94.766 155.466  0.00  0.00    +0.220 A 
ATOM      9  N   UNL     1     258.786 -95.963 154.765  0.00  0.00    -0.283 N 
ATOM     36  H   UNL     1     259.122 -96.812 155.218  0.00  0.00    +0.155 HD
ATOM     37  N   UNL     1     259.222 -94.780 156.743  0.00  0.00    -0.214 NA
BRANCH   4   3
ATOM      1  C   UNL     1     260.398 -92.855 161.169  0.00  0.00    +0.020 A 
ATOM      2  C   UNL     1     259.912 -92.658 159.823  0.00  0.00    +0.013 A 
ATOM      3  C   UNL     1     259.746 -93.787 158.917  0.00  0.00    +0.019 A 
ATOM     38  C   UNL     1     260.084 -95.115 159.408  0.00  0.00    +0.120 A 
ATOM     39  N   UNL     1     260.551 -95.275 160.709  0.00  0.00    -0.263 NA
ATOM     40  C   UNL     1     260.716 -94.195 161.589  0.00  0.00    +0.111 A 
ENDBRANCH   4   3
ENDBRANCH  10   9
BRANCH  12  13
ATOM     13  N   UNL     1     255.011 -95.758 151.531  0.00  0.00    -0.281 N 
ATOM     14  C   UNL     1     253.946 -96.519 151.987  0.00  0.00    +0.248 C 
ATOM     30  O   UNL     1     254.059 -97.587 152.570  0.00  0.00    -0.270 OA
ATOM     31  H   UNL     1     254.777 -94.996 150.895  0.00  0.00    +0.155 HD
BRANCH  14  15
ATOM     15  C   UNL     1     252.555 -96.029 151.748  0.00  0.00    +0.037 A 
ATOM     16  C   UNL     1     251.629 -96.762 150.881  0.00  0.00    +0.013 A 
ATOM     17  C   UNL     1     250.298 -96.258 150.654  0.00  0.00    +0.005 A 
ATOM     18  C   UNL     1     249.883 -95.014 151.298  0.00  0.00    -0.033 A 
ATOM     28  C   UNL     1     250.820 -94.310 152.159  0.00  0.00    +0.005 A 
ATOM     29  C   UNL     1     252.126 -94.800 152.382  0.00  0.00    +0.013 A 
BRANCH  18  19
ATOM     19  C   UNL     1     248.489 -94.391 151.096  0.00  0.00    +0.119 C 
BRANCH  19  20
ATOM     20  N   UNL     1     247.335 -95.071 151.756  0.00  0.00    -0.302 NA
ATOM     21  C   UNL     1     246.188 -95.338 150.776  0.00  0.00    +0.066 C 
ATOM     22  C   UNL     1     244.998 -96.070 151.478  0.00  0.00    -0.064 C 
ATOM     23  N   UNL     1     244.515 -95.231 152.662  0.00  0.00    +0.379 N 
ATOM     24  C   UNL     1     243.358 -95.888 153.289  0.00  0.00    -0.096 C 
ATOM     25  H   UNL     1     244.170 -94.249 152.263  0.00  0.00    -0.082 HD
ATOM     26  C   UNL     1     245.649 -94.959 153.640  0.00  0.00    -0.064 C 
ATOM     27  C   UNL     1     246.838 -94.258 152.926  0.00  0.00    +0.066 C 
ENDBRANCH  19  20
ENDBRANCH  18  19
ENDBRANCH  14  15
ENDBRANCH  12  13
TORSDOF 6
ENDMDL
MODEL 2
REMARK VINA RESULT:      -8.9      2.842     12.584
REMARK  Name = C:\Users\Docking\Desktop\test protocol\1iep_ligandH.pdb
REMARK  8 active torsions:
REMARK  status: ('A' for Active; 'I' for Inactive)
REMARK    1  A    between atoms: _5  and  _11
REMARK    2  A    between atoms: _19  and  _21
REMARK    3  A    between atoms: _22  and  _66
REMARK    4  A    between atoms: _27  and  _30
REMARK    5  A    between atoms: _32  and  _33
REMARK    6  A    between atoms: _38  and  _43
REMARK    7  A    between atoms: _43  and  _46
REMARK    8  A    between atoms: _53  and  _55
REMARK                            x       y       z     vdW  Elec       q    Type
REMARK                         _______ _______ _______ _____ _____    ______ ____
ROOT
ATOM     10  C   UNL     1     258.291 -95.338 151.908  0.00  0.00    +0.038 A 
ATOM     11  C   UNL     1     258.788 -94.609 153.019  0.00  0.00    +0.047 A 
ATOM     12  C   UNL     1     260.178 -94.723 153.433  0.00  0.00    +0.035 A 
ATOM     32  C   UNL     1     261.035 -95.587 152.690  0.00  0.00    +0.024 A 
ATOM     33  C   UNL     1     260.546 -96.336 151.560  0.00  0.00    +0.007 A 
ATOM     34  C   UNL     1     259.176 -96.230 151.148  0.00  0.00    -0.029 A 
ATOM     35  C   UNL     1     258.705 -97.061 149.932  0.00  0.00    +0.045 C 
ENDROOT
BRANCH  10   9
ATOM      4  C   UNL     1     253.642 -96.424 152.399  0.00  0.00    +0.077 A 
ATOM      5  C   UNL     1     253.914 -97.386 153.428  0.00  0.00    +0.048 A 
ATOM      6  C   UNL     1     255.265 -97.577 153.797  0.00  0.00    +0.116 A 
ATOM      7  N   UNL     1     256.260 -96.853 153.177  0.00  0.00    -0.223 NA
ATOM      8  C   UNL     1     255.963 -95.935 152.187  0.00  0.00    +0.220 A 
ATOM      9  N   UNL     1     256.948 -95.191 151.555  0.00  0.00    -0.283 N 
ATOM     36  H   UNL     1     256.688 -94.529 150.824  0.00  0.00    +0.155 HD
ATOM     37  N   UNL     1     254.681 -95.736 151.816  0.00  0.00    -0.214 NA
BRANCH   4   3
ATOM      1  C   UNL     1     250.260 -96.553 150.437  0.00  0.00    +0.020 A 
ATOM      2  C   UNL     1     251.590 -96.900 150.882  0.00  0.00    +0.013 A 
ATOM      3  C   UNL     1     252.265 -96.109 151.902  0.00  0.00    +0.019 A 
ATOM     38  C   UNL     1     251.561 -94.963 152.458  0.00  0.00    +0.120 A 
ATOM     39  N   UNL     1     250.281 -94.651 152.009  0.00  0.00    -0.263 NA
ATOM     40  C   UNL     1     249.622 -95.405 151.026  0.00  0.00    +0.111 A 
ENDBRANCH   4   3
ENDBRANCH  10   9
BRANCH  12  13
ATOM     13  N   UNL     1     260.737 -94.014 154.557  0.00  0.00    -0.281 N 
ATOM     14  C   UNL     1     260.091 -93.601 155.710  0.00  0.00    +0.248 C 
ATOM     30  O   UNL     1     258.877 -93.592 155.857  0.00  0.00    -0.270 OA
ATOM     31  H   UNL     1     261.730 -93.789 154.494  0.00  0.00    +0.155 HD
BRANCH  14  15
ATOM     15  C   UNL     1     260.909 -93.115 156.862  0.00  0.00    +0.037 A 
ATOM     16  C   UNL     1     262.237 -93.670 157.139  0.00  0.00    +0.013 A 
ATOM     17  C   UNL     1     262.999 -93.195 158.266  0.00  0.00    +0.005 A 
ATOM     18  C   UNL     1     262.434 -92.158 159.126  0.00  0.00    -0.033 A 
ATOM     28  C   UNL     1     261.117 -91.621 158.826  0.00  0.00    +0.005 A 
ATOM     29  C   UNL     1     260.367 -92.085 157.722  0.00  0.00    +0.013 A 
BRANCH  18  19
ATOM     19  C   UNL     1     263.168 -91.607 160.364  0.00  0.00    +0.119 C 
BRANCH  19  20
ATOM     20  N   UNL     1     263.215 -92.479 161.575  0.00  0.00    -0.302 NA
ATOM     21  C   UNL     1     261.823 -92.710 162.171  0.00  0.00    +0.066 C 
ATOM     22  C   UNL     1     261.889 -93.643 163.424  0.00  0.00    -0.064 C 
ATOM     23  N   UNL     1     262.828 -93.030 164.464  0.00  0.00    +0.379 N 
ATOM     24  C   UNL     1     262.847 -93.875 165.667  0.00  0.00    -0.096 C 
ATOM     25  H   UNL     1     262.410 -92.038 164.754  0.00  0.00    -0.082 HD
ATOM     26  C   UNL     1     264.213 -92.793 163.879  0.00  0.00    -0.064 C 
ATOM     27  C   UNL     1     264.134 -91.890 162.617  0.00  0.00    +0.066 C 
ENDBRANCH  19  20
ENDBRANCH  18  19
ENDBRANCH  14  15
ENDBRANCH  12  13
TORSDOF 6
ENDMDL
MODEL 3
REMARK VINA RESULT:      -8.9      5.885     12.980
REMARK  Name = C:\Users\Docking\Desktop\test protocol\1iep_ligandH.pdb
REMARK  8 active torsions:
REMARK  status: ('A' for Active; 'I' for Inactive)
REMARK    1  A    between atoms: _5  and  _11
REMARK    2  A    between atoms: _19  and  _21
REMARK    3  A    between atoms: _22  and  _66
REMARK    4  A    between atoms: _27  and  _30
REMARK    5  A    between atoms: _32  and  _33
REMARK    6  A    between atoms: _38  and  _43
REMARK    7  A    between atoms: _43  and  _46
REMARK    8  A    between atoms: _53  and  _55
REMARK                            x       y       z     vdW  Elec       q    Type
REMARK                         _______ _______ _______ _____ _____    ______ ____
ROOT
ATOM     10  C   UNL     1     258.209 -96.264 152.934  0.00  0.00    +0.038 A 
ATOM     11  C   UNL     1     258.856 -96.005 154.169  0.00  0.00    +0.047 A 
ATOM     12  C   UNL     1     258.206 -95.222 155.209  0.00  0.00    +0.035 A 
ATOM     32  C   UNL     1     256.896 -94.720 154.958  0.00  0.00    +0.024 A 
ATOM     33  C   UNL     1     256.224 -94.973 153.708  0.00  0.00    +0.007 A 
ATOM     34  C   UNL     1     256.861 -95.742 152.677  0.00  0.00    -0.029 A 
ATOM     35  C   UNL     1     256.096 -95.976 151.354  0.00  0.00    +0.045 C 
ENDROOT
BRANCH  10   9
ATOM      4  C   UNL     1     261.540 -96.775 149.516  0.00  0.00    +0.077 A 
ATOM      5  C   UNL     1     261.964 -95.410 149.642  0.00  0.00    +0.048 A 
ATOM      6  C   UNL     1     261.294 -94.608 150.593  0.00  0.00    +0.116 A 
ATOM      7  N   UNL     1     260.278 -95.141 151.356  0.00  0.00    -0.223 NA
ATOM      8  C   UNL     1     259.893 -96.461 151.208  0.00  0.00    +0.220 A 
ATOM      9  N   UNL     1     258.879 -97.021 151.970  0.00  0.00    -0.283 N 
ATOM     36  H   UNL     1     258.620 -97.997 151.826  0.00  0.00    +0.155 HD
ATOM     37  N   UNL     1     260.516 -97.248 150.306  0.00  0.00    -0.214 NA
BRANCH   4   3
ATOM      1  C   UNL     1     262.886 -98.454 146.250  0.00  0.00    +0.020 A 
ATOM      2  C   UNL     1     262.286 -97.480 147.132  0.00  0.00    +0.013 A 
ATOM      3  C   UNL     1     262.153 -97.749 148.558  0.00  0.00    +0.019 A 
ATOM     38  C   UNL     1     262.642 -99.023 149.064  0.00  0.00    +0.120 A 
ATOM     39  N   UNL     1     263.214 -99.942 148.191  0.00  0.00    -0.263 NA
ATOM     40  C   UNL     1     263.345 -99.695 146.816  0.00  0.00    +0.111 A 
ENDBRANCH   4   3
ENDBRANCH  10   9
BRANCH  12  13
ATOM     13  N   UNL     1     258.817 -94.920 156.480  0.00  0.00    -0.281 N 
ATOM     14  C   UNL     1     259.343 -93.712 156.906  0.00  0.00    +0.248 C 
ATOM     30  O   UNL     1     259.563 -92.757 156.175  0.00  0.00    -0.270 OA
ATOM     31  H   UNL     1     258.867 -95.691 157.146  0.00  0.00    +0.155 HD
BRANCH  14  15
ATOM     15  C   UNL     1     259.690 -93.545 158.351  0.00  0.00    +0.037 A 
ATOM     16  C   UNL     1     259.920 -94.704 159.216  0.00  0.00    +0.013 A 
ATOM     17  C   UNL     1     260.236 -94.515 160.610  0.00  0.00    +0.005 A 
ATOM     18  C   UNL     1     260.325 -93.159 161.146  0.00  0.00    -0.033 A 
ATOM     28  C   UNL     1     260.097 -92.027 160.264  0.00  0.00    +0.005 A 
ATOM     29  C   UNL     1     259.786 -92.208 158.898  0.00  0.00    +0.013 A 
BRANCH  18  19
ATOM     19  C   UNL     1     260.636 -92.864 162.625  0.00  0.00    +0.119 C 
BRANCH  19  20
ATOM     20  N   UNL     1     262.019 -93.158 163.105  0.00  0.00    -0.302 NA
ATOM     21  C   UNL     1     262.167 -92.924 164.611  0.00  0.00    +0.066 C 
ATOM     22  C   UNL     1     263.614 -93.258 165.100  0.00  0.00    -0.064 C 
ATOM     23  N   UNL     1     264.621 -92.412 164.319  0.00  0.00    +0.379 N 
ATOM     24  C   UNL     1     265.978 -92.682 164.817  0.00  0.00    -0.096 C 
ATOM     25  H   UNL     1     264.392 -91.340 164.523  0.00  0.00    -0.082 HD
ATOM     26  C   UNL     1     264.479 -92.637 162.821  0.00  0.00    -0.064 C 
ATOM     27  C   UNL     1     263.030 -92.330 162.350  0.00  0.00    +0.066 C 
ENDBRANCH  19  20
ENDBRANCH  18  19
ENDBRANCH  14  15
ENDBRANCH  12  13
TORSDOF 6
ENDMDL
MODEL 4
REMARK VINA RESULT:      -8.8     34.672     37.539
REMARK  Name = C:\Users\Docking\Desktop\test protocol\1iep_ligandH.pdb
REMARK  8 active torsions:
REMARK  status: ('A' for Active; 'I' for Inactive)
REMARK    1  A    between atoms: _5  and  _11
REMARK    2  A    between atoms: _19  and  _21
REMARK    3  A    between atoms: _22  and  _66
REMARK    4  A    between atoms: _27  and  _30
REMARK    5  A    between atoms: _32  and  _33
REMARK    6  A    between atoms: _38  and  _43
REMARK    7  A    between atoms: _43  and  _46
REMARK    8  A    between atoms: _53  and  _55
REMARK                            x       y       z     vdW  Elec       q    Type
REMARK                         _______ _______ _______ _____ _____    ______ ____
ROOT
ATOM     10  C   UNL     1     240.893 -65.250 145.329  0.00  0.00    +0.038 A 
ATOM     11  C   UNL     1     240.748 -64.150 144.444  0.00  0.00    +0.047 A 
ATOM     12  C   UNL     1     239.501 -63.917 143.732  0.00  0.00    +0.035 A 
ATOM     32  C   UNL     1     238.421 -64.822 143.946  0.00  0.00    +0.024 A 
ATOM     33  C   UNL     1     238.551 -65.945 144.841  0.00  0.00    +0.007 A 
ATOM     34  C   UNL     1     239.780 -66.182 145.544  0.00  0.00    -0.029 A 
ATOM     35  C   UNL     1     239.865 -67.405 146.486  0.00  0.00    +0.045 C 
ENDROOT
BRANCH  10   9
ATOM      4  C   UNL     1     243.770 -64.695 149.130  0.00  0.00    +0.077 A 
ATOM      5  C   UNL     1     242.769 -63.969 149.856  0.00  0.00    +0.048 A 
ATOM      6  C   UNL     1     241.529 -63.753 149.213  0.00  0.00    +0.116 A 
ATOM      7  N   UNL     1     241.318 -64.233 147.939  0.00  0.00    -0.223 NA
ATOM      8  C   UNL     1     242.306 -64.928 147.266  0.00  0.00    +0.220 A 
ATOM      9  N   UNL     1     242.112 -65.426 145.987  0.00  0.00    -0.283 N 
ATOM     36  H   UNL     1     242.868 -65.927 145.521  0.00  0.00    +0.155 HD
ATOM     37  N   UNL     1     243.499 -65.145 147.857  0.00  0.00    -0.214 NA
BRANCH   4   3
ATOM      1  C   UNL     1     247.224 -64.394 150.942  0.00  0.00    +0.020 A 
ATOM      2  C   UNL     1     245.917 -64.043 150.437  0.00  0.00    +0.013 A 
ATOM      3  C   UNL     1     245.129 -65.005 149.676  0.00  0.00    +0.019 A 
ATOM     38  C   UNL     1     245.698 -66.324 149.443  0.00  0.00    +0.120 A 
ATOM     39  N   UNL     1     246.960 -66.633 149.940  0.00  0.00    -0.263 NA
ATOM     40  C   UNL     1     247.728 -65.715 150.672  0.00  0.00    +0.111 A 
ENDBRANCH   4   3
ENDBRANCH  10   9
BRANCH  12  13
ATOM     13  N   UNL     1     239.298 -62.823 142.815  0.00  0.00    -0.281 N 
ATOM     14  C   UNL     1     239.385 -62.842 141.433  0.00  0.00    +0.248 C 
ATOM     30  O   UNL     1     239.864 -63.760 140.784  0.00  0.00    -0.270 OA
ATOM     31  H   UNL     1     239.061 -61.924 143.237  0.00  0.00    +0.155 HD
BRANCH  14  15
ATOM     15  C   UNL     1     238.882 -61.666 140.661  0.00  0.00    +0.037 A 
ATOM     16  C   UNL     1     237.560 -61.681 140.028  0.00  0.00    +0.013 A 
ATOM     17  C   UNL     1     237.106 -60.539 139.275  0.00  0.00    +0.005 A 
ATOM     18  C   UNL     1     237.974 -59.371 139.151  0.00  0.00    -0.033 A 
ATOM     28  C   UNL     1     239.278 -59.381 139.793  0.00  0.00    +0.005 A 
ATOM     29  C   UNL     1     239.728 -60.498 140.532  0.00  0.00    +0.013 A 
BRANCH  18  19
ATOM     19  C   UNL     1     237.580 -58.117 138.349  0.00  0.00    +0.119 C 
BRANCH  19  20
ATOM     20  N   UNL     1     236.143 -57.973 137.967  0.00  0.00    -0.302 NA
ATOM     21  C   UNL     1     235.971 -57.184 136.666  0.00  0.00    +0.066 C 
ATOM     22  C   UNL     1     234.463 -57.063 136.269  0.00  0.00    -0.064 C 
ATOM     23  N   UNL     1     233.690 -56.401 137.411  0.00  0.00    +0.379 N 
ATOM     24  C   UNL     1     232.284 -56.233 137.018  0.00  0.00    -0.096 C 
ATOM     25  H   UNL     1     234.122 -55.385 137.567  0.00  0.00    -0.082 HD
ATOM     26  C   UNL     1     233.858 -57.178 138.709  0.00  0.00    -0.064 C 
ATOM     27  C   UNL     1     235.362 -57.318 139.079  0.00  0.00    +0.066 C 
ENDBRANCH  19  20
ENDBRANCH  18  19
ENDBRANCH  14  15
ENDBRANCH  12  13
TORSDOF 6
ENDMDL
MODEL 5
REMARK VINA RESULT:      -8.6      8.474     11.208
REMARK  Name = C:\Users\Docking\Desktop\test protocol\1iep_ligandH.pdb
REMARK  8 active torsions:
REMARK  status: ('A' for Active; 'I' for Inactive)
REMARK    1  A    between atoms: _5  and  _11
REMARK    2  A    between atoms: _19  and  _21
REMARK    3  A    between atoms: _22  and  _66
REMARK    4  A    between atoms: _27  and  _30
REMARK    5  A    between atoms: _32  and  _33
REMARK    6  A    between atoms: _38  and  _43
REMARK    7  A    between atoms: _43  and  _46
REMARK    8  A    between atoms: _53  and  _55
REMARK                            x       y       z     vdW  Elec       q    Type
REMARK                         _______ _______ _______ _____ _____    ______ ____
ROOT
ATOM     10  C   UNL     1     261.588 -92.100 158.455  0.00  0.00    +0.038 A 
ATOM     11  C   UNL     1     261.892 -92.646 157.182  0.00  0.00    +0.047 A 
ATOM     12  C   UNL     1     260.860 -93.256 156.359  0.00  0.00    +0.035 A 
ATOM     32  C   UNL     1     259.527 -93.290 156.861  0.00  0.00    +0.024 A 
ATOM     33  C   UNL     1     259.200 -92.740 158.153  0.00  0.00    +0.007 A 
ATOM     34  C   UNL     1     260.214 -92.140 158.971  0.00  0.00    -0.029 A 
ATOM     35  C   UNL     1     259.807 -91.572 160.351  0.00  0.00    +0.045 C 
ENDROOT
BRANCH  10   9
ATOM      4  C   UNL     1     264.944 -92.293 161.880  0.00  0.00    +0.077 A 
ATOM      5  C   UNL     1     264.599 -93.642 162.226  0.00  0.00    +0.048 A 
ATOM      6  C   UNL     1     263.547 -94.247 161.502  0.00  0.00    +0.116 A 
ATOM      7  N   UNL     1     262.896 -93.547 160.510  0.00  0.00    -0.223 NA
ATOM      8  C   UNL     1     263.253 -92.247 160.203  0.00  0.00    +0.220 A 
ATOM      9  N   UNL     1     262.618 -91.526 159.204  0.00  0.00    -0.283 N 
ATOM     36  H   UNL     1     262.905 -90.567 159.013  0.00  0.00    +0.155 HD
ATOM     37  N   UNL     1     264.253 -91.645 160.881  0.00  0.00    -0.214 NA
BRANCH   4   3
ATOM      1  C   UNL     1     267.136 -90.508 164.585  0.00  0.00    +0.020 A 
ATOM      2  C   UNL     1     266.058 -91.261 163.986  0.00  0.00    +0.013 A 
ATOM      3  C   UNL     1     266.036 -91.518 162.552  0.00  0.00    +0.019 A 
ATOM     38  C   UNL     1     267.128 -90.996 161.745  0.00  0.00    +0.120 A 
ATOM     39  N   UNL     1     268.152 -90.272 162.349  0.00  0.00    -0.263 NA
ATOM     40  C   UNL     1     268.183 -90.017 163.728  0.00  0.00    +0.111 A 
ENDBRANCH   4   3
ENDBRANCH  10   9
BRANCH  12  13
ATOM     13  N   UNL     1     261.112 -93.835 155.062  0.00  0.00    -0.281 N 
ATOM     14  C   UNL     1     261.127 -95.176 154.716  0.00  0.00    +0.248 C 
ATOM     30  O   UNL     1     261.137 -96.097 155.520  0.00  0.00    -0.270 OA
ATOM     31  H   UNL     1     261.302 -93.175 154.307  0.00  0.00    +0.155 HD
BRANCH  14  15
ATOM     15  C   UNL     1     261.149 -95.549 153.269  0.00  0.00    +0.037 A 
ATOM     16  C   UNL     1     260.949 -94.543 152.222  0.00  0.00    +0.013 A 
ATOM     17  C   UNL     1     260.958 -94.932 150.834  0.00  0.00    +0.005 A 
ATOM     18  C   UNL     1     261.168 -96.335 150.485  0.00  0.00    -0.033 A 
ATOM     28  C   UNL     1     261.369 -97.311 151.543  0.00  0.00    +0.005 A 
ATOM     29  C   UNL     1     261.360 -96.933 152.905  0.00  0.00    +0.013 A 
BRANCH  18  19
ATOM     19  C   UNL     1     261.172 -96.843 149.031  0.00  0.00    +0.119 C 
BRANCH  19  20
ATOM     20  N   UNL     1     262.284 -97.755 148.629  0.00  0.00    -0.302 NA
ATOM     21  C   UNL     1     262.606 -97.644 147.136  0.00  0.00    +0.066 C 
ATOM     22  C   UNL     1     263.786 -98.589 146.736  0.00  0.00    -0.064 C 
ATOM     23  N   UNL     1     263.431-100.029 147.108  0.00  0.00    +0.379 N 
ATOM     24  C   UNL     1     264.514-100.927 146.681  0.00  0.00    -0.096 C 
ATOM     25  H   UNL     1     262.514-100.309 146.538  0.00  0.00    -0.082 HD
ATOM     26  C   UNL     1     263.106-100.148 148.590  0.00  0.00    -0.064 C 
ATOM     27  C   UNL     1     261.952 -99.184 148.983  0.00  0.00    +0.066 C 
ENDBRANCH  19  20
ENDBRANCH  18  19
ENDBRANCH  14  15
ENDBRANCH  12  13
TORSDOF 6
ENDMDL
