MODEL 1
REMARK VINA RESULT:     -10.6      0.000      0.000
REMARK  Name = C:\Users\Docking\Desktop\test protocol\1iep_ligandH.pdb
REMARK  8 active torsions:
REMARK  status: ('A' for Active; 'I' for Inactive)
REMARK    1  A    between atoms: _5  and  _11
REMARK    2  A    between atoms: _19  and  _21
REMARK    3  A    between atoms: _22  and  _66
REMARK    4  A    between atoms: _27  and  _30
REMARK    5  A    between atoms: _32  and  _33
REMARK    6  A    between atoms: _38  and  _43
REMARK    7  A    between atoms: _43  and  _46
REMARK    8  A    between atoms: _53  and  _55
REMARK                            x       y       z     vdW  Elec       q    Type
REMARK                         _______ _______ _______ _____ _____    ______ ____
ROOT
ATOM     10  C   UNL     1    -108.097 -76.984 -27.958  0.00  0.00    +0.038 A 
ATOM     11  C   UNL     1    -107.031 -76.356 -27.266  0.00  0.00    +0.047 A 
ATOM     12  C   UNL     1    -105.644 -76.658 -27.587  0.00  0.00    +0.035 A 
ATOM     32  C   UNL     1    -105.380 -77.603 -28.620  0.00  0.00    +0.024 A 
ATOM     33  C   UNL     1    -106.453 -78.252 -29.333  0.00  0.00    +0.007 A 
ATOM     34  C   UNL     1    -107.822 -77.960 -29.019  0.00  0.00    -0.029 A 
ATOM     35  C   UNL     1    -108.931 -78.691 -29.812  0.00  0.00    +0.045 C 
ENDROOT
BRANCH  10   9
ATOM      4  C   UNL     1    -112.030 -77.556 -25.266  0.00  0.00    +0.077 A 
ATOM      5  C   UNL     1    -111.429 -78.615 -24.508  0.00  0.00    +0.048 A 
ATOM      6  C   UNL     1    -110.108 -78.987 -24.847  0.00  0.00    +0.116 A 
ATOM      7  N   UNL     1    -109.448 -78.341 -25.870  0.00  0.00    -0.223 NA
ATOM      8  C   UNL     1    -110.058 -77.325 -26.582  0.00  0.00    +0.220 A 
ATOM      9  N   UNL     1    -109.410 -76.657 -27.609  0.00  0.00    -0.283 N 
ATOM     36  H   UNL     1    -109.896 -75.917 -28.116  0.00  0.00    +0.155 HD
ATOM     37  N   UNL     1    -111.318 -76.952 -26.279  0.00  0.00    -0.214 NA
BRANCH   4   3
ATOM      1  C   UNL     1    -115.234 -76.125 -23.537  0.00  0.00    +0.020 A 
ATOM      2  C   UNL     1    -113.884 -76.609 -23.716  0.00  0.00    +0.013 A 
ATOM      3  C   UNL     1    -113.417 -77.047 -25.025  0.00  0.00    +0.019 A 
ATOM     38  C   UNL     1    -114.348 -76.982 -26.142  0.00  0.00    +0.120 A 
ATOM     39  N   UNL     1    -115.642 -76.513 -25.939  0.00  0.00    -0.263 NA
ATOM     40  C   UNL     1    -116.103 -76.090 -24.684  0.00  0.00    +0.111 A 
ENDBRANCH   4   3
ENDBRANCH  10   9
BRANCH  12  13
ATOM     13  N   UNL     1    -104.520 -76.057 -26.913  0.00  0.00    -0.281 N 
ATOM     14  C   UNL     1    -104.436 -74.790 -26.360  0.00  0.00    +0.248 C 
ATOM     30  O   UNL     1    -105.250 -73.898 -26.549  0.00  0.00    -0.270 OA
ATOM     31  H   UNL     1    -103.684 -76.636 -26.835  0.00  0.00    +0.155 HD
BRANCH  14  15
ATOM     15  C   UNL     1    -103.273 -74.461 -25.480  0.00  0.00    +0.037 A 
ATOM     16  C   UNL     1    -103.055 -75.167 -24.215  0.00  0.00    +0.013 A 
ATOM     17  C   UNL     1    -101.934 -74.819 -23.377  0.00  0.00    +0.005 A 
ATOM     18  C   UNL     1    -101.023 -73.759 -23.803  0.00  0.00    -0.033 A 
ATOM     28  C   UNL     1    -101.261 -73.080 -25.066  0.00  0.00    +0.005 A 
ATOM     29  C   UNL     1    -102.358 -73.418 -25.889  0.00  0.00    +0.013 A 
BRANCH  18  19
ATOM     19  C   UNL     1     -99.814 -73.308 -22.963  0.00  0.00    +0.119 C 
BRANCH  19  20
ATOM     20  N   UNL     1     -98.542 -73.026 -23.692  0.00  0.00    -0.302 NA
ATOM     21  C   UNL     1     -97.658 -74.271 -23.807  0.00  0.00    +0.066 C 
ATOM     22  C   UNL     1     -96.341 -73.963 -24.592  0.00  0.00    -0.064 C 
ATOM     23  N   UNL     1     -95.589 -72.828 -23.896  0.00  0.00    +0.379 N 
ATOM     24  C   UNL     1     -94.322 -72.576 -24.598  0.00  0.00    -0.096 C 
ATOM     25  H   UNL     1     -95.342 -73.170 -22.864  0.00  0.00    -0.082 HD
ATOM     26  C   UNL     1     -96.461 -71.587 -23.774  0.00  0.00    -0.064 C 
ATOM     27  C   UNL     1     -97.781 -71.910 -23.018  0.00  0.00    +0.066 C 
ENDBRANCH  19  20
ENDBRANCH  18  19
ENDBRANCH  14  15
ENDBRANCH  12  13
TORSDOF 6
ENDMDL
MODEL 2
REMARK VINA RESULT:     -10.4      1.439      2.072
REMARK  Name = C:\Users\Docking\Desktop\test protocol\1iep_ligandH.pdb
REMARK  8 active torsions:
REMARK  status: ('A' for Active; 'I' for Inactive)
REMARK    1  A    between atoms: _5  and  _11
REMARK    2  A    between atoms: _19  and  _21
REMARK    3  A    between atoms: _22  and  _66
REMARK    4  A    between atoms: _27  and  _30
REMARK    5  A    between atoms: _32  and  _33
REMARK    6  A    between atoms: _38  and  _43
REMARK    7  A    between atoms: _43  and  _46
REMARK    8  A    between atoms: _53  and  _55
REMARK                            x       y       z     vdW  Elec       q    Type
REMARK                         _______ _______ _______ _____ _____    ______ ____
ROOT
ATOM     10  C   UNL     1    -108.285 -77.178 -26.627  0.00  0.00    +0.038 A 
ATOM     11  C   UNL     1    -107.115 -76.572 -26.104  0.00  0.00    +0.047 A 
ATOM     12  C   UNL     1    -105.878 -76.539 -26.868  0.00  0.00    +0.035 A 
ATOM     32  C   UNL     1    -105.870 -77.131 -28.165  0.00  0.00    +0.024 A 
ATOM     33  C   UNL     1    -107.050 -77.752 -28.713  0.00  0.00    +0.007 A 
ATOM     34  C   UNL     1    -108.272 -77.789 -27.962  0.00  0.00    -0.029 A 
ATOM     35  C   UNL     1    -109.506 -78.474 -28.596  0.00  0.00    +0.045 C 
ENDROOT
BRANCH  10   9
ATOM      4  C   UNL     1    -112.335 -75.134 -25.060  0.00  0.00    +0.077 A 
ATOM      5  C   UNL     1    -112.107 -73.948 -25.835  0.00  0.00    +0.048 A 
ATOM      6  C   UNL     1    -110.932 -73.902 -26.618  0.00  0.00    +0.116 A 
ATOM      7  N   UNL     1    -110.058 -74.967 -26.619  0.00  0.00    -0.223 NA
ATOM      8  C   UNL     1    -110.307 -76.094 -25.858  0.00  0.00    +0.220 A 
ATOM      9  N   UNL     1    -109.445 -77.181 -25.850  0.00  0.00    -0.283 N 
ATOM     36  H   UNL     1    -109.661 -77.991 -25.269  0.00  0.00    +0.155 HD
ATOM     37  N   UNL     1    -111.421 -76.163 -25.101  0.00  0.00    -0.214 NA
BRANCH   4   3
ATOM      1  C   UNL     1    -115.416 -76.734 -23.259  0.00  0.00    +0.020 A 
ATOM      2  C   UNL     1    -114.266 -76.593 -24.121  0.00  0.00    +0.013 A 
ATOM      3  C   UNL     1    -113.533 -75.334 -24.184  0.00  0.00    +0.019 A 
ATOM     38  C   UNL     1    -113.993 -74.231 -23.355  0.00  0.00    +0.120 A 
ATOM     39  N   UNL     1    -115.105 -74.396 -22.535  0.00  0.00    -0.263 NA
ATOM     40  C   UNL     1    -115.819 -75.602 -22.467  0.00  0.00    +0.111 A 
ENDBRANCH   4   3
ENDBRANCH  10   9
BRANCH  12  13
ATOM     13  N   UNL     1    -104.656 -75.946 -26.385  0.00  0.00    -0.281 N 
ATOM     14  C   UNL     1    -104.426 -74.621 -26.051  0.00  0.00    +0.248 C 
ATOM     30  O   UNL     1    -105.182 -73.699 -26.322  0.00  0.00    -0.270 OA
ATOM     31  H   UNL     1    -103.864 -76.579 -26.277  0.00  0.00    +0.155 HD
BRANCH  14  15
ATOM     15  C   UNL     1    -103.169 -74.267 -25.325  0.00  0.00    +0.037 A 
ATOM     16  C   UNL     1    -102.249 -73.254 -25.848  0.00  0.00    +0.013 A 
ATOM     17  C   UNL     1    -101.035 -72.943 -25.136  0.00  0.00    +0.005 A 
ATOM     18  C   UNL     1    -100.735 -73.646 -23.891  0.00  0.00    -0.033 A 
ATOM     28  C   UNL     1    -101.668 -74.643 -23.392  0.00  0.00    +0.005 A 
ATOM     29  C   UNL     1    -102.859 -74.951 -24.088  0.00  0.00    +0.013 A 
BRANCH  18  19
ATOM     19  C   UNL     1     -99.452 -73.394 -23.076  0.00  0.00    +0.119 C 
BRANCH  19  20
ATOM     20  N   UNL     1     -98.225 -73.009 -23.834  0.00  0.00    -0.302 NA
ATOM     21  C   UNL     1     -97.556 -74.217 -24.497  0.00  0.00    +0.066 C 
ATOM     22  C   UNL     1     -96.287 -73.792 -25.305  0.00  0.00    -0.064 C 
ATOM     23  N   UNL     1     -95.309 -73.076 -24.372  0.00  0.00    +0.379 N 
ATOM     24  C   UNL     1     -94.089 -72.727 -25.115  0.00  0.00    -0.096 C 
ATOM     25  H   UNL     1     -95.022 -73.793 -23.568  0.00  0.00    -0.082 HD
ATOM     26  C   UNL     1     -95.966 -71.875 -23.707  0.00  0.00    -0.064 C 
ATOM     27  C   UNL     1     -97.243 -72.304 -22.931  0.00  0.00    +0.066 C 
ENDBRANCH  19  20
ENDBRANCH  18  19
ENDBRANCH  14  15
ENDBRANCH  12  13
TORSDOF 6
ENDMDL
MODEL 3
REMARK VINA RESULT:     -10.1      2.452     12.570
REMARK  Name = C:\Users\Docking\Desktop\test protocol\1iep_ligandH.pdb
REMARK  8 active torsions:
REMARK  status: ('A' for Active; 'I' for Inactive)
REMARK    1  A    between atoms: _5  and  _11
REMARK    2  A    between atoms: _19  and  _21
REMARK    3  A    between atoms: _22  and  _66
REMARK    4  A    between atoms: _27  and  _30
REMARK    5  A    between atoms: _32  and  _33
REMARK    6  A    between atoms: _38  and  _43
REMARK    7  A    between atoms: _43  and  _46
REMARK    8  A    between atoms: _53  and  _55
REMARK                            x       y       z     vdW  Elec       q    Type
REMARK                         _______ _______ _______ _____ _____    ______ ____
ROOT
ATOM     10  C   UNL     1    -106.354 -77.370 -27.545  0.00  0.00    +0.038 A 
ATOM     11  C   UNL     1    -107.663 -77.182 -27.031  0.00  0.00    +0.047 A 
ATOM     12  C   UNL     1    -108.837 -77.519 -27.821  0.00  0.00    +0.035 A 
ATOM     32  C   UNL     1    -108.641 -78.047 -29.131  0.00  0.00    +0.024 A 
ATOM     33  C   UNL     1    -107.318 -78.243 -29.669  0.00  0.00    +0.007 A 
ATOM     34  C   UNL     1    -106.156 -77.910 -28.895  0.00  0.00    -0.029 A 
ATOM     35  C   UNL     1    -104.762 -78.135 -29.526  0.00  0.00    +0.045 C 
ENDROOT
BRANCH  10   9
ATOM      4  C   UNL     1    -103.476 -74.144 -25.460  0.00  0.00    +0.077 A 
ATOM      5  C   UNL     1    -104.191 -73.043 -26.039  0.00  0.00    +0.048 A 
ATOM      6  C   UNL     1    -105.290 -73.351 -26.873  0.00  0.00    +0.116 A 
ATOM      7  N   UNL     1    -105.638 -74.664 -27.104  0.00  0.00    -0.223 NA
ATOM      8  C   UNL     1    -104.925 -75.702 -26.531  0.00  0.00    +0.220 A 
ATOM      9  N   UNL     1    -105.263 -77.029 -26.743  0.00  0.00    -0.283 N 
ATOM     36  H   UNL     1    -104.707 -77.766 -26.308  0.00  0.00    +0.155 HD
ATOM     37  N   UNL     1    -103.872 -75.434 -25.732  0.00  0.00    -0.214 NA
BRANCH   4   3
ATOM      1  C   UNL     1    -100.168 -72.829 -23.838  0.00  0.00    +0.020 A 
ATOM      2  C   UNL     1    -101.290 -72.943 -24.742  0.00  0.00    +0.013 A 
ATOM      3  C   UNL     1    -102.295 -73.981 -24.554  0.00  0.00    +0.019 A 
ATOM     38  C   UNL     1    -102.136 -74.894 -23.432  0.00  0.00    +0.120 A 
ATOM     39  N   UNL     1    -101.045 -74.761 -22.579  0.00  0.00    -0.263 NA
ATOM     40  C   UNL     1    -100.070 -73.767 -22.751  0.00  0.00    +0.111 A 
ENDBRANCH   4   3
ENDBRANCH  10   9
BRANCH  12  13
ATOM     13  N   UNL     1    -110.190 -77.343 -27.355  0.00  0.00    -0.281 N 
ATOM     14  C   UNL     1    -110.845 -78.044 -26.356  0.00  0.00    +0.248 C 
ATOM     30  O   UNL     1    -110.431 -79.079 -25.853  0.00  0.00    -0.270 OA
ATOM     31  H   UNL     1    -110.731 -76.613 -27.819  0.00  0.00    +0.155 HD
BRANCH  14  15
ATOM     15  C   UNL     1    -112.154 -77.530 -25.852  0.00  0.00    +0.037 A 
ATOM     16  C   UNL     1    -112.315 -77.091 -24.464  0.00  0.00    +0.013 A 
ATOM     17  C   UNL     1    -113.594 -76.615 -23.999  0.00  0.00    +0.005 A 
ATOM     18  C   UNL     1    -114.723 -76.574 -24.925  0.00  0.00    -0.033 A 
ATOM     28  C   UNL     1    -114.534 -77.011 -26.299  0.00  0.00    +0.005 A 
ATOM     29  C   UNL     1    -113.282 -77.479 -26.758  0.00  0.00    +0.013 A 
BRANCH  18  19
ATOM     19  C   UNL     1    -116.128 -76.101 -24.510  0.00  0.00    +0.119 C 
BRANCH  19  20
ATOM     20  N   UNL     1    -116.213 -74.897 -23.631  0.00  0.00    -0.302 NA
ATOM     21  C   UNL     1    -116.708 -75.247 -22.225  0.00  0.00    +0.066 C 
ATOM     22  C   UNL     1    -116.769 -73.980 -21.311  0.00  0.00    -0.064 C 
ATOM     23  N   UNL     1    -117.674 -72.931 -21.959  0.00  0.00    +0.379 N 
ATOM     24  C   UNL     1    -117.780 -71.761 -21.075  0.00  0.00    -0.096 C 
ATOM     25  H   UNL     1    -118.692 -73.375 -22.054  0.00  0.00    -0.082 HD
ATOM     26  C   UNL     1    -117.191 -72.579 -23.358  0.00  0.00    -0.064 C 
ATOM     27  C   UNL     1    -117.106 -73.850 -24.249  0.00  0.00    +0.066 C 
ENDBRANCH  19  20
ENDBRANCH  18  19
ENDBRANCH  14  15
ENDBRANCH  12  13
TORSDOF 6
ENDMDL
MODEL 4
REMARK VINA RESULT:      -9.8     40.714     43.664
REMARK  Name = C:\Users\Docking\Desktop\test protocol\1iep_ligandH.pdb
REMARK  8 active torsions:
REMARK  status: ('A' for Active; 'I' for Inactive)
REMARK    1  A    between atoms: _5  and  _11
REMARK    2  A    between atoms: _19  and  _21
REMARK    3  A    between atoms: _22  and  _66
REMARK    4  A    between atoms: _27  and  _30
REMARK    5  A    between atoms: _32  and  _33
REMARK    6  A    between atoms: _38  and  _43
REMARK    7  A    between atoms: _43  and  _46
REMARK    8  A    between atoms: _53  and  _55
REMARK                            x       y       z     vdW  Elec       q    Type
REMARK                         _______ _______ _______ _____ _____    ______ ____
ROOT
ATOM     10  C   UNL     1    -144.394 -61.288 -15.220  0.00  0.00    +0.038 A 
ATOM     11  C   UNL     1    -144.700 -62.029 -14.050  0.00  0.00    +0.047 A 
ATOM     12  C   UNL     1    -143.971 -61.814 -12.810  0.00  0.00    +0.035 A 
ATOM     32  C   UNL     1    -142.937 -60.833 -12.796  0.00  0.00    +0.024 A 
ATOM     33  C   UNL     1    -142.612 -60.071 -13.976  0.00  0.00    +0.007 A 
ATOM     34  C   UNL     1    -143.326 -60.281 -15.203  0.00  0.00    -0.029 A 
ATOM     35  C   UNL     1    -142.930 -59.439 -16.438  0.00  0.00    +0.045 C 
ENDROOT
BRANCH  10   9
ATOM      4  C   UNL     1    -145.177 -63.699 -19.295  0.00  0.00    +0.077 A 
ATOM      5  C   UNL     1    -144.014 -64.517 -19.104  0.00  0.00    +0.048 A 
ATOM      6  C   UNL     1    -143.237 -64.280 -17.948  0.00  0.00    +0.116 A 
ATOM      7  N   UNL     1    -143.606 -63.297 -17.056  0.00  0.00    -0.223 NA
ATOM      8  C   UNL     1    -144.732 -62.524 -17.271  0.00  0.00    +0.220 A 
ATOM      9  N   UNL     1    -145.126 -61.535 -16.383  0.00  0.00    -0.283 N 
ATOM     36  H   UNL     1    -145.959 -60.982 -16.582  0.00  0.00    +0.155 HD
ATOM     37  N   UNL     1    -145.490 -62.730 -18.368  0.00  0.00    -0.214 NA
BRANCH   4   3
ATOM      1  C   UNL     1    -147.802 -65.085 -21.843  0.00  0.00    +0.020 A 
ATOM      2  C   UNL     1    -146.926 -65.009 -20.696  0.00  0.00    +0.013 A 
ATOM      3  C   UNL     1    -146.101 -63.830 -20.466  0.00  0.00    +0.019 A 
ATOM     38  C   UNL     1    -146.186 -62.737 -21.423  0.00  0.00    +0.120 A 
ATOM     39  N   UNL     1    -147.037 -62.839 -22.519  0.00  0.00    -0.263 NA
ATOM     40  C   UNL     1    -147.835 -63.970 -22.751  0.00  0.00    +0.111 A 
ENDBRANCH   4   3
ENDBRANCH  10   9
BRANCH  12  13
ATOM     13  N   UNL     1    -144.232 -62.542 -11.594  0.00  0.00    -0.281 N 
ATOM     14  C   UNL     1    -145.069 -62.184 -10.549  0.00  0.00    +0.248 C 
ATOM     30  O   UNL     1    -145.559 -61.074 -10.406  0.00  0.00    -0.270 OA
ATOM     31  H   UNL     1    -143.741 -63.430 -11.490  0.00  0.00    +0.155 HD
BRANCH  14  15
ATOM     15  C   UNL     1    -145.397 -63.202  -9.505  0.00  0.00    +0.037 A 
ATOM     16  C   UNL     1    -145.762 -62.803  -8.144  0.00  0.00    +0.013 A 
ATOM     17  C   UNL     1    -146.058 -63.806  -7.151  0.00  0.00    +0.005 A 
ATOM     18  C   UNL     1    -145.990 -65.218  -7.518  0.00  0.00    -0.033 A 
ATOM     28  C   UNL     1    -145.631 -65.586  -8.877  0.00  0.00    +0.005 A 
ATOM     29  C   UNL     1    -145.339 -64.606  -9.853  0.00  0.00    +0.013 A 
BRANCH  18  19
ATOM     19  C   UNL     1    -146.269 -66.356  -6.518  0.00  0.00    +0.119 C 
BRANCH  19  20
ATOM     20  N   UNL     1    -145.169 -67.337  -6.274  0.00  0.00    -0.302 NA
ATOM     21  C   UNL     1    -145.428 -68.676  -6.971  0.00  0.00    +0.066 C 
ATOM     22  C   UNL     1    -144.257 -69.682  -6.725  0.00  0.00    -0.064 C 
ATOM     23  N   UNL     1    -144.069 -69.882  -5.220  0.00  0.00    +0.379 N 
ATOM     24  C   UNL     1    -143.007 -70.872  -4.985  0.00  0.00    -0.096 C 
ATOM     25  H   UNL     1    -145.019 -70.302  -4.814  0.00  0.00    -0.082 HD
ATOM     26  C   UNL     1    -143.814 -68.555  -4.518  0.00  0.00    -0.064 C 
ATOM     27  C   UNL     1    -144.969 -67.553  -4.794  0.00  0.00    +0.066 C 
ENDBRANCH  19  20
ENDBRANCH  18  19
ENDBRANCH  14  15
ENDBRANCH  12  13
TORSDOF 6
ENDMDL
MODEL 5
REMARK VINA RESULT:      -9.2     40.216     44.653
REMARK  Name = C:\Users\Docking\Desktop\test protocol\1iep_ligandH.pdb
REMARK  8 active torsions:
REMARK  status: ('A' for Active; 'I' for Inactive)
REMARK    1  A    between atoms: _5  and  _11
REMARK    2  A    between atoms: _19  and  _21
REMARK    3  A    between atoms: _22  and  _66
REMARK    4  A    between atoms: _27  and  _30
REMARK    5  A    between atoms: _32  and  _33
REMARK    6  A    between atoms: _38  and  _43
REMARK    7  A    between atoms: _43  and  _46
REMARK    8  A    between atoms: _53  and  _55
REMARK                            x       y       z     vdW  Elec       q    Type
REMARK                         _______ _______ _______ _____ _____    ______ ____
ROOT
ATOM     10  C   UNL     1    -143.412 -61.949 -15.441  0.00  0.00    +0.038 A 
ATOM     11  C   UNL     1    -143.749 -60.614 -15.783  0.00  0.00    +0.047 A 
ATOM     12  C   UNL     1    -143.038 -59.905 -16.835  0.00  0.00    +0.035 A 
ATOM     32  C   UNL     1    -141.990 -60.586 -17.521  0.00  0.00    +0.024 A 
ATOM     33  C   UNL     1    -141.634 -61.942 -17.186  0.00  0.00    +0.007 A 
ATOM     34  C   UNL     1    -142.330 -62.646 -16.147  0.00  0.00    -0.029 A 
ATOM     35  C   UNL     1    -141.902 -64.097 -15.825  0.00  0.00    +0.045 C 
ENDROOT
BRANCH  10   9
ATOM      4  C   UNL     1    -144.138 -63.034 -10.822  0.00  0.00    +0.077 A 
ATOM      5  C   UNL     1    -142.979 -62.300 -10.406  0.00  0.00    +0.048 A 
ATOM      6  C   UNL     1    -142.218 -61.663 -11.412  0.00  0.00    +0.116 A 
ATOM      7  N   UNL     1    -142.599 -61.760 -12.733  0.00  0.00    -0.223 NA
ATOM      8  C   UNL     1    -143.722 -62.478 -13.101  0.00  0.00    +0.220 A 
ATOM      9  N   UNL     1    -144.128 -62.582 -14.422  0.00  0.00    -0.283 N 
ATOM     36  H   UNL     1    -144.958 -63.127 -14.653  0.00  0.00    +0.155 HD
ATOM     37  N   UNL     1    -144.464 -63.096 -12.159  0.00  0.00    -0.214 NA
BRANCH   4   3
ATOM      1  C   UNL     1    -146.190 -65.841  -9.030  0.00  0.00    +0.020 A 
ATOM      2  C   UNL     1    -145.306 -65.190  -9.969  0.00  0.00    +0.013 A 
ATOM      3  C   UNL     1    -145.045 -63.759  -9.877  0.00  0.00    +0.019 A 
ATOM     38  C   UNL     1    -145.699 -63.011  -8.814  0.00  0.00    +0.120 A 
ATOM     39  N   UNL     1    -146.546 -63.665  -7.925  0.00  0.00    -0.263 NA
ATOM     40  C   UNL     1    -146.806 -65.041  -8.005  0.00  0.00    +0.111 A 
ENDBRANCH   4   3
ENDBRANCH  10   9
BRANCH  12  13
ATOM     13  N   UNL     1    -143.330 -58.546 -17.220  0.00  0.00    -0.281 N 
ATOM     14  C   UNL     1    -144.111 -58.110 -18.278  0.00  0.00    +0.248 C 
ATOM     30  O   UNL     1    -144.506 -58.826 -19.186  0.00  0.00    -0.270 OA
ATOM     31  H   UNL     1    -142.910 -57.817 -16.643  0.00  0.00    +0.155 HD
BRANCH  14  15
ATOM     15  C   UNL     1    -144.497 -56.668 -18.344  0.00  0.00    +0.037 A 
ATOM     16  C   UNL     1    -145.875 -56.262 -18.636  0.00  0.00    +0.013 A 
ATOM     17  C   UNL     1    -146.217 -54.864 -18.710  0.00  0.00    +0.005 A 
ATOM     18  C   UNL     1    -145.178 -53.860 -18.491  0.00  0.00    -0.033 A 
ATOM     28  C   UNL     1    -143.821 -54.290 -18.198  0.00  0.00    +0.005 A 
ATOM     29  C   UNL     1    -143.482 -55.660 -18.125  0.00  0.00    +0.013 A 
BRANCH  18  19
ATOM     19  C   UNL     1    -145.448 -52.346 -18.572  0.00  0.00    +0.119 C 
BRANCH  19  20
ATOM     20  N   UNL     1    -146.492 -51.888 -19.537  0.00  0.00    -0.302 NA
ATOM     21  C   UNL     1    -145.962 -50.811 -20.488  0.00  0.00    +0.066 C 
ATOM     22  C   UNL     1    -147.061 -50.360 -21.505  0.00  0.00    -0.064 C 
ATOM     23  N   UNL     1    -148.284 -49.853 -20.740  0.00  0.00    +0.379 N 
ATOM     24  C   UNL     1    -149.295 -49.374 -21.693  0.00  0.00    -0.096 C 
ATOM     25  H   UNL     1    -147.959 -48.982 -20.124  0.00  0.00    -0.082 HD
ATOM     26  C   UNL     1    -148.815 -50.917 -19.790  0.00  0.00    -0.064 C 
ATOM     27  C   UNL     1    -147.707 -51.379 -18.802  0.00  0.00    +0.066 C 
ENDBRANCH  19  20
ENDBRANCH  18  19
ENDBRANCH  14  15
ENDBRANCH  12  13
TORSDOF 6
ENDMDL
