MODEL 1
REMARK VINA RESULT:     -10.0      0.000      0.000
REMARK  Name = C:\Users\Docking\Desktop\test protocol\1iep_ligandH.pdb
REMARK  8 active torsions:
REMARK  status: ('A' for Active; 'I' for Inactive)
REMARK    1  A    between atoms: _5  and  _11
REMARK    2  A    between atoms: _19  and  _21
REMARK    3  A    between atoms: _22  and  _66
REMARK    4  A    between atoms: _27  and  _30
REMARK    5  A    between atoms: _32  and  _33
REMARK    6  A    between atoms: _38  and  _43
REMARK    7  A    between atoms: _43  and  _46
REMARK    8  A    between atoms: _53  and  _55
REMARK                            x       y       z     vdW  Elec       q    Type
REMARK                         _______ _______ _______ _____ _____    ______ ____
ROOT
ATOM     10  C   UNL     1     -91.823  79.183  42.536  0.00  0.00    +0.038 A 
ATOM     11  C   UNL     1     -91.673  79.281  43.943  0.00  0.00    +0.047 A 
ATOM     12  C   UNL     1     -90.810  80.288  44.539  0.00  0.00    +0.035 A 
ATOM     32  C   UNL     1     -90.116  81.182  43.673  0.00  0.00    +0.024 A 
ATOM     33  C   UNL     1     -90.256  81.096  42.240  0.00  0.00    +0.007 A 
ATOM     34  C   UNL     1     -91.104  80.103  41.646  0.00  0.00    -0.029 A 
ATOM     35  C   UNL     1     -91.211  80.053  40.104  0.00  0.00    +0.045 C 
ENDROOT
BRANCH  10   9
ATOM      4  C   UNL     1     -92.577  74.888  40.531  0.00  0.00    +0.077 A 
ATOM      5  C   UNL     1     -91.173  74.595  40.490  0.00  0.00    +0.048 A 
ATOM      6  C   UNL     1     -90.290  75.579  40.987  0.00  0.00    +0.116 A 
ATOM      7  N   UNL     1     -90.785  76.764  41.487  0.00  0.00    -0.223 NA
ATOM      8  C   UNL     1     -92.144  77.015  41.511  0.00  0.00    +0.220 A 
ATOM      9  N   UNL     1     -92.665  78.197  42.017  0.00  0.00    -0.283 N 
ATOM     36  H   UNL     1     -93.673  78.347  42.010  0.00  0.00    +0.155 HD
ATOM     37  N   UNL     1     -93.009  76.092  41.040  0.00  0.00    -0.214 NA
BRANCH   4   3
ATOM      1  C   UNL     1     -95.975  73.428  39.255  0.00  0.00    +0.020 A 
ATOM      2  C   UNL     1     -94.990  74.377  39.721  0.00  0.00    +0.013 A 
ATOM      3  C   UNL     1     -93.636  73.947  40.045  0.00  0.00    +0.019 A 
ATOM     38  C   UNL     1     -93.308  72.538  39.885  0.00  0.00    +0.120 A 
ATOM     39  N   UNL     1     -94.277  71.647  39.436  0.00  0.00    -0.263 NA
ATOM     40  C   UNL     1     -95.584  72.050  39.122  0.00  0.00    +0.111 A 
ENDBRANCH   4   3
ENDBRANCH  10   9
BRANCH  12  13
ATOM     13  N   UNL     1     -90.612  80.430  45.961  0.00  0.00    -0.281 N 
ATOM     14  C   UNL     1     -90.839  81.549  46.744  0.00  0.00    +0.248 C 
ATOM     30  O   UNL     1     -91.045  82.671  46.304  0.00  0.00    -0.270 OA
ATOM     31  H   UNL     1     -90.263  79.605  46.448  0.00  0.00    +0.155 HD
BRANCH  14  15
ATOM     15  C   UNL     1     -90.820  81.405  48.232  0.00  0.00    +0.037 A 
ATOM     16  C   UNL     1     -91.892  81.958  49.063  0.00  0.00    +0.013 A 
ATOM     17  C   UNL     1     -91.840  81.820  50.497  0.00  0.00    +0.005 A 
ATOM     18  C   UNL     1     -90.711  81.124  51.109  0.00  0.00    -0.033 A 
ATOM     28  C   UNL     1     -89.663  80.581  50.260  0.00  0.00    +0.005 A 
ATOM     29  C   UNL     1     -89.710  80.715  48.855  0.00  0.00    +0.013 A 
BRANCH  18  19
ATOM     19  C   UNL     1     -90.563  80.948  52.632  0.00  0.00    +0.119 C 
BRANCH  19  20
ATOM     20  N   UNL     1     -91.535  80.042  53.313  0.00  0.00    -0.302 NA
ATOM     21  C   UNL     1     -91.381  80.076  54.836  0.00  0.00    +0.066 C 
ATOM     22  C   UNL     1     -92.421  79.139  55.534  0.00  0.00    -0.064 C 
ATOM     23  N   UNL     1     -92.255  77.714  55.005  0.00  0.00    +0.379 N 
ATOM     24  C   UNL     1     -93.192  76.820  55.701  0.00  0.00    -0.096 C 
ATOM     25  H   UNL     1     -91.221  77.379  55.252  0.00  0.00    -0.082 HD
ATOM     26  C   UNL     1     -92.405  77.672  53.490  0.00  0.00    -0.064 C 
ATOM     27  C   UNL     1     -91.387  78.628  52.808  0.00  0.00    +0.066 C 
ENDBRANCH  19  20
ENDBRANCH  18  19
ENDBRANCH  14  15
ENDBRANCH  12  13
TORSDOF 6
ENDMDL
MODEL 2
REMARK VINA RESULT:      -9.1     24.946     26.922
REMARK  Name = C:\Users\Docking\Desktop\test protocol\1iep_ligandH.pdb
REMARK  8 active torsions:
REMARK  status: ('A' for Active; 'I' for Inactive)
REMARK    1  A    between atoms: _5  and  _11
REMARK    2  A    between atoms: _19  and  _21
REMARK    3  A    between atoms: _22  and  _66
REMARK    4  A    between atoms: _27  and  _30
REMARK    5  A    between atoms: _32  and  _33
REMARK    6  A    between atoms: _38  and  _43
REMARK    7  A    between atoms: _43  and  _46
REMARK    8  A    between atoms: _53  and  _55
REMARK                            x       y       z     vdW  Elec       q    Type
REMARK                         _______ _______ _______ _____ _____    ______ ____
ROOT
ATOM     10  C   UNL     1     -72.133  94.701  49.345  0.00  0.00    +0.038 A 
ATOM     11  C   UNL     1     -72.423  94.930  50.714  0.00  0.00    +0.047 A 
ATOM     12  C   UNL     1     -72.763  93.831  51.605  0.00  0.00    +0.035 A 
ATOM     32  C   UNL     1     -72.795  92.511  51.068  0.00  0.00    +0.024 A 
ATOM     33  C   UNL     1     -72.504  92.261  49.678  0.00  0.00    +0.007 A 
ATOM     34  C   UNL     1     -72.171  93.341  48.794  0.00  0.00    -0.029 A 
ATOM     35  C   UNL     1     -71.874  93.015  47.312  0.00  0.00    +0.045 C 
ENDROOT
BRANCH  10   9
ATOM      4  C   UNL     1     -73.268  98.010  46.058  0.00  0.00    +0.077 A 
ATOM      5  C   UNL     1     -74.604  97.504  45.924  0.00  0.00    +0.048 A 
ATOM      6  C   UNL     1     -74.957  96.387  46.713  0.00  0.00    +0.116 A 
ATOM      7  N   UNL     1     -74.035  95.825  47.570  0.00  0.00    -0.223 NA
ATOM      8  C   UNL     1     -72.754  96.337  47.674  0.00  0.00    +0.220 A 
ATOM      9  N   UNL     1     -71.813  95.793  48.534  0.00  0.00    -0.283 N 
ATOM     36  H   UNL     1     -70.877  96.195  48.577  0.00  0.00    +0.155 HD
ATOM     37  N   UNL     1     -72.392  97.403  46.930  0.00  0.00    -0.214 NA
BRANCH   4   3
ATOM      1  C   UNL     1     -71.977 101.584  45.131  0.00  0.00    +0.020 A 
ATOM      2  C   UNL     1     -72.481 100.479  45.914  0.00  0.00    +0.013 A 
ATOM      3  C   UNL     1     -72.746  99.187  45.294  0.00  0.00    +0.019 A 
ATOM     38  C   UNL     1     -72.488  99.045  43.869  0.00  0.00    +0.120 A 
ATOM     39  N   UNL     1     -72.004 100.126  43.141  0.00  0.00    -0.263 NA
ATOM     40  C   UNL     1     -71.746 101.375  43.726  0.00  0.00    +0.111 A 
ENDBRANCH   4   3
ENDBRANCH  10   9
BRANCH  12  13
ATOM     13  N   UNL     1     -73.075  94.003  53.002  0.00  0.00    -0.281 N 
ATOM     14  C   UNL     1     -72.196  94.048  54.072  0.00  0.00    +0.248 C 
ATOM     30  O   UNL     1     -71.017  93.731  54.011  0.00  0.00    -0.270 OA
ATOM     31  H   UNL     1     -74.064  94.105  53.230  0.00  0.00    +0.155 HD
BRANCH  14  15
ATOM     15  C   UNL     1     -72.702  94.495  55.405  0.00  0.00    +0.037 A 
ATOM     16  C   UNL     1     -73.562  93.633  56.219  0.00  0.00    +0.013 A 
ATOM     17  C   UNL     1     -74.051  94.096  57.494  0.00  0.00    +0.005 A 
ATOM     18  C   UNL     1     -73.679  95.429  57.962  0.00  0.00    -0.033 A 
ATOM     28  C   UNL     1     -72.820  96.261  57.136  0.00  0.00    +0.005 A 
ATOM     29  C   UNL     1     -72.340  95.811  55.886  0.00  0.00    +0.013 A 
BRANCH  18  19
ATOM     19  C   UNL     1     -74.172  96.013  59.300  0.00  0.00    +0.119 C 
BRANCH  19  20
ATOM     20  N   UNL     1     -75.002  95.126  60.168  0.00  0.00    -0.302 NA
ATOM     21  C   UNL     1     -76.498  95.425  60.030  0.00  0.00    +0.066 C 
ATOM     22  C   UNL     1     -77.354  94.474  60.929  0.00  0.00    -0.064 C 
ATOM     23  N   UNL     1     -76.906  94.612  62.385  0.00  0.00    +0.379 N 
ATOM     24  C   UNL     1     -77.747  93.763  63.240  0.00  0.00    -0.096 C 
ATOM     25  H   UNL     1     -77.073  95.671  62.691  0.00  0.00    -0.082 HD
ATOM     26  C   UNL     1     -75.419  94.319  62.530  0.00  0.00    -0.064 C 
ATOM     27  C   UNL     1     -74.580  95.250  61.611  0.00  0.00    +0.066 C 
ENDBRANCH  19  20
ENDBRANCH  18  19
ENDBRANCH  14  15
ENDBRANCH  12  13
TORSDOF 6
ENDMDL
MODEL 3
REMARK VINA RESULT:      -8.9     16.412     19.937
REMARK  Name = C:\Users\Docking\Desktop\test protocol\1iep_ligandH.pdb
REMARK  8 active torsions:
REMARK  status: ('A' for Active; 'I' for Inactive)
REMARK    1  A    between atoms: _5  and  _11
REMARK    2  A    between atoms: _19  and  _21
REMARK    3  A    between atoms: _22  and  _66
REMARK    4  A    between atoms: _27  and  _30
REMARK    5  A    between atoms: _32  and  _33
REMARK    6  A    between atoms: _38  and  _43
REMARK    7  A    between atoms: _43  and  _46
REMARK    8  A    between atoms: _53  and  _55
REMARK                            x       y       z     vdW  Elec       q    Type
REMARK                         _______ _______ _______ _____ _____    ______ ____
ROOT
ATOM     10  C   UNL     1     -95.221  88.858  33.430  0.00  0.00    +0.038 A 
ATOM     11  C   UNL     1     -95.362  90.261  33.581  0.00  0.00    +0.047 A 
ATOM     12  C   UNL     1     -94.507  91.010  34.490  0.00  0.00    +0.035 A 
ATOM     32  C   UNL     1     -93.518  90.297  35.228  0.00  0.00    +0.024 A 
ATOM     33  C   UNL     1     -93.362  88.870  35.086  0.00  0.00    +0.007 A 
ATOM     34  C   UNL     1     -94.203  88.127  34.193  0.00  0.00    -0.029 A 
ATOM     35  C   UNL     1     -93.996  86.598  34.087  0.00  0.00    +0.045 C 
ENDROOT
BRANCH  10   9
ATOM      4  C   UNL     1     -99.281  86.509  32.413  0.00  0.00    +0.077 A 
ATOM      5  C   UNL     1     -99.741  86.596  33.769  0.00  0.00    +0.048 A 
ATOM      6  C   UNL     1     -98.900  87.247  34.699  0.00  0.00    +0.116 A 
ATOM      7  N   UNL     1     -97.691  87.769  34.291  0.00  0.00    -0.223 NA
ATOM      8  C   UNL     1     -97.277  87.666  32.976  0.00  0.00    +0.220 A 
ATOM      9  N   UNL     1     -96.069  88.190  32.543  0.00  0.00    -0.283 N 
ATOM     36  H   UNL     1     -95.796  88.087  31.566  0.00  0.00    +0.155 HD
ATOM     37  N   UNL     1     -98.061  87.048  32.069  0.00  0.00    -0.214 NA
BRANCH   4   3
ATOM      1  C   UNL     1    -101.928  84.389  30.463  0.00  0.00    +0.020 A 
ATOM      2  C   UNL     1    -101.211  84.997  31.561  0.00  0.00    +0.013 A 
ATOM      3  C   UNL     1    -100.059  85.854  31.314  0.00  0.00    +0.019 A 
ATOM     38  C   UNL     1     -99.654  86.078  29.934  0.00  0.00    +0.120 A 
ATOM     39  N   UNL     1    -100.363  85.477  28.898  0.00  0.00    -0.263 NA
ATOM     40  C   UNL     1    -101.472  84.649  29.123  0.00  0.00    +0.111 A 
ENDBRANCH   4   3
ENDBRANCH  10   9
BRANCH  12  13
ATOM     13  N   UNL     1     -94.609  92.434  34.692  0.00  0.00    -0.281 N 
ATOM     14  C   UNL     1     -94.474  93.439  33.748  0.00  0.00    +0.248 C 
ATOM     30  O   UNL     1     -94.031  93.274  32.621  0.00  0.00    -0.270 OA
ATOM     31  H   UNL     1     -94.805  92.737  35.646  0.00  0.00    +0.155 HD
BRANCH  14  15
ATOM     15  C   UNL     1     -94.875  94.831  34.114  0.00  0.00    +0.037 A 
ATOM     16  C   UNL     1     -95.900  95.085  35.130  0.00  0.00    +0.013 A 
ATOM     17  C   UNL     1     -96.281  96.437  35.452  0.00  0.00    +0.005 A 
ATOM     18  C   UNL     1     -95.634  97.548  34.757  0.00  0.00    -0.033 A 
ATOM     28  C   UNL     1     -94.617  97.268  33.757  0.00  0.00    +0.005 A 
ATOM     29  C   UNL     1     -94.242  95.944  33.438  0.00  0.00    +0.013 A 
BRANCH  18  19
ATOM     19  C   UNL     1     -95.993  99.022  35.022  0.00  0.00    +0.119 C 
BRANCH  19  20
ATOM     20  N   UNL     1     -97.265  99.295  35.754  0.00  0.00    -0.302 NA
ATOM     21  C   UNL     1     -98.074 100.421  35.102  0.00  0.00    +0.066 C 
ATOM     22  C   UNL     1     -99.412 100.678  35.868  0.00  0.00    -0.064 C 
ATOM     23  N   UNL     1     -99.104 101.009  37.330  0.00  0.00    +0.379 N 
ATOM     24  C   UNL     1    -100.357 101.309  38.039  0.00  0.00    -0.096 C 
ATOM     25  H   UNL     1     -98.479 101.932  37.343  0.00  0.00    -0.082 HD
ATOM     26  C   UNL     1     -98.299  99.896  37.985  0.00  0.00    -0.064 C 
ATOM     27  C   UNL     1     -96.985  99.629  37.199  0.00  0.00    +0.066 C 
ENDBRANCH  19  20
ENDBRANCH  18  19
ENDBRANCH  14  15
ENDBRANCH  12  13
TORSDOF 6
ENDMDL
MODEL 4
REMARK VINA RESULT:      -8.7     16.922     20.477
REMARK  Name = C:\Users\Docking\Desktop\test protocol\1iep_ligandH.pdb
REMARK  8 active torsions:
REMARK  status: ('A' for Active; 'I' for Inactive)
REMARK    1  A    between atoms: _5  and  _11
REMARK    2  A    between atoms: _19  and  _21
REMARK    3  A    between atoms: _22  and  _66
REMARK    4  A    between atoms: _27  and  _30
REMARK    5  A    between atoms: _32  and  _33
REMARK    6  A    between atoms: _38  and  _43
REMARK    7  A    between atoms: _43  and  _46
REMARK    8  A    between atoms: _53  and  _55
REMARK                            x       y       z     vdW  Elec       q    Type
REMARK                         _______ _______ _______ _____ _____    ______ ____
ROOT
ATOM     10  C   UNL     1     -95.882  89.661  34.880  0.00  0.00    +0.038 A 
ATOM     11  C   UNL     1     -95.917  91.074  35.002  0.00  0.00    +0.047 A 
ATOM     12  C   UNL     1     -94.735  91.881  34.741  0.00  0.00    +0.035 A 
ATOM     32  C   UNL     1     -93.535  91.217  34.355  0.00  0.00    +0.024 A 
ATOM     33  C   UNL     1     -93.481  89.782  34.227  0.00  0.00    +0.007 A 
ATOM     34  C   UNL     1     -94.643  88.980  34.486  0.00  0.00    -0.029 A 
ATOM     35  C   UNL     1     -94.526  87.445  34.339  0.00  0.00    +0.045 C 
ENDROOT
BRANCH  10   9
ATOM      4  C   UNL     1    -100.068  87.741  33.529  0.00  0.00    +0.077 A 
ATOM      5  C   UNL     1     -99.938  88.250  32.194  0.00  0.00    +0.048 A 
ATOM      6  C   UNL     1     -98.782  89.007  31.898  0.00  0.00    +0.116 A 
ATOM      7  N   UNL     1     -97.834  89.232  32.872  0.00  0.00    -0.223 NA
ATOM      8  C   UNL     1     -97.991  88.728  34.150  0.00  0.00    +0.220 A 
ATOM      9  N   UNL     1     -97.046  88.935  35.143  0.00  0.00    -0.283 N 
ATOM     36  H   UNL     1     -97.202  88.553  36.075  0.00  0.00    +0.155 HD
ATOM     37  N   UNL     1     -99.086  88.003  34.458  0.00  0.00    -0.214 NA
BRANCH   4   3
ATOM      1  C   UNL     1    -102.707  84.878  33.898  0.00  0.00    +0.020 A 
ATOM      2  C   UNL     1    -101.574  85.630  33.411  0.00  0.00    +0.013 A 
ATOM      3  C   UNL     1    -101.231  86.921  33.995  0.00  0.00    +0.019 A 
ATOM     38  C   UNL     1    -102.060  87.425  35.079  0.00  0.00    +0.120 A 
ATOM     39  N   UNL     1    -103.146  86.679  35.526  0.00  0.00    -0.263 NA
ATOM     40  C   UNL     1    -103.487  85.437  34.971  0.00  0.00    +0.111 A 
ENDBRANCH   4   3
ENDBRANCH  10   9
BRANCH  12  13
ATOM     13  N   UNL     1     -94.708  93.318  34.857  0.00  0.00    -0.281 N 
ATOM     14  C   UNL     1     -94.651  94.254  33.837  0.00  0.00    +0.248 C 
ATOM     30  O   UNL     1     -94.396  93.990  32.671  0.00  0.00    -0.270 OA
ATOM     31  H   UNL     1     -94.735  93.691  35.806  0.00  0.00    +0.155 HD
BRANCH  14  15
ATOM     15  C   UNL     1     -94.897  95.692  34.161  0.00  0.00    +0.037 A 
ATOM     16  C   UNL     1     -93.933  96.731  33.789  0.00  0.00    +0.013 A 
ATOM     17  C   UNL     1     -94.186  98.108  34.129  0.00  0.00    +0.005 A 
ATOM     18  C   UNL     1     -95.412  98.455  34.845  0.00  0.00    -0.033 A 
ATOM     28  C   UNL     1     -96.353  97.405  35.197  0.00  0.00    +0.005 A 
ATOM     29  C   UNL     1     -96.107  96.054  34.867  0.00  0.00    +0.013 A 
BRANCH  18  19
ATOM     19  C   UNL     1     -95.754  99.896  35.267  0.00  0.00    +0.119 C 
BRANCH  19  20
ATOM     20  N   UNL     1     -97.145 100.156  35.746  0.00  0.00    -0.302 NA
ATOM     21  C   UNL     1     -97.826 101.274  34.951  0.00  0.00    +0.066 C 
ATOM     22  C   UNL     1     -99.288 101.518  35.450  0.00  0.00    -0.064 C 
ATOM     23  N   UNL     1     -99.265 101.850  36.943  0.00  0.00    +0.379 N 
ATOM     24  C   UNL     1    -100.632 102.137  37.402  0.00  0.00    -0.096 C 
ATOM     25  H   UNL     1     -98.663 102.779  37.073  0.00  0.00    -0.082 HD
ATOM     26  C   UNL     1     -98.587 100.745  37.740  0.00  0.00    -0.064 C 
ATOM     27  C   UNL     1     -97.146 100.491  37.217  0.00  0.00    +0.066 C 
ENDBRANCH  19  20
ENDBRANCH  18  19
ENDBRANCH  14  15
ENDBRANCH  12  13
TORSDOF 6
ENDMDL
MODEL 5
REMARK VINA RESULT:      -8.6      6.118     12.098
REMARK  Name = C:\Users\Docking\Desktop\test protocol\1iep_ligandH.pdb
REMARK  8 active torsions:
REMARK  status: ('A' for Active; 'I' for Inactive)
REMARK    1  A    between atoms: _5  and  _11
REMARK    2  A    between atoms: _19  and  _21
REMARK    3  A    between atoms: _22  and  _66
REMARK    4  A    between atoms: _27  and  _30
REMARK    5  A    between atoms: _32  and  _33
REMARK    6  A    between atoms: _38  and  _43
REMARK    7  A    between atoms: _43  and  _46
REMARK    8  A    between atoms: _53  and  _55
REMARK                            x       y       z     vdW  Elec       q    Type
REMARK                         _______ _______ _______ _____ _____    ______ ____
ROOT
ATOM     10  C   UNL     1     -94.079  75.221  40.351  0.00  0.00    +0.038 A 
ATOM     11  C   UNL     1     -93.940  73.870  40.762  0.00  0.00    +0.047 A 
ATOM     12  C   UNL     1     -94.550  72.787  40.006  0.00  0.00    +0.035 A 
ATOM     32  C   UNL     1     -95.292  73.116  38.834  0.00  0.00    +0.024 A 
ATOM     33  C   UNL     1     -95.444  74.483  38.403  0.00  0.00    +0.007 A 
ATOM     34  C   UNL     1     -94.848  75.556  39.146  0.00  0.00    -0.029 A 
ATOM     35  C   UNL     1     -95.049  77.003  38.641  0.00  0.00    +0.045 C 
ENDROOT
BRANCH  10   9
ATOM      4  C   UNL     1     -90.431  78.188  41.310  0.00  0.00    +0.077 A 
ATOM      5  C   UNL     1     -89.656  77.685  40.212  0.00  0.00    +0.048 A 
ATOM      6  C   UNL     1     -90.229  76.658  39.430  0.00  0.00    +0.116 A 
ATOM      7  N   UNL     1     -91.485  76.177  39.732  0.00  0.00    -0.223 NA
ATOM      8  C   UNL     1     -92.205  76.684  40.798  0.00  0.00    +0.220 A 
ATOM      9  N   UNL     1     -93.473  76.221  41.115  0.00  0.00    -0.283 N 
ATOM     36  H   UNL     1     -93.969  76.615  41.914  0.00  0.00    +0.155 HD
ATOM     37  N   UNL     1     -91.679  77.664  41.561  0.00  0.00    -0.214 NA
BRANCH   4   3
ATOM      1  C   UNL     1     -88.174  80.767  43.196  0.00  0.00    +0.020 A 
ATOM      2  C   UNL     1     -88.574  79.712  42.294  0.00  0.00    +0.013 A 
ATOM      3  C   UNL     1     -89.963  79.276  42.226  0.00  0.00    +0.019 A 
ATOM     38  C   UNL     1     -90.930  79.934  43.092  0.00  0.00    +0.120 A 
ATOM     39  N   UNL     1     -90.516  80.946  43.952  0.00  0.00    -0.263 NA
ATOM     40  C   UNL     1     -89.182  81.373  44.026  0.00  0.00    +0.111 A 
ENDBRANCH   4   3
ENDBRANCH  10   9
BRANCH  12  13
ATOM     13  N   UNL     1     -94.449  71.398  40.379  0.00  0.00    -0.281 N 
ATOM     14  C   UNL     1     -93.342  70.726  40.869  0.00  0.00    +0.248 C 
ATOM     30  O   UNL     1     -92.204  71.170  40.860  0.00  0.00    -0.270 OA
ATOM     31  H   UNL     1     -95.298  70.843  40.267  0.00  0.00    +0.155 HD
BRANCH  14  15
ATOM     15  C   UNL     1     -93.523  69.356  41.438  0.00  0.00    +0.037 A 
ATOM     16  C   UNL     1     -93.031  69.018  42.776  0.00  0.00    +0.013 A 
ATOM     17  C   UNL     1     -93.203  67.684  43.295  0.00  0.00    +0.005 A 
ATOM     18  C   UNL     1     -93.873  66.678  42.474  0.00  0.00    -0.033 A 
ATOM     28  C   UNL     1     -94.356  67.041  41.152  0.00  0.00    +0.005 A 
ATOM     29  C   UNL     1     -94.188  68.347  40.640  0.00  0.00    +0.013 A 
BRANCH  18  19
ATOM     19  C   UNL     1     -94.081  65.224  42.938  0.00  0.00    +0.119 C 
BRANCH  19  20
ATOM     20  N   UNL     1     -93.793  64.915  44.371  0.00  0.00    -0.302 NA
ATOM     21  C   UNL     1     -92.310  64.615  44.607  0.00  0.00    +0.066 C 
ATOM     22  C   UNL     1     -92.023  64.316  46.114  0.00  0.00    -0.064 C 
ATOM     23  N   UNL     1     -92.893  63.145  46.574  0.00  0.00    +0.379 N 
ATOM     24  C   UNL     1     -92.583  62.825  47.975  0.00  0.00    -0.096 C 
ATOM     25  H   UNL     1     -92.620  62.259  45.956  0.00  0.00    -0.082 HD
ATOM     26  C   UNL     1     -94.369  63.434  46.340  0.00  0.00    -0.064 C 
ATOM     27  C   UNL     1     -94.638  63.758  44.844  0.00  0.00    +0.066 C 
ENDBRANCH  19  20
ENDBRANCH  18  19
ENDBRANCH  14  15
ENDBRANCH  12  13
TORSDOF 6
ENDMDL
