MODEL 1
REMARK VINA RESULT:      -7.8      0.000      0.000
REMARK  Name = C:\Users\Docking\Desktop\test protocol\1iep_ligandH.pdb
REMARK  8 active torsions:
REMARK  status: ('A' for Active; 'I' for Inactive)
REMARK    1  A    between atoms: _5  and  _11
REMARK    2  A    between atoms: _19  and  _21
REMARK    3  A    between atoms: _22  and  _66
REMARK    4  A    between atoms: _27  and  _30
REMARK    5  A    between atoms: _32  and  _33
REMARK    6  A    between atoms: _38  and  _43
REMARK    7  A    between atoms: _43  and  _46
REMARK    8  A    between atoms: _53  and  _55
REMARK                            x       y       z     vdW  Elec       q    Type
REMARK                         _______ _______ _______ _____ _____    ______ ____
ROOT
ATOM     10  C   UNL     1     -40.525 -15.164  -4.154  0.00  0.00    +0.038 A 
ATOM     11  C   UNL     1     -39.163 -15.329  -4.515  0.00  0.00    +0.047 A 
ATOM     12  C   UNL     1     -38.097 -15.102  -3.552  0.00  0.00    +0.035 A 
ATOM     32  C   UNL     1     -38.454 -14.710  -2.228  0.00  0.00    +0.024 A 
ATOM     33  C   UNL     1     -39.833 -14.537  -1.845  0.00  0.00    +0.007 A 
ATOM     34  C   UNL     1     -40.889 -14.757  -2.791  0.00  0.00    -0.029 A 
ATOM     35  C   UNL     1     -42.349 -14.551  -2.327  0.00  0.00    +0.045 C 
ENDROOT
BRANCH  10   9
ATOM      4  C   UNL     1     -43.287 -13.735  -7.810  0.00  0.00    +0.077 A 
ATOM      5  C   UNL     1     -42.744 -12.407  -7.778  0.00  0.00    +0.048 A 
ATOM      6  C   UNL     1     -41.762 -12.131  -6.801  0.00  0.00    +0.116 A 
ATOM      7  N   UNL     1     -41.359 -13.117  -5.927  0.00  0.00    -0.223 NA
ATOM      8  C   UNL     1     -41.904 -14.386  -5.983  0.00  0.00    +0.220 A 
ATOM      9  N   UNL     1     -41.508 -15.395  -5.119  0.00  0.00    -0.283 N 
ATOM     36  H   UNL     1     -41.940 -16.317  -5.188  0.00  0.00    +0.155 HD
ATOM     37  N   UNL     1     -42.845 -14.675  -6.906  0.00  0.00    -0.214 NA
BRANCH   4   3
ATOM      1  C   UNL     1     -45.347 -14.257 -11.094  0.00  0.00    +0.020 A 
ATOM      2  C   UNL     1     -44.315 -13.798 -10.193  0.00  0.00    +0.013 A 
ATOM      3  C   UNL     1     -44.330 -14.182  -8.787  0.00  0.00    +0.019 A 
ATOM     38  C   UNL     1     -45.410 -15.038  -8.322  0.00  0.00    +0.120 A 
ATOM     39  N   UNL     1     -46.390 -15.464  -9.213  0.00  0.00    -0.263 NA
ATOM     40  C   UNL     1     -46.388 -15.100 -10.567  0.00  0.00    +0.111 A 
ENDBRANCH   4   3
ENDBRANCH  10   9
BRANCH  12  13
ATOM     13  N   UNL     1     -36.696 -15.245  -3.863  0.00  0.00    -0.281 N 
ATOM     14  C   UNL     1     -35.895 -14.388  -4.599  0.00  0.00    +0.248 C 
ATOM     30  O   UNL     1     -36.315 -13.469  -5.286  0.00  0.00    -0.270 OA
ATOM     31  H   UNL     1     -36.240 -16.080  -3.495  0.00  0.00    +0.155 HD
BRANCH  14  15
ATOM     15  C   UNL     1     -34.414 -14.590  -4.581  0.00  0.00    +0.037 A 
ATOM     16  C   UNL     1     -33.508 -13.624  -5.208  0.00  0.00    +0.013 A 
ATOM     17  C   UNL     1     -32.085 -13.851  -5.191  0.00  0.00    +0.005 A 
ATOM     18  C   UNL     1     -31.559 -15.050  -4.543  0.00  0.00    -0.033 A 
ATOM     28  C   UNL     1     -32.480 -15.989  -3.924  0.00  0.00    +0.005 A 
ATOM     29  C   UNL     1     -33.876 -15.770  -3.940  0.00  0.00    +0.013 A 
BRANCH  18  19
ATOM     19  C   UNL     1     -30.056 -15.384  -4.496  0.00  0.00    +0.119 C 
BRANCH  19  20
ATOM     20  N   UNL     1     -29.613 -16.639  -5.174  0.00  0.00    -0.302 NA
ATOM     21  C   UNL     1     -28.705 -17.486  -4.278  0.00  0.00    +0.066 C 
ATOM     22  C   UNL     1     -28.269 -18.805  -4.995  0.00  0.00    -0.064 C 
ATOM     23  N   UNL     1     -27.565 -18.461  -6.308  0.00  0.00    +0.379 N 
ATOM     24  C   UNL     1     -27.102 -19.696  -6.956  0.00  0.00    -0.096 C 
ATOM     25  H   UNL     1     -26.664 -17.852  -6.059  0.00  0.00    -0.082 HD
ATOM     26  C   UNL     1     -28.460 -17.616  -7.204  0.00  0.00    -0.064 C 
ATOM     27  C   UNL     1     -28.911 -16.321  -6.471  0.00  0.00    +0.066 C 
ENDBRANCH  19  20
ENDBRANCH  18  19
ENDBRANCH  14  15
ENDBRANCH  12  13
TORSDOF 6
ENDMDL
MODEL 2
REMARK VINA RESULT:      -7.7      2.573      3.911
REMARK  Name = C:\Users\Docking\Desktop\test protocol\1iep_ligandH.pdb
REMARK  8 active torsions:
REMARK  status: ('A' for Active; 'I' for Inactive)
REMARK    1  A    between atoms: _5  and  _11
REMARK    2  A    between atoms: _19  and  _21
REMARK    3  A    between atoms: _22  and  _66
REMARK    4  A    between atoms: _27  and  _30
REMARK    5  A    between atoms: _32  and  _33
REMARK    6  A    between atoms: _38  and  _43
REMARK    7  A    between atoms: _43  and  _46
REMARK    8  A    between atoms: _53  and  _55
REMARK                            x       y       z     vdW  Elec       q    Type
REMARK                         _______ _______ _______ _____ _____    ______ ____
ROOT
ATOM     10  C   UNL     1     -40.453 -15.055  -4.168  0.00  0.00    +0.038 A 
ATOM     11  C   UNL     1     -39.040 -14.968  -4.086  0.00  0.00    +0.047 A 
ATOM     12  C   UNL     1     -38.192 -16.071  -4.511  0.00  0.00    +0.035 A 
ATOM     32  C   UNL     1     -38.817 -17.248  -5.017  0.00  0.00    +0.024 A 
ATOM     33  C   UNL     1     -40.253 -17.353  -5.106  0.00  0.00    +0.007 A 
ATOM     34  C   UNL     1     -41.094 -16.269  -4.686  0.00  0.00    -0.029 A 
ATOM     35  C   UNL     1     -42.627 -16.441  -4.799  0.00  0.00    +0.045 C 
ENDROOT
BRANCH  10   9
ATOM      4  C   UNL     1     -42.749 -10.922  -4.994  0.00  0.00    +0.077 A 
ATOM      5  C   UNL     1     -42.368 -10.919  -6.378  0.00  0.00    +0.048 A 
ATOM      6  C   UNL     1     -41.576 -11.995  -6.835  0.00  0.00    +0.116 A 
ATOM      7  N   UNL     1     -41.198 -12.995  -5.965  0.00  0.00    -0.223 NA
ATOM      8  C   UNL     1     -41.581 -12.967  -4.637  0.00  0.00    +0.220 A 
ATOM      9  N   UNL     1     -41.219 -13.966  -3.746  0.00  0.00    -0.283 N 
ATOM     36  H   UNL     1     -41.515 -13.904  -2.772  0.00  0.00    +0.155 HD
ATOM     37  N   UNL     1     -42.336 -11.949  -4.175  0.00  0.00    -0.214 NA
BRANCH   4   3
ATOM      1  C   UNL     1     -44.274  -7.449  -4.037  0.00  0.00    +0.020 A 
ATOM      2  C   UNL     1     -43.438  -8.440  -4.676  0.00  0.00    +0.013 A 
ATOM      3  C   UNL     1     -43.588  -9.855  -4.362  0.00  0.00    +0.019 A 
ATOM     38  C   UNL     1     -44.602 -10.238  -3.391  0.00  0.00    +0.120 A 
ATOM     39  N   UNL     1     -45.391  -9.262  -2.791  0.00  0.00    -0.263 NA
ATOM     40  C   UNL     1     -45.255  -7.897  -3.084  0.00  0.00    +0.111 A 
ENDBRANCH   4   3
ENDBRANCH  10   9
BRANCH  12  13
ATOM     13  N   UNL     1     -36.752 -16.043  -4.444  0.00  0.00    -0.281 N 
ATOM     14  C   UNL     1     -35.879 -15.265  -5.187  0.00  0.00    +0.248 C 
ATOM     30  O   UNL     1     -36.197 -14.626  -6.178  0.00  0.00    -0.270 OA
ATOM     31  H   UNL     1     -36.324 -16.674  -3.766  0.00  0.00    +0.155 HD
BRANCH  14  15
ATOM     15  C   UNL     1     -34.443 -15.200  -4.778  0.00  0.00    +0.037 A 
ATOM     16  C   UNL     1     -33.644 -13.992  -5.002  0.00  0.00    +0.013 A 
ATOM     17  C   UNL     1     -32.256 -13.962  -4.614  0.00  0.00    +0.005 A 
ATOM     18  C   UNL     1     -31.659 -15.143  -3.996  0.00  0.00    -0.033 A 
ATOM     28  C   UNL     1     -32.476 -16.326  -3.781  0.00  0.00    +0.005 A 
ATOM     29  C   UNL     1     -33.837 -16.360  -4.161  0.00  0.00    +0.013 A 
BRANCH  18  19
ATOM     19  C   UNL     1     -30.180 -15.207  -3.569  0.00  0.00    +0.119 C 
BRANCH  19  20
ATOM     20  N   UNL     1     -29.275 -16.085  -4.369  0.00  0.00    -0.302 NA
ATOM     21  C   UNL     1     -29.545 -15.970  -5.872  0.00  0.00    +0.066 C 
ATOM     22  C   UNL     1     -28.574 -16.878  -6.696  0.00  0.00    -0.064 C 
ATOM     23  N   UNL     1     -28.717 -18.328  -6.229  0.00  0.00    +0.379 N 
ATOM     24  C   UNL     1     -27.848 -19.192  -7.041  0.00  0.00    -0.096 C 
ATOM     25  H   UNL     1     -29.771 -18.639  -6.413  0.00  0.00    -0.082 HD
ATOM     26  C   UNL     1     -28.453 -18.450  -4.735  0.00  0.00    -0.064 C 
ATOM     27  C   UNL     1     -29.403 -17.522  -3.928  0.00  0.00    +0.066 C 
ENDBRANCH  19  20
ENDBRANCH  18  19
ENDBRANCH  14  15
ENDBRANCH  12  13
TORSDOF 6
ENDMDL
MODEL 3
REMARK VINA RESULT:      -7.6      3.398      4.937
REMARK  Name = C:\Users\Docking\Desktop\test protocol\1iep_ligandH.pdb
REMARK  8 active torsions:
REMARK  status: ('A' for Active; 'I' for Inactive)
REMARK    1  A    between atoms: _5  and  _11
REMARK    2  A    between atoms: _19  and  _21
REMARK    3  A    between atoms: _22  and  _66
REMARK    4  A    between atoms: _27  and  _30
REMARK    5  A    between atoms: _32  and  _33
REMARK    6  A    between atoms: _38  and  _43
REMARK    7  A    between atoms: _43  and  _46
REMARK    8  A    between atoms: _53  and  _55
REMARK                            x       y       z     vdW  Elec       q    Type
REMARK                         _______ _______ _______ _____ _____    ______ ____
ROOT
ATOM     10  C   UNL     1     -41.001 -12.975  -5.277  0.00  0.00    +0.038 A 
ATOM     11  C   UNL     1     -39.618 -13.045  -4.969  0.00  0.00    +0.047 A 
ATOM     12  C   UNL     1     -38.947 -14.325  -4.806  0.00  0.00    +0.035 A 
ATOM     32  C   UNL     1     -39.714 -15.515  -4.968  0.00  0.00    +0.024 A 
ATOM     33  C   UNL     1     -41.120 -15.463  -5.280  0.00  0.00    +0.007 A 
ATOM     34  C   UNL     1     -41.789 -14.203  -5.438  0.00  0.00    -0.029 A 
ATOM     35  C   UNL     1     -43.300 -14.208  -5.767  0.00  0.00    +0.045 C 
ENDROOT
BRANCH  10   9
ATOM      4  C   UNL     1     -43.457  -9.230  -3.550  0.00  0.00    +0.077 A 
ATOM      5  C   UNL     1     -43.592  -9.839  -2.258  0.00  0.00    +0.048 A 
ATOM      6  C   UNL     1     -43.021 -11.119  -2.081  0.00  0.00    +0.116 A 
ATOM      7  N   UNL     1     -42.366 -11.736  -3.126  0.00  0.00    -0.223 NA
ATOM      8  C   UNL     1     -42.256 -11.122  -4.360  0.00  0.00    +0.220 A 
ATOM      9  N   UNL     1     -41.595 -11.720  -5.421  0.00  0.00    -0.283 N 
ATOM     36  H   UNL     1     -41.541 -11.237  -6.318  0.00  0.00    +0.155 HD
ATOM     37  N   UNL     1     -42.793  -9.900  -4.554  0.00  0.00    -0.214 NA
BRANCH   4   3
ATOM      1  C   UNL     1     -45.758  -6.073  -3.740  0.00  0.00    +0.020 A 
ATOM      2  C   UNL     1     -45.275  -7.386  -3.379  0.00  0.00    +0.013 A 
ATOM      3  C   UNL     1     -44.003  -7.879  -3.892  0.00  0.00    +0.019 A 
ATOM     38  C   UNL     1     -43.237  -7.011  -4.773  0.00  0.00    +0.120 A 
ATOM     39  N   UNL     1     -43.727  -5.752  -5.104  0.00  0.00    -0.263 NA
ATOM     40  C   UNL     1     -44.951  -5.267  -4.618  0.00  0.00    +0.111 A 
ENDBRANCH   4   3
ENDBRANCH  10   9
BRANCH  12  13
ATOM     13  N   UNL     1     -37.547 -14.458  -4.486  0.00  0.00    -0.281 N 
ATOM     14  C   UNL     1     -36.493 -14.688  -5.354  0.00  0.00    +0.248 C 
ATOM     30  O   UNL     1     -36.620 -15.030  -6.520  0.00  0.00    -0.270 OA
ATOM     31  H   UNL     1     -37.304 -14.371  -3.499  0.00  0.00    +0.155 HD
BRANCH  14  15
ATOM     15  C   UNL     1     -35.094 -14.531  -4.850  0.00  0.00    +0.037 A 
ATOM     16  C   UNL     1     -34.189 -13.530  -5.420  0.00  0.00    +0.013 A 
ATOM     17  C   UNL     1     -32.840 -13.410  -4.927  0.00  0.00    +0.005 A 
ATOM     18  C   UNL     1     -32.389 -14.294  -3.855  0.00  0.00    -0.033 A 
ATOM     28  C   UNL     1     -33.309 -15.274  -3.303  0.00  0.00    +0.005 A 
ATOM     29  C   UNL     1     -34.632 -15.395  -3.785  0.00  0.00    +0.013 A 
BRANCH  18  19
ATOM     19  C   UNL     1     -30.960 -14.251  -3.282  0.00  0.00    +0.119 C 
BRANCH  19  20
ATOM     20  N   UNL     1     -29.913 -15.044  -3.993  0.00  0.00    -0.302 NA
ATOM     21  C   UNL     1     -30.240 -15.223  -5.478  0.00  0.00    +0.066 C 
ATOM     22  C   UNL     1     -29.123 -16.036  -6.212  0.00  0.00    -0.064 C 
ATOM     23  N   UNL     1     -28.950 -17.393  -5.528  0.00  0.00    +0.379 N 
ATOM     24  C   UNL     1     -27.942 -18.182  -6.251  0.00  0.00    -0.096 C 
ATOM     25  H   UNL     1     -29.921 -17.935  -5.602  0.00  0.00    -0.082 HD
ATOM     26  C   UNL     1     -28.628 -17.223  -4.050  0.00  0.00    -0.064 C 
ATOM     27  C   UNL     1     -29.729 -16.389  -3.336  0.00  0.00    +0.066 C 
ENDBRANCH  19  20
ENDBRANCH  18  19
ENDBRANCH  14  15
ENDBRANCH  12  13
TORSDOF 6
ENDMDL
MODEL 4
REMARK VINA RESULT:      -7.3      2.867      4.324
REMARK  Name = C:\Users\Docking\Desktop\test protocol\1iep_ligandH.pdb
REMARK  8 active torsions:
REMARK  status: ('A' for Active; 'I' for Inactive)
REMARK    1  A    between atoms: _5  and  _11
REMARK    2  A    between atoms: _19  and  _21
REMARK    3  A    between atoms: _22  and  _66
REMARK    4  A    between atoms: _27  and  _30
REMARK    5  A    between atoms: _32  and  _33
REMARK    6  A    between atoms: _38  and  _43
REMARK    7  A    between atoms: _43  and  _46
REMARK    8  A    between atoms: _53  and  _55
REMARK                            x       y       z     vdW  Elec       q    Type
REMARK                         _______ _______ _______ _____ _____    ______ ____
ROOT
ATOM     10  C   UNL     1     -39.921 -14.028  -5.174  0.00  0.00    +0.038 A 
ATOM     11  C   UNL     1     -38.522 -14.228  -5.057  0.00  0.00    +0.047 A 
ATOM     12  C   UNL     1     -37.599 -13.104  -5.064  0.00  0.00    +0.035 A 
ATOM     32  C   UNL     1     -38.135 -11.789  -5.189  0.00  0.00    +0.024 A 
ATOM     33  C   UNL     1     -39.555 -11.568  -5.310  0.00  0.00    +0.007 A 
ATOM     34  C   UNL     1     -40.470 -12.673  -5.306  0.00  0.00    -0.029 A 
ATOM     35  C   UNL     1     -41.982 -12.378  -5.446  0.00  0.00    +0.045 C 
ENDROOT
BRANCH  10   9
ATOM      4  C   UNL     1     -42.579 -17.300  -2.878  0.00  0.00    +0.077 A 
ATOM      5  C   UNL     1     -42.242 -16.759  -1.593  0.00  0.00    +0.048 A 
ATOM      6  C   UNL     1     -41.376 -15.642  -1.566  0.00  0.00    +0.116 A 
ATOM      7  N   UNL     1     -40.890 -15.115  -2.743  0.00  0.00    -0.223 NA
ATOM      8  C   UNL     1     -41.233 -15.663  -3.965  0.00  0.00    +0.220 A 
ATOM      9  N   UNL     1     -40.762 -15.143  -5.161  0.00  0.00    -0.283 N 
ATOM     36  H   UNL     1     -41.033 -15.581  -6.042  0.00  0.00    +0.155 HD
ATOM     37  N   UNL     1     -42.057 -16.730  -4.018  0.00  0.00    -0.214 NA
BRANCH   4   3
ATOM      1  C   UNL     1     -45.172 -20.159  -2.243  0.00  0.00    +0.020 A 
ATOM      2  C   UNL     1     -44.314 -19.021  -2.004  0.00  0.00    +0.013 A 
ATOM      3  C   UNL     1     -43.484 -18.477  -3.071  0.00  0.00    +0.019 A 
ATOM     38  C   UNL     1     -43.547 -19.111  -4.380  0.00  0.00    +0.120 A 
ATOM     39  N   UNL     1     -44.382 -20.206  -4.580  0.00  0.00    -0.263 NA
ATOM     40  C   UNL     1     -45.183 -20.740  -3.560  0.00  0.00    +0.111 A 
ENDBRANCH   4   3
ENDBRANCH  10   9
BRANCH  12  13
ATOM     13  N   UNL     1     -36.168 -13.246  -4.956  0.00  0.00    -0.281 N 
ATOM     14  C   UNL     1     -35.424 -13.544  -3.826  0.00  0.00    +0.248 C 
ATOM     30  O   UNL     1     -35.862 -13.525  -2.685  0.00  0.00    -0.270 OA
ATOM     31  H   UNL     1     -35.639 -13.109  -5.818  0.00  0.00    +0.155 HD
BRANCH  14  15
ATOM     15  C   UNL     1     -33.982 -13.902  -3.985  0.00  0.00    +0.037 A 
ATOM     16  C   UNL     1     -33.295 -13.740  -5.269  0.00  0.00    +0.013 A 
ATOM     17  C   UNL     1     -31.908 -14.109  -5.400  0.00  0.00    +0.005 A 
ATOM     18  C   UNL     1     -31.197 -14.644  -4.241  0.00  0.00    -0.033 A 
ATOM     28  C   UNL     1     -31.901 -14.789  -2.977  0.00  0.00    +0.005 A 
ATOM     29  C   UNL     1     -33.261 -14.430  -2.846  0.00  0.00    +0.013 A 
BRANCH  18  19
ATOM     19  C   UNL     1     -29.722 -15.083  -4.294  0.00  0.00    +0.119 C 
BRANCH  19  20
ATOM     20  N   UNL     1     -29.415 -16.363  -5.000  0.00  0.00    -0.302 NA
ATOM     21  C   UNL     1     -28.567 -17.305  -4.140  0.00  0.00    +0.066 C 
ATOM     22  C   UNL     1     -28.274 -18.647  -4.886  0.00  0.00    -0.064 C 
ATOM     23  N   UNL     1     -27.575 -18.348  -6.213  0.00  0.00    +0.379 N 
ATOM     24  C   UNL     1     -27.246 -19.611  -6.890  0.00  0.00    -0.096 C 
ATOM     25  H   UNL     1     -26.616 -17.830  -5.980  0.00  0.00    -0.082 HD
ATOM     26  C   UNL     1     -28.409 -17.410  -7.073  0.00  0.00    -0.064 C 
ATOM     27  C   UNL     1     -28.720 -16.091  -6.312  0.00  0.00    +0.066 C 
ENDBRANCH  19  20
ENDBRANCH  18  19
ENDBRANCH  14  15
ENDBRANCH  12  13
TORSDOF 6
ENDMDL
MODEL 5
REMARK VINA RESULT:      -7.3     18.969     22.022
REMARK  Name = C:\Users\Docking\Desktop\test protocol\1iep_ligandH.pdb
REMARK  8 active torsions:
REMARK  status: ('A' for Active; 'I' for Inactive)
REMARK    1  A    between atoms: _5  and  _11
REMARK    2  A    between atoms: _19  and  _21
REMARK    3  A    between atoms: _22  and  _66
REMARK    4  A    between atoms: _27  and  _30
REMARK    5  A    between atoms: _32  and  _33
REMARK    6  A    between atoms: _38  and  _43
REMARK    7  A    between atoms: _43  and  _46
REMARK    8  A    between atoms: _53  and  _55
REMARK                            x       y       z     vdW  Elec       q    Type
REMARK                         _______ _______ _______ _____ _____    ______ ____
ROOT
ATOM     10  C   UNL     1     -29.234  -2.674   5.447  0.00  0.00    +0.038 A 
ATOM     11  C   UNL     1     -28.302  -1.944   4.665  0.00  0.00    +0.047 A 
ATOM     12  C   UNL     1     -28.610  -0.607   4.183  0.00  0.00    +0.035 A 
ATOM     32  C   UNL     1     -29.875  -0.042   4.518  0.00  0.00    +0.024 A 
ATOM     33  C   UNL     1     -30.834  -0.770   5.311  0.00  0.00    +0.007 A 
ATOM     34  C   UNL     1     -30.537  -2.091   5.787  0.00  0.00    -0.029 A 
ATOM     35  C   UNL     1     -31.606  -2.828   6.628  0.00  0.00    +0.045 C 
ENDROOT
BRANCH  10   9
ATOM      4  C   UNL     1     -27.213  -5.664   8.611  0.00  0.00    +0.077 A 
ATOM      5  C   UNL     1     -26.790  -4.582   9.453  0.00  0.00    +0.048 A 
ATOM      6  C   UNL     1     -27.106  -3.271   9.032  0.00  0.00    +0.116 A 
ATOM      7  N   UNL     1     -27.794  -3.069   7.855  0.00  0.00    -0.223 NA
ATOM      8  C   UNL     1     -28.186  -4.134   7.066  0.00  0.00    +0.220 A 
ATOM      9  N   UNL     1     -28.886  -3.955   5.883  0.00  0.00    -0.283 N 
ATOM     36  H   UNL     1     -29.151  -4.767   5.326  0.00  0.00    +0.155 HD
ATOM     37  N   UNL     1     -27.895  -5.396   7.446  0.00  0.00    -0.214 NA
BRANCH   4   3
ATOM      1  C   UNL     1     -27.556  -9.555   8.827  0.00  0.00    +0.020 A 
ATOM      2  C   UNL     1     -27.849  -8.178   8.501  0.00  0.00    +0.013 A 
ATOM      3  C   UNL     1     -26.957  -7.106   8.922  0.00  0.00    +0.019 A 
ATOM     38  C   UNL     1     -25.766  -7.464   9.678  0.00  0.00    +0.120 A 
ATOM     39  N   UNL     1     -25.509  -8.798   9.978  0.00  0.00    -0.263 NA
ATOM     40  C   UNL     1     -26.362  -9.838   9.579  0.00  0.00    +0.111 A 
ENDBRANCH   4   3
ENDBRANCH  10   9
BRANCH  12  13
ATOM     13  N   UNL     1     -27.707   0.179   3.379  0.00  0.00    -0.281 N 
ATOM     14  C   UNL     1     -27.156  -0.148   2.151  0.00  0.00    +0.248 C 
ATOM     30  O   UNL     1     -27.188  -1.264   1.654  0.00  0.00    -0.270 OA
ATOM     31  H   UNL     1     -27.442   1.087   3.762  0.00  0.00    +0.155 HD
BRANCH  14  15
ATOM     15  C   UNL     1     -26.455   0.915   1.368  0.00  0.00    +0.037 A 
ATOM     16  C   UNL     1     -25.013   0.848   1.116  0.00  0.00    +0.013 A 
ATOM     17  C   UNL     1     -24.359   1.895   0.372  0.00  0.00    +0.005 A 
ATOM     18  C   UNL     1     -25.148   3.019  -0.127  0.00  0.00    -0.033 A 
ATOM     28  C   UNL     1     -26.578   3.058   0.133  0.00  0.00    +0.005 A 
ATOM     29  C   UNL     1     -27.222   2.034   0.863  0.00  0.00    +0.013 A 
BRANCH  18  19
ATOM     19  C   UNL     1     -24.530   4.191  -0.911  0.00  0.00    +0.119 C 
BRANCH  19  20
ATOM     20  N   UNL     1     -25.063   4.454  -2.281  0.00  0.00    -0.302 NA
ATOM     21  C   UNL     1     -24.385   3.578  -3.339  0.00  0.00    +0.066 C 
ATOM     22  C   UNL     1     -24.971   3.849  -4.763  0.00  0.00    -0.064 C 
ATOM     23  N   UNL     1     -24.810   5.331  -5.104  0.00  0.00    +0.379 N 
ATOM     24  C   UNL     1     -25.306   5.579  -6.465  0.00  0.00    -0.096 C 
ATOM     25  H   UNL     1     -23.719   5.564  -5.094  0.00  0.00    -0.082 HD
ATOM     26  C   UNL     1     -25.478   6.210  -4.056  0.00  0.00    -0.064 C 
ATOM     27  C   UNL     1     -24.910   5.911  -2.640  0.00  0.00    +0.066 C 
ENDBRANCH  19  20
ENDBRANCH  18  19
ENDBRANCH  14  15
ENDBRANCH  12  13
TORSDOF 6
ENDMDL
