MODEL 1
REMARK VINA RESULT:      -8.8      0.000      0.000
REMARK  Name = C:\Users\Docking\Desktop\test protocol\1iep_ligandH.pdb
REMARK  8 active torsions:
REMARK  status: ('A' for Active; 'I' for Inactive)
REMARK    1  A    between atoms: _5  and  _11
REMARK    2  A    between atoms: _19  and  _21
REMARK    3  A    between atoms: _22  and  _66
REMARK    4  A    between atoms: _27  and  _30
REMARK    5  A    between atoms: _32  and  _33
REMARK    6  A    between atoms: _38  and  _43
REMARK    7  A    between atoms: _43  and  _46
REMARK    8  A    between atoms: _53  and  _55
REMARK                            x       y       z     vdW  Elec       q    Type
REMARK                         _______ _______ _______ _____ _____    ______ ____
ROOT
ATOM     10  C   UNL     1       7.646  23.226  20.225  0.00  0.00    +0.038 A 
ATOM     11  C   UNL     1       8.901  23.576  20.784  0.00  0.00    +0.047 A 
ATOM     12  C   UNL     1       9.046  23.831  22.209  0.00  0.00    +0.035 A 
ATOM     32  C   UNL     1       7.891  23.718  23.036  0.00  0.00    +0.024 A 
ATOM     33  C   UNL     1       6.606  23.365  22.484  0.00  0.00    +0.007 A 
ATOM     34  C   UNL     1       6.457  23.114  21.079  0.00  0.00    -0.029 A 
ATOM     35  C   UNL     1       5.055  22.745  20.542  0.00  0.00    +0.045 C 
ENDROOT
BRANCH  10   9
ATOM      4  C   UNL     1       6.977  24.713  15.711  0.00  0.00    +0.077 A 
ATOM      5  C   UNL     1       6.745  26.066  16.128  0.00  0.00    +0.048 A 
ATOM      6  C   UNL     1       6.799  26.336  17.514  0.00  0.00    +0.116 A 
ATOM      7  N   UNL     1       7.067  25.321  18.407  0.00  0.00    -0.223 NA
ATOM      8  C   UNL     1       7.285  24.027  17.971  0.00  0.00    +0.220 A 
ATOM      9  N   UNL     1       7.564  22.992  18.851  0.00  0.00    -0.283 N 
ATOM     36  H   UNL     1       7.711  22.050  18.490  0.00  0.00    +0.155 HD
ATOM     37  N   UNL     1       7.237  23.743  16.653  0.00  0.00    -0.214 NA
BRANCH   4   3
ATOM      1  C   UNL     1       6.548  24.668  11.823  0.00  0.00    +0.020 A 
ATOM      2  C   UNL     1       6.549  25.144  13.187  0.00  0.00    +0.013 A 
ATOM      3  C   UNL     1       6.957  24.271  14.280  0.00  0.00    +0.019 A 
ATOM     38  C   UNL     1       7.362  22.911  13.957  0.00  0.00    +0.120 A 
ATOM     39  N   UNL     1       7.349  22.480  12.634  0.00  0.00    -0.263 NA
ATOM     40  C   UNL     1       6.957  23.311  11.574  0.00  0.00    +0.111 A 
ENDBRANCH   4   3
ENDBRANCH  10   9
BRANCH  12  13
ATOM     13  N   UNL     1      10.294  24.198  22.832  0.00  0.00    -0.281 N 
ATOM     14  C   UNL     1      11.574  24.055  22.323  0.00  0.00    +0.248 C 
ATOM     30  O   UNL     1      11.855  23.391  21.336  0.00  0.00    -0.270 OA
ATOM     31  H   UNL     1      10.225  24.613  23.761  0.00  0.00    +0.155 HD
BRANCH  14  15
ATOM     15  C   UNL     1      12.708  24.737  23.018  0.00  0.00    +0.037 A 
ATOM     16  C   UNL     1      12.558  26.085  23.573  0.00  0.00    +0.013 A 
ATOM     17  C   UNL     1      13.673  26.727  24.223  0.00  0.00    +0.005 A 
ATOM     18  C   UNL     1      14.947  26.021  24.323  0.00  0.00    -0.033 A 
ATOM     28  C   UNL     1      15.067  24.682  23.768  0.00  0.00    +0.005 A 
ATOM     29  C   UNL     1      13.977  24.050  23.129  0.00  0.00    +0.013 A 
BRANCH  18  19
ATOM     19  C   UNL     1      16.196  26.637  24.982  0.00  0.00    +0.119 C 
BRANCH  19  20
ATOM     20  N   UNL     1      16.850  27.777  24.273  0.00  0.00    -0.302 NA
ATOM     21  C   UNL     1      17.549  27.330  22.986  0.00  0.00    +0.066 C 
ATOM     22  C   UNL     1      18.208  28.539  22.247  0.00  0.00    -0.064 C 
ATOM     23  N   UNL     1      19.196  29.231  23.187  0.00  0.00    +0.379 N 
ATOM     24  C   UNL     1      19.861  30.333  22.475  0.00  0.00    -0.096 C 
ATOM     25  H   UNL     1      19.978  28.486  23.463  0.00  0.00    -0.082 HD
ATOM     26  C   UNL     1      18.510  29.677  24.470  0.00  0.00    -0.064 C 
ATOM     27  C   UNL     1      17.833  28.473  25.182  0.00  0.00    +0.066 C 
ENDBRANCH  19  20
ENDBRANCH  18  19
ENDBRANCH  14  15
ENDBRANCH  12  13
TORSDOF 6
ENDMDL
MODEL 2
REMARK VINA RESULT:      -8.3      3.277      4.522
REMARK  Name = C:\Users\Docking\Desktop\test protocol\1iep_ligandH.pdb
REMARK  8 active torsions:
REMARK  status: ('A' for Active; 'I' for Inactive)
REMARK    1  A    between atoms: _5  and  _11
REMARK    2  A    between atoms: _19  and  _21
REMARK    3  A    between atoms: _22  and  _66
REMARK    4  A    between atoms: _27  and  _30
REMARK    5  A    between atoms: _32  and  _33
REMARK    6  A    between atoms: _38  and  _43
REMARK    7  A    between atoms: _43  and  _46
REMARK    8  A    between atoms: _53  and  _55
REMARK                            x       y       z     vdW  Elec       q    Type
REMARK                         _______ _______ _______ _____ _____    ______ ____
ROOT
ATOM     10  C   UNL     1       7.014  24.632  21.121  0.00  0.00    +0.038 A 
ATOM     11  C   UNL     1       8.390  24.404  21.376  0.00  0.00    +0.047 A 
ATOM     12  C   UNL     1       8.854  24.002  22.695  0.00  0.00    +0.035 A 
ATOM     32  C   UNL     1       7.888  23.839  23.730  0.00  0.00    +0.024 A 
ATOM     33  C   UNL     1       6.485  24.068  23.489  0.00  0.00    +0.007 A 
ATOM     34  C   UNL     1       6.022  24.467  22.190  0.00  0.00    -0.029 A 
ATOM     35  C   UNL     1       4.507  24.704  21.990  0.00  0.00    +0.045 C 
ENDROOT
BRANCH  10   9
ATOM      4  C   UNL     1       7.274  24.295  16.340  0.00  0.00    +0.077 A 
ATOM      5  C   UNL     1       8.293  23.287  16.407  0.00  0.00    +0.048 A 
ATOM      6  C   UNL     1       8.728  22.889  17.691  0.00  0.00    +0.116 A 
ATOM      7  N   UNL     1       8.177  23.462  18.817  0.00  0.00    -0.223 NA
ATOM      8  C   UNL     1       7.197  24.432  18.717  0.00  0.00    +0.220 A 
ATOM      9  N   UNL     1       6.623  25.016  19.836  0.00  0.00    -0.283 N 
ATOM     36  H   UNL     1       5.909  25.734  19.719  0.00  0.00    +0.155 HD
ATOM     37  N   UNL     1       6.766  24.831  17.502  0.00  0.00    -0.214 NA
BRANCH   4   3
ATOM      1  C   UNL     1       5.370  26.486  13.718  0.00  0.00    +0.020 A 
ATOM      2  C   UNL     1       5.891  26.023  14.984  0.00  0.00    +0.013 A 
ATOM      3  C   UNL     1       6.709  24.819  15.056  0.00  0.00    +0.019 A 
ATOM     38  C   UNL     1       6.984  24.101  13.820  0.00  0.00    +0.120 A 
ATOM     39  N   UNL     1       6.467  24.571  12.617  0.00  0.00    -0.263 NA
ATOM     40  C   UNL     1       5.677  25.727  12.535  0.00  0.00    +0.111 A 
ENDBRANCH   4   3
ENDBRANCH  10   9
BRANCH  12  13
ATOM     13  N   UNL     1      10.240  23.764  23.015  0.00  0.00    -0.281 N 
ATOM     14  C   UNL     1      11.236  24.701  23.235  0.00  0.00    +0.248 C 
ATOM     30  O   UNL     1      11.134  25.891  22.977  0.00  0.00    -0.270 OA
ATOM     31  H   UNL     1      10.520  22.786  23.090  0.00  0.00    +0.155 HD
BRANCH  14  15
ATOM     15  C   UNL     1      12.539  24.248  23.810  0.00  0.00    +0.037 A 
ATOM     16  C   UNL     1      12.653  23.857  25.217  0.00  0.00    +0.013 A 
ATOM     17  C   UNL     1      13.926  23.441  25.751  0.00  0.00    +0.005 A 
ATOM     18  C   UNL     1      15.095  23.412  24.876  0.00  0.00    -0.033 A 
ATOM     28  C   UNL     1      14.952  23.800  23.482  0.00  0.00    +0.005 A 
ATOM     29  C   UNL     1      13.707  24.210  22.956  0.00  0.00    +0.013 A 
BRANCH  18  19
ATOM     19  C   UNL     1      16.496  23.001  25.365  0.00  0.00    +0.119 C 
BRANCH  19  20
ATOM     20  N   UNL     1      16.815  21.542  25.381  0.00  0.00    -0.302 NA
ATOM     21  C   UNL     1      17.711  21.162  26.563  0.00  0.00    +0.066 C 
ATOM     22  C   UNL     1      18.015  19.629  26.577  0.00  0.00    -0.064 C 
ATOM     23  N   UNL     1      18.668  19.229  25.253  0.00  0.00    +0.379 N 
ATOM     24  C   UNL     1      19.008  17.799  25.285  0.00  0.00    -0.096 C 
ATOM     25  H   UNL     1      19.620  19.802  25.159  0.00  0.00    -0.082 HD
ATOM     26  C   UNL     1      17.785  19.606  24.071  0.00  0.00    -0.064 C 
ATOM     27  C   UNL     1      17.464  21.127  24.084  0.00  0.00    +0.066 C 
ENDBRANCH  19  20
ENDBRANCH  18  19
ENDBRANCH  14  15
ENDBRANCH  12  13
TORSDOF 6
ENDMDL
MODEL 3
REMARK VINA RESULT:      -8.0      6.257     11.615
REMARK  Name = C:\Users\Docking\Desktop\test protocol\1iep_ligandH.pdb
REMARK  8 active torsions:
REMARK  status: ('A' for Active; 'I' for Inactive)
REMARK    1  A    between atoms: _5  and  _11
REMARK    2  A    between atoms: _19  and  _21
REMARK    3  A    between atoms: _22  and  _66
REMARK    4  A    between atoms: _27  and  _30
REMARK    5  A    between atoms: _32  and  _33
REMARK    6  A    between atoms: _38  and  _43
REMARK    7  A    between atoms: _43  and  _46
REMARK    8  A    between atoms: _53  and  _55
REMARK                            x       y       z     vdW  Elec       q    Type
REMARK                         _______ _______ _______ _____ _____    ______ ____
ROOT
ATOM     10  C   UNL     1      18.939  22.401  21.974  0.00  0.00    +0.038 A 
ATOM     11  C   UNL     1      17.597  22.844  22.094  0.00  0.00    +0.047 A 
ATOM     12  C   UNL     1      16.897  22.786  23.368  0.00  0.00    +0.035 A 
ATOM     32  C   UNL     1      17.594  22.272  24.499  0.00  0.00    +0.024 A 
ATOM     33  C   UNL     1      18.958  21.816  24.395  0.00  0.00    +0.007 A 
ATOM     34  C   UNL     1      19.654  21.869  23.141  0.00  0.00    -0.029 A 
ATOM     35  C   UNL     1      21.113  21.361  23.086  0.00  0.00    +0.045 C 
ENDROOT
BRANCH  10   9
ATOM      4  C   UNL     1      20.310  20.475  17.797  0.00  0.00    +0.077 A 
ATOM      5  C   UNL     1      19.759  19.196  18.138  0.00  0.00    +0.048 A 
ATOM      6  C   UNL     1      19.137  19.073  19.401  0.00  0.00    +0.116 A 
ATOM      7  N   UNL     1      19.077  20.156  20.251  0.00  0.00    -0.223 NA
ATOM      8  C   UNL     1      19.620  21.376  19.892  0.00  0.00    +0.220 A 
ATOM      9  N   UNL     1      19.564  22.480  20.727  0.00  0.00    -0.283 N 
ATOM     36  H   UNL     1      19.983  23.361  20.428  0.00  0.00    +0.155 HD
ATOM     37  N   UNL     1      20.220  21.518  18.692  0.00  0.00    -0.214 NA
BRANCH   4   3
ATOM      1  C   UNL     1      21.007  21.054  13.991  0.00  0.00    +0.020 A 
ATOM      2  C   UNL     1      20.298  20.769  15.218  0.00  0.00    +0.013 A 
ATOM      3  C   UNL     1      20.996  20.764  16.497  0.00  0.00    +0.019 A 
ATOM     38  C   UNL     1      22.421  21.054  16.502  0.00  0.00    +0.120 A 
ATOM     39  N   UNL     1      23.078  21.323  15.305  0.00  0.00    -0.263 NA
ATOM     40  C   UNL     1      22.417  21.329  14.067  0.00  0.00    +0.111 A 
ENDBRANCH   4   3
ENDBRANCH  10   9
BRANCH  12  13
ATOM     13  N   UNL     1      15.532  23.213  23.548  0.00  0.00    -0.281 N 
ATOM     14  C   UNL     1      15.053  24.509  23.659  0.00  0.00    +0.248 C 
ATOM     30  O   UNL     1      15.756  25.493  23.835  0.00  0.00    -0.270 OA
ATOM     31  H   UNL     1      14.834  22.471  23.601  0.00  0.00    +0.155 HD
BRANCH  14  15
ATOM     15  C   UNL     1      13.579  24.743  23.578  0.00  0.00    +0.037 A 
ATOM     16  C   UNL     1      12.632  23.878  24.285  0.00  0.00    +0.013 A 
ATOM     17  C   UNL     1      11.214  24.115  24.176  0.00  0.00    +0.005 A 
ATOM     18  C   UNL     1      10.735  25.226  23.357  0.00  0.00    -0.033 A 
ATOM     28  C   UNL     1      11.697  26.072  22.670  0.00  0.00    +0.005 A 
ATOM     29  C   UNL     1      13.087  25.841  22.773  0.00  0.00    +0.013 A 
BRANCH  18  19
ATOM     19  C   UNL     1       9.240  25.541  23.166  0.00  0.00    +0.119 C 
BRANCH  19  20
ATOM     20  N   UNL     1       8.488  24.714  22.176  0.00  0.00    -0.302 NA
ATOM     21  C   UNL     1       7.417  25.528  21.444  0.00  0.00    +0.066 C 
ATOM     22  C   UNL     1       6.655  24.653  20.395  0.00  0.00    -0.064 C 
ATOM     23  N   UNL     1       6.032  23.446  21.099  0.00  0.00    +0.379 N 
ATOM     24  C   UNL     1       5.266  22.653  20.126  0.00  0.00    -0.096 C 
ATOM     25  H   UNL     1       5.314  23.832  21.860  0.00  0.00    -0.082 HD
ATOM     26  C   UNL     1       7.089  22.633  21.831  0.00  0.00    -0.064 C 
ATOM     27  C   UNL     1       7.860  23.519  22.850  0.00  0.00    +0.066 C 
ENDBRANCH  19  20
ENDBRANCH  18  19
ENDBRANCH  14  15
ENDBRANCH  12  13
TORSDOF 6
ENDMDL
MODEL 4
REMARK VINA RESULT:      -7.9      5.668      8.834
REMARK  Name = C:\Users\Docking\Desktop\test protocol\1iep_ligandH.pdb
REMARK  8 active torsions:
REMARK  status: ('A' for Active; 'I' for Inactive)
REMARK    1  A    between atoms: _5  and  _11
REMARK    2  A    between atoms: _19  and  _21
REMARK    3  A    between atoms: _22  and  _66
REMARK    4  A    between atoms: _27  and  _30
REMARK    5  A    between atoms: _32  and  _33
REMARK    6  A    between atoms: _38  and  _43
REMARK    7  A    between atoms: _43  and  _46
REMARK    8  A    between atoms: _53  and  _55
REMARK                            x       y       z     vdW  Elec       q    Type
REMARK                         _______ _______ _______ _____ _____    ______ ____
ROOT
ATOM     10  C   UNL     1      12.037  25.181  25.235  0.00  0.00    +0.038 A 
ATOM     11  C   UNL     1      13.030  24.341  24.671  0.00  0.00    +0.047 A 
ATOM     12  C   UNL     1      14.365  24.842  24.384  0.00  0.00    +0.035 A 
ATOM     32  C   UNL     1      14.655  26.205  24.686  0.00  0.00    +0.024 A 
ATOM     33  C   UNL     1      13.657  27.073  25.259  0.00  0.00    +0.007 A 
ATOM     34  C   UNL     1      12.338  26.585  25.542  0.00  0.00    -0.029 A 
ATOM     35  C   UNL     1      11.305  27.563  26.150  0.00  0.00    +0.045 C 
ENDROOT
BRANCH  10   9
ATOM      4  C   UNL     1       7.471  24.343  24.015  0.00  0.00    +0.077 A 
ATOM      5  C   UNL     1       7.611  25.051  22.775  0.00  0.00    +0.048 A 
ATOM      6  C   UNL     1       8.872  25.622  22.492  0.00  0.00    +0.116 A 
ATOM      7  N   UNL     1       9.909  25.489  23.390  0.00  0.00    -0.223 NA
ATOM      8  C   UNL     1       9.740  24.801  24.577  0.00  0.00    +0.220 A 
ATOM      9  N   UNL     1      10.772  24.648  25.491  0.00  0.00    -0.283 N 
ATOM     36  H   UNL     1      10.605  24.140  26.359  0.00  0.00    +0.155 HD
ATOM     37  N   UNL     1       8.545  24.248  24.871  0.00  0.00    -0.214 NA
BRANCH   4   3
ATOM      1  C   UNL     1       4.247  22.130  24.089  0.00  0.00    +0.020 A 
ATOM      2  C   UNL     1       5.468  22.741  23.617  0.00  0.00    +0.013 A 
ATOM      3  C   UNL     1       6.202  23.682  24.454  0.00  0.00    +0.019 A 
ATOM     38  C   UNL     1       5.670  23.984  25.774  0.00  0.00    +0.120 A 
ATOM     39  N   UNL     1       4.492  23.380  26.202  0.00  0.00    -0.263 NA
ATOM     40  C   UNL     1       3.776  22.475  25.404  0.00  0.00    +0.111 A 
ENDBRANCH   4   3
ENDBRANCH  10   9
BRANCH  12  13
ATOM     13  N   UNL     1      15.412  24.038  23.804  0.00  0.00    -0.281 N 
ATOM     14  C   UNL     1      16.246  23.135  24.444  0.00  0.00    +0.248 C 
ATOM     30  O   UNL     1      16.360  23.039  25.656  0.00  0.00    -0.270 OA
ATOM     31  H   UNL     1      15.557  24.148  22.800  0.00  0.00    +0.155 HD
BRANCH  14  15
ATOM     15  C   UNL     1      17.085  22.216  23.616  0.00  0.00    +0.037 A 
ATOM     16  C   UNL     1      17.287  20.817  24.002  0.00  0.00    +0.013 A 
ATOM     17  C   UNL     1      18.115  19.956  23.195  0.00  0.00    +0.005 A 
ATOM     18  C   UNL     1      18.746  20.492  21.992  0.00  0.00    -0.033 A 
ATOM     28  C   UNL     1      18.525  21.882  21.629  0.00  0.00    +0.005 A 
ATOM     29  C   UNL     1      17.715  22.729  22.418  0.00  0.00    +0.013 A 
BRANCH  18  19
ATOM     19  C   UNL     1      19.662  19.652  21.083  0.00  0.00    +0.119 C 
BRANCH  19  20
ATOM     20  N   UNL     1      19.882  20.144  19.691  0.00  0.00    -0.302 NA
ATOM     21  C   UNL     1      19.059  19.358  18.666  0.00  0.00    +0.066 C 
ATOM     22  C   UNL     1      19.284  19.901  17.218  0.00  0.00    -0.064 C 
ATOM     23  N   UNL     1      20.774  19.838  16.878  0.00  0.00    +0.379 N 
ATOM     24  C   UNL     1      20.982  20.294  15.496  0.00  0.00    -0.096 C 
ATOM     25  H   UNL     1      21.088  18.770  16.933  0.00  0.00    -0.082 HD
ATOM     26  C   UNL     1      21.600  20.615  17.893  0.00  0.00    -0.064 C 
ATOM     27  C   UNL     1      21.347  20.087  19.333  0.00  0.00    +0.066 C 
ENDBRANCH  19  20
ENDBRANCH  18  19
ENDBRANCH  14  15
ENDBRANCH  12  13
TORSDOF 6
ENDMDL
MODEL 5
REMARK VINA RESULT:      -7.7     20.941     25.096
REMARK  Name = C:\Users\Docking\Desktop\test protocol\1iep_ligandH.pdb
REMARK  8 active torsions:
REMARK  status: ('A' for Active; 'I' for Inactive)
REMARK    1  A    between atoms: _5  and  _11
REMARK    2  A    between atoms: _19  and  _21
REMARK    3  A    between atoms: _22  and  _66
REMARK    4  A    between atoms: _27  and  _30
REMARK    5  A    between atoms: _32  and  _33
REMARK    6  A    between atoms: _38  and  _43
REMARK    7  A    between atoms: _43  and  _46
REMARK    8  A    between atoms: _53  and  _55
REMARK                            x       y       z     vdW  Elec       q    Type
REMARK                         _______ _______ _______ _____ _____    ______ ____
ROOT
ATOM     10  C   UNL     1       8.779   7.247   5.267  0.00  0.00    +0.038 A 
ATOM     11  C   UNL     1       7.565   7.979   5.240  0.00  0.00    +0.047 A 
ATOM     12  C   UNL     1       7.174   8.746   4.067  0.00  0.00    +0.035 A 
ATOM     32  C   UNL     1       8.042   8.741   2.937  0.00  0.00    +0.024 A 
ATOM     33  C   UNL     1       9.281   8.003   2.947  0.00  0.00    +0.007 A 
ATOM     34  C   UNL     1       9.673   7.247   4.102  0.00  0.00    -0.029 A 
ATOM     35  C   UNL     1      11.014   6.479   4.060  0.00  0.00    +0.045 C 
ENDROOT
BRANCH  10   9
ATOM      4  C   UNL     1       8.806   3.219   7.878  0.00  0.00    +0.077 A 
ATOM      5  C   UNL     1       8.087   2.492   6.872  0.00  0.00    +0.048 A 
ATOM      6  C   UNL     1       7.722   3.193   5.701  0.00  0.00    +0.116 A 
ATOM      7  N   UNL     1       8.057   4.522   5.556  0.00  0.00    -0.223 NA
ATOM      8  C   UNL     1       8.750   5.194   6.547  0.00  0.00    +0.220 A 
ATOM      9  N   UNL     1       9.105   6.528   6.419  0.00  0.00    -0.283 N 
ATOM     36  H   UNL     1       9.609   6.990   7.175  0.00  0.00    +0.155 HD
ATOM     37  N   UNL     1       9.109   4.547   7.675  0.00  0.00    -0.214 NA
BRANCH   4   3
ATOM      1  C   UNL     1       9.491   0.689  10.781  0.00  0.00    +0.020 A 
ATOM      2  C   UNL     1       9.027   1.222   9.521  0.00  0.00    +0.013 A 
ATOM      3  C   UNL     1       9.264   2.617   9.169  0.00  0.00    +0.019 A 
ATOM     38  C   UNL     1       9.980   3.451  10.122  0.00  0.00    +0.120 A 
ATOM     39  N   UNL     1      10.414   2.911  11.329  0.00  0.00    -0.263 NA
ATOM     40  C   UNL     1      10.189   1.571  11.679  0.00  0.00    +0.111 A 
ENDBRANCH   4   3
ENDBRANCH  10   9
BRANCH  12  13
ATOM     13  N   UNL     1       5.957   9.516   3.985  0.00  0.00    -0.281 N 
ATOM     14  C   UNL     1       5.664  10.714   4.615  0.00  0.00    +0.248 C 
ATOM     30  O   UNL     1       6.328  11.202   5.517  0.00  0.00    -0.270 OA
ATOM     31  H   UNL     1       5.223   9.130   3.392  0.00  0.00    +0.155 HD
BRANCH  14  15
ATOM     15  C   UNL     1       4.450  11.475   4.189  0.00  0.00    +0.037 A 
ATOM     16  C   UNL     1       3.102  10.977   4.476  0.00  0.00    +0.013 A 
ATOM     17  C   UNL     1       1.948  11.721   4.040  0.00  0.00    +0.005 A 
ATOM     18  C   UNL     1       2.137  12.974   3.313  0.00  0.00    -0.033 A 
ATOM     28  C   UNL     1       3.485  13.448   3.046  0.00  0.00    +0.005 A 
ATOM     29  C   UNL     1       4.619  12.720   3.472  0.00  0.00    +0.013 A 
BRANCH  18  19
ATOM     19  C   UNL     1       0.963  13.824   2.791  0.00  0.00    +0.119 C 
BRANCH  19  20
ATOM     20  N   UNL     1       0.201  14.627   3.794  0.00  0.00    -0.302 NA
ATOM     21  C   UNL     1       1.127  15.335   4.786  0.00  0.00    +0.066 C 
ATOM     22  C   UNL     1       0.315  16.188   5.814  0.00  0.00    -0.064 C 
ATOM     23  N   UNL     1      -0.678  15.287   6.549  0.00  0.00    +0.379 N 
ATOM     24  C   UNL     1      -1.403  16.074   7.557  0.00  0.00    -0.096 C 
ATOM     25  H   UNL     1      -0.092  14.506   7.087  0.00  0.00    -0.082 HD
ATOM     26  C   UNL     1      -1.602  14.576   5.569  0.00  0.00    -0.064 C 
ATOM     27  C   UNL     1      -0.783  13.755   4.534  0.00  0.00    +0.066 C 
ENDBRANCH  19  20
ENDBRANCH  18  19
ENDBRANCH  14  15
ENDBRANCH  12  13
TORSDOF 6
ENDMDL
