MODEL 1
REMARK VINA RESULT:      -9.8      0.000      0.000
REMARK  Name = C:\Users\Docking\Desktop\test protocol\1iep_ligandH.pdb
REMARK  8 active torsions:
REMARK  status: ('A' for Active; 'I' for Inactive)
REMARK    1  A    between atoms: _5  and  _11
REMARK    2  A    between atoms: _19  and  _21
REMARK    3  A    between atoms: _22  and  _66
REMARK    4  A    between atoms: _27  and  _30
REMARK    5  A    between atoms: _32  and  _33
REMARK    6  A    between atoms: _38  and  _43
REMARK    7  A    between atoms: _43  and  _46
REMARK    8  A    between atoms: _53  and  _55
REMARK                            x       y       z     vdW  Elec       q    Type
REMARK                         _______ _______ _______ _____ _____    ______ ____
ROOT
ATOM     10  C   UNL     1     -14.986 -16.077  -7.686  0.00  0.00    +0.038 A 
ATOM     11  C   UNL     1     -14.260 -14.965  -7.188  0.00  0.00    +0.047 A 
ATOM     12  C   UNL     1     -12.805 -14.959  -7.179  0.00  0.00    +0.035 A 
ATOM     32  C   UNL     1     -12.122 -16.103  -7.687  0.00  0.00    +0.024 A 
ATOM     33  C   UNL     1     -12.845 -17.242  -8.195  0.00  0.00    +0.007 A 
ATOM     34  C   UNL     1     -14.280 -17.254  -8.205  0.00  0.00    -0.029 A 
ATOM     35  C   UNL     1     -15.002 -18.505  -8.756  0.00  0.00    +0.045 C 
ENDROOT
BRANCH  10   9
ATOM      4  C   UNL     1     -19.149 -14.558  -5.842  0.00  0.00    +0.077 A 
ATOM      5  C   UNL     1     -18.489 -13.820  -4.804  0.00  0.00    +0.048 A 
ATOM      6  C   UNL     1     -17.077 -13.864  -4.775  0.00  0.00    +0.116 A 
ATOM      7  N   UNL     1     -16.387 -14.593  -5.720  0.00  0.00    -0.223 NA
ATOM      8  C   UNL     1     -17.055 -15.294  -6.706  0.00  0.00    +0.220 A 
ATOM      9  N   UNL     1     -16.382 -16.028  -7.671  0.00  0.00    -0.283 N 
ATOM     36  H   UNL     1     -16.912 -16.538  -8.378  0.00  0.00    +0.155 HD
ATOM     37  N   UNL     1     -18.404 -15.270  -6.754  0.00  0.00    -0.214 NA
BRANCH   4   3
ATOM      1  C   UNL     1     -22.724 -14.930  -7.386  0.00  0.00    +0.020 A 
ATOM      2  C   UNL     1     -21.284 -14.893  -7.281  0.00  0.00    +0.013 A 
ATOM      3  C   UNL     1     -20.637 -14.608  -6.006  0.00  0.00    +0.019 A 
ATOM     38  C   UNL     1     -21.483 -14.363  -4.848  0.00  0.00    +0.120 A 
ATOM     39  N   UNL     1     -22.867 -14.404  -4.979  0.00  0.00    -0.263 NA
ATOM     40  C   UNL     1     -23.501 -14.675  -6.201  0.00  0.00    +0.111 A 
ENDBRANCH   4   3
ENDBRANCH  10   9
BRANCH  12  13
ATOM     13  N   UNL     1     -12.014 -13.863  -6.679  0.00  0.00    -0.281 N 
ATOM     14  C   UNL     1     -11.406 -13.747  -5.439  0.00  0.00    +0.248 C 
ATOM     30  O   UNL     1     -11.630 -14.481  -4.488  0.00  0.00    -0.270 OA
ATOM     31  H   UNL     1     -11.886 -13.076  -7.316  0.00  0.00    +0.155 HD
BRANCH  14  15
ATOM     15  C   UNL     1     -10.417 -12.648  -5.220  0.00  0.00    +0.037 A 
ATOM     16  C   UNL     1      -9.440 -12.711  -4.131  0.00  0.00    +0.013 A 
ATOM     17  C   UNL     1      -8.508 -11.629  -3.931  0.00  0.00    +0.005 A 
ATOM     18  C   UNL     1      -8.549 -10.475  -4.825  0.00  0.00    -0.033 A 
ATOM     28  C   UNL     1      -9.526 -10.440  -5.900  0.00  0.00    +0.005 A 
ATOM     29  C   UNL     1     -10.441 -11.498  -6.099  0.00  0.00    +0.013 A 
BRANCH  18  19
ATOM     19  C   UNL     1      -7.607  -9.265  -4.673  0.00  0.00    +0.119 C 
BRANCH  19  20
ATOM     20  N   UNL     1      -6.399  -9.444  -3.813  0.00  0.00    -0.302 NA
ATOM     21  C   UNL     1      -6.083  -8.186  -2.999  0.00  0.00    +0.066 C 
ATOM     22  C   UNL     1      -4.830  -8.398  -2.088  0.00  0.00    -0.064 C 
ATOM     23  N   UNL     1      -3.634  -8.796  -2.956  0.00  0.00    +0.379 N 
ATOM     24  C   UNL     1      -2.440  -8.939  -2.110  0.00  0.00    -0.096 C 
ATOM     25  H   UNL     1      -3.444  -7.963  -3.672  0.00  0.00    -0.082 HD
ATOM     26  C   UNL     1      -3.941 -10.044  -3.771  0.00  0.00    -0.064 C 
ATOM     27  C   UNL     1      -5.205  -9.833  -4.650  0.00  0.00    +0.066 C 
ENDBRANCH  19  20
ENDBRANCH  18  19
ENDBRANCH  14  15
ENDBRANCH  12  13
TORSDOF 6
ENDMDL
MODEL 2
REMARK VINA RESULT:      -9.7      1.616      1.826
REMARK  Name = C:\Users\Docking\Desktop\test protocol\1iep_ligandH.pdb
REMARK  8 active torsions:
REMARK  status: ('A' for Active; 'I' for Inactive)
REMARK    1  A    between atoms: _5  and  _11
REMARK    2  A    between atoms: _19  and  _21
REMARK    3  A    between atoms: _22  and  _66
REMARK    4  A    between atoms: _27  and  _30
REMARK    5  A    between atoms: _32  and  _33
REMARK    6  A    between atoms: _38  and  _43
REMARK    7  A    between atoms: _43  and  _46
REMARK    8  A    between atoms: _53  and  _55
REMARK                            x       y       z     vdW  Elec       q    Type
REMARK                         _______ _______ _______ _____ _____    ______ ____
ROOT
ATOM     10  C   UNL     1     -15.371 -16.533  -5.283  0.00  0.00    +0.038 A 
ATOM     11  C   UNL     1     -14.344 -15.585  -5.041  0.00  0.00    +0.047 A 
ATOM     12  C   UNL     1     -12.994 -15.793  -5.544  0.00  0.00    +0.035 A 
ATOM     32  C   UNL     1     -12.727 -16.976  -6.293  0.00  0.00    +0.024 A 
ATOM     33  C   UNL     1     -13.759 -17.950  -6.547  0.00  0.00    +0.007 A 
ATOM     34  C   UNL     1     -15.091 -17.752  -6.051  0.00  0.00    -0.029 A 
ATOM     35  C   UNL     1     -16.156 -18.833  -6.349  0.00  0.00    +0.045 C 
ENDROOT
BRANCH  10   9
ATOM      4  C   UNL     1     -19.537 -14.150  -5.295  0.00  0.00    +0.077 A 
ATOM      5  C   UNL     1     -19.124 -13.315  -6.386  0.00  0.00    +0.048 A 
ATOM      6  C   UNL     1     -17.829 -13.525  -6.910  0.00  0.00    +0.116 A 
ATOM      7  N   UNL     1     -17.017 -14.502  -6.377  0.00  0.00    -0.223 NA
ATOM      8  C   UNL     1     -17.445 -15.289  -5.324  0.00  0.00    +0.220 A 
ATOM      9  N   UNL     1     -16.648 -16.283  -4.777  0.00  0.00    -0.283 N 
ATOM     36  H   UNL     1     -16.998 -16.837  -3.996  0.00  0.00    +0.155 HD
ATOM     37  N   UNL     1     -18.677 -15.107  -4.804  0.00  0.00    -0.214 NA
BRANCH   4   3
ATOM      1  C   UNL     1     -23.386 -14.320  -4.618  0.00  0.00    +0.020 A 
ATOM      2  C   UNL     1     -22.118 -14.434  -5.300  0.00  0.00    +0.013 A 
ATOM      3  C   UNL     1     -20.878 -14.051  -4.636  0.00  0.00    +0.019 A 
ATOM     38  C   UNL     1     -20.957 -13.553  -3.271  0.00  0.00    +0.120 A 
ATOM     39  N   UNL     1     -22.193 -13.452  -2.640  0.00  0.00    -0.263 NA
ATOM     40  C   UNL     1     -23.393 -13.816  -3.270  0.00  0.00    +0.111 A 
ENDBRANCH   4   3
ENDBRANCH  10   9
BRANCH  12  13
ATOM     13  N   UNL     1     -11.909 -14.870  -5.323  0.00  0.00    -0.281 N 
ATOM     14  C   UNL     1     -11.582 -13.746  -6.064  0.00  0.00    +0.248 C 
ATOM     30  O   UNL     1     -12.050 -13.482  -7.162  0.00  0.00    -0.270 OA
ATOM     31  H   UNL     1     -11.309 -15.069  -4.523  0.00  0.00    +0.155 HD
BRANCH  14  15
ATOM     15  C   UNL     1     -10.581 -12.783  -5.512  0.00  0.00    +0.037 A 
ATOM     16  C   UNL     1      -9.782 -13.112  -4.329  0.00  0.00    +0.013 A 
ATOM     17  C   UNL     1      -8.835 -12.158  -3.807  0.00  0.00    +0.005 A 
ATOM     18  C   UNL     1      -8.682 -10.866  -4.470  0.00  0.00    -0.033 A 
ATOM     28  C   UNL     1      -9.484 -10.567  -5.645  0.00  0.00    +0.005 A 
ATOM     29  C   UNL     1     -10.413 -11.499  -6.159  0.00  0.00    +0.013 A 
BRANCH  18  19
ATOM     19  C   UNL     1      -7.711  -9.779  -3.970  0.00  0.00    +0.119 C 
BRANCH  19  20
ATOM     20  N   UNL     1      -6.254 -10.105  -3.986  0.00  0.00    -0.302 NA
ATOM     21  C   UNL     1      -5.510  -9.465  -2.811  0.00  0.00    +0.066 C 
ATOM     22  C   UNL     1      -3.990  -9.834  -2.830  0.00  0.00    -0.064 C 
ATOM     23  N   UNL     1      -3.379  -9.395  -4.162  0.00  0.00    +0.379 N 
ATOM     24  C   UNL     1      -1.938  -9.688  -4.161  0.00  0.00    -0.096 C 
ATOM     25  H   UNL     1      -3.500  -8.289  -4.241  0.00  0.00    -0.082 HD
ATOM     26  C   UNL     1      -4.115 -10.024  -5.336  0.00  0.00    -0.064 C 
ATOM     27  C   UNL     1      -5.629  -9.676  -5.291  0.00  0.00    +0.066 C 
ENDBRANCH  19  20
ENDBRANCH  18  19
ENDBRANCH  14  15
ENDBRANCH  12  13
TORSDOF 6
ENDMDL
MODEL 3
REMARK VINA RESULT:      -9.4      1.268      1.781
REMARK  Name = C:\Users\Docking\Desktop\test protocol\1iep_ligandH.pdb
REMARK  8 active torsions:
REMARK  status: ('A' for Active; 'I' for Inactive)
REMARK    1  A    between atoms: _5  and  _11
REMARK    2  A    between atoms: _19  and  _21
REMARK    3  A    between atoms: _22  and  _66
REMARK    4  A    between atoms: _27  and  _30
REMARK    5  A    between atoms: _32  and  _33
REMARK    6  A    between atoms: _38  and  _43
REMARK    7  A    between atoms: _43  and  _46
REMARK    8  A    between atoms: _53  and  _55
REMARK                            x       y       z     vdW  Elec       q    Type
REMARK                         _______ _______ _______ _____ _____    ______ ____
ROOT
ATOM     10  C   UNL     1     -13.780 -15.426  -7.642  0.00  0.00    +0.038 A 
ATOM     11  C   UNL     1     -13.114 -14.304  -7.087  0.00  0.00    +0.047 A 
ATOM     12  C   UNL     1     -11.677 -14.316  -6.862  0.00  0.00    +0.035 A 
ATOM     32  C   UNL     1     -10.948 -15.489  -7.216  0.00  0.00    +0.024 A 
ATOM     33  C   UNL     1     -11.609 -16.639  -7.780  0.00  0.00    +0.007 A 
ATOM     34  C   UNL     1     -13.026 -16.634  -8.002  0.00  0.00    -0.029 A 
ATOM     35  C   UNL     1     -13.683 -17.898  -8.604  0.00  0.00    +0.045 C 
ENDROOT
BRANCH  10   9
ATOM      4  C   UNL     1     -18.285 -15.281  -5.993  0.00  0.00    +0.077 A 
ATOM      5  C   UNL     1     -17.851 -15.372  -4.629  0.00  0.00    +0.048 A 
ATOM      6  C   UNL     1     -16.461 -15.462  -4.395  0.00  0.00    +0.116 A 
ATOM      7  N   UNL     1     -15.579 -15.460  -5.453  0.00  0.00    -0.223 NA
ATOM      8  C   UNL     1     -16.030 -15.372  -6.757  0.00  0.00    +0.220 A 
ATOM      9  N   UNL     1     -15.161 -15.360  -7.837  0.00  0.00    -0.283 N 
ATOM     36  H   UNL     1     -15.534 -15.301  -8.784  0.00  0.00    +0.155 HD
ATOM     37  N   UNL     1     -17.354 -15.286  -7.008  0.00  0.00    -0.214 NA
BRANCH   4   3
ATOM      1  C   UNL     1     -22.160 -14.753  -5.914  0.00  0.00    +0.020 A 
ATOM      2  C   UNL     1     -20.789 -14.842  -5.467  0.00  0.00    +0.013 A 
ATOM      3  C   UNL     1     -19.721 -15.176  -6.402  0.00  0.00    +0.019 A 
ATOM     38  C   UNL     1     -20.078 -15.416  -7.792  0.00  0.00    +0.120 A 
ATOM     39  N   UNL     1     -21.407 -15.325  -8.193  0.00  0.00    -0.263 NA
ATOM     40  C   UNL     1     -22.443 -15.006  -7.302  0.00  0.00    +0.111 A 
ENDBRANCH   4   3
ENDBRANCH  10   9
BRANCH  12  13
ATOM     13  N   UNL     1     -10.948 -13.209  -6.294  0.00  0.00    -0.281 N 
ATOM     14  C   UNL     1     -10.466 -13.080  -5.002  0.00  0.00    +0.248 C 
ATOM     30  O   UNL     1     -10.775 -13.811  -4.073  0.00  0.00    -0.270 OA
ATOM     31  H   UNL     1     -10.766 -12.425  -6.921  0.00  0.00    +0.155 HD
BRANCH  14  15
ATOM     15  C   UNL     1      -9.513 -11.971  -4.695  0.00  0.00    +0.037 A 
ATOM     16  C   UNL     1      -8.575 -12.064  -3.573  0.00  0.00    +0.013 A 
ATOM     17  C   UNL     1      -7.678 -10.972  -3.288  0.00  0.00    +0.005 A 
ATOM     18  C   UNL     1      -7.714  -9.777  -4.128  0.00  0.00    -0.033 A 
ATOM     28  C   UNL     1      -8.651  -9.714  -5.238  0.00  0.00    +0.005 A 
ATOM     29  C   UNL     1      -9.532 -10.781  -5.519  0.00  0.00    +0.013 A 
BRANCH  18  19
ATOM     19  C   UNL     1      -6.808  -8.556  -3.885  0.00  0.00    +0.119 C 
BRANCH  19  20
ATOM     20  N   UNL     1      -5.333  -8.772  -3.965  0.00  0.00    -0.302 NA
ATOM     21  C   UNL     1      -4.974  -9.963  -4.858  0.00  0.00    +0.066 C 
ATOM     22  C   UNL     1      -3.426 -10.160  -4.949  0.00  0.00    -0.064 C 
ATOM     23  N   UNL     1      -2.855 -10.347  -3.543  0.00  0.00    +0.379 N 
ATOM     24  C   UNL     1      -1.408 -10.591  -3.629  0.00  0.00    -0.096 C 
ATOM     25  H   UNL     1      -3.326 -11.258  -3.105  0.00  0.00    -0.082 HD
ATOM     26  C   UNL     1      -3.209  -9.168  -2.647  0.00  0.00    -0.064 C 
ATOM     27  C   UNL     1      -4.748  -8.962  -2.587  0.00  0.00    +0.066 C 
ENDBRANCH  19  20
ENDBRANCH  18  19
ENDBRANCH  14  15
ENDBRANCH  12  13
TORSDOF 6
ENDMDL
MODEL 4
REMARK VINA RESULT:      -9.4      5.143     16.041
REMARK  Name = C:\Users\Docking\Desktop\test protocol\1iep_ligandH.pdb
REMARK  8 active torsions:
REMARK  status: ('A' for Active; 'I' for Inactive)
REMARK    1  A    between atoms: _5  and  _11
REMARK    2  A    between atoms: _19  and  _21
REMARK    3  A    between atoms: _22  and  _66
REMARK    4  A    between atoms: _27  and  _30
REMARK    5  A    between atoms: _32  and  _33
REMARK    6  A    between atoms: _38  and  _43
REMARK    7  A    between atoms: _43  and  _46
REMARK    8  A    between atoms: _53  and  _55
REMARK                            x       y       z     vdW  Elec       q    Type
REMARK                         _______ _______ _______ _____ _____    ______ ____
ROOT
ATOM     10  C   UNL     1      -1.260 -10.310  -4.984  0.00  0.00    +0.038 A 
ATOM     11  C   UNL     1      -2.523 -10.930  -4.802  0.00  0.00    +0.047 A 
ATOM     12  C   UNL     1      -3.685 -10.511  -5.571  0.00  0.00    +0.035 A 
ATOM     32  C   UNL     1      -3.523  -9.459  -6.520  0.00  0.00    +0.024 A 
ATOM     33  C   UNL     1      -2.247  -8.818  -6.717  0.00  0.00    +0.007 A 
ATOM     34  C   UNL     1      -1.099  -9.225  -5.959  0.00  0.00    -0.029 A 
ATOM     35  C   UNL     1       0.243  -8.497  -6.207  0.00  0.00    +0.045 C 
ENDROOT
BRANCH  10   9
ATOM      4  C   UNL     1       2.574 -13.115  -4.298  0.00  0.00    +0.077 A 
ATOM      5  C   UNL     1       2.391 -13.774  -5.558  0.00  0.00    +0.048 A 
ATOM      6  C   UNL     1       1.294 -13.367  -6.351  0.00  0.00    +0.116 A 
ATOM      7  N   UNL     1       0.450 -12.373  -5.905  0.00  0.00    -0.223 NA
ATOM      8  C   UNL     1       0.653 -11.759  -4.683  0.00  0.00    +0.220 A 
ATOM      9  N   UNL     1      -0.179 -10.752  -4.219  0.00  0.00    -0.283 N 
ATOM     36  H   UNL     1       0.001 -10.329  -3.309  0.00  0.00    +0.155 HD
ATOM     37  N   UNL     1       1.693 -12.131  -3.907  0.00  0.00    -0.214 NA
BRANCH   4   3
ATOM      1  C   UNL     1       4.885 -14.955  -1.734  0.00  0.00    +0.020 A 
ATOM      2  C   UNL     1       3.788 -14.700  -2.639  0.00  0.00    +0.013 A 
ATOM      3  C   UNL     1       3.689 -13.431  -3.349  0.00  0.00    +0.019 A 
ATOM     38  C   UNL     1       4.725 -12.435  -3.122  0.00  0.00    +0.120 A 
ATOM     39  N   UNL     1       5.769 -12.709  -2.244  0.00  0.00    -0.263 NA
ATOM     40  C   UNL     1       5.874 -13.925  -1.553  0.00  0.00    +0.111 A 
ENDBRANCH   4   3
ENDBRANCH  10   9
BRANCH  12  13
ATOM     13  N   UNL     1      -4.993 -11.098  -5.424  0.00  0.00    -0.281 N 
ATOM     14  C   UNL     1      -6.069 -10.610  -4.699  0.00  0.00    +0.248 C 
ATOM     30  O   UNL     1      -5.999  -9.698  -3.889  0.00  0.00    -0.270 OA
ATOM     31  H   UNL     1      -5.146 -11.980  -5.914  0.00  0.00    +0.155 HD
BRANCH  14  15
ATOM     15  C   UNL     1      -7.412 -11.236  -4.891  0.00  0.00    +0.037 A 
ATOM     16  C   UNL     1      -8.062 -11.987  -3.814  0.00  0.00    +0.013 A 
ATOM     17  C   UNL     1      -9.351 -12.595  -4.032  0.00  0.00    +0.005 A 
ATOM     18  C   UNL     1      -9.999 -12.452  -5.333  0.00  0.00    -0.033 A 
ATOM     28  C   UNL     1      -9.335 -11.698  -6.382  0.00  0.00    +0.005 A 
ATOM     29  C   UNL     1      -8.071 -11.101  -6.173  0.00  0.00    +0.013 A 
BRANCH  18  19
ATOM     19  C   UNL     1     -11.365 -13.085  -5.660  0.00  0.00    +0.119 C 
BRANCH  19  20
ATOM     20  N   UNL     1     -11.386 -14.548  -5.961  0.00  0.00    -0.302 NA
ATOM     21  C   UNL     1     -12.056 -14.849  -7.304  0.00  0.00    +0.066 C 
ATOM     22  C   UNL     1     -12.049 -16.382  -7.613  0.00  0.00    -0.064 C 
ATOM     23  N   UNL     1     -12.750 -17.131  -6.478  0.00  0.00    +0.379 N 
ATOM     24  C   UNL     1     -12.797 -18.566  -6.793  0.00  0.00    -0.096 C 
ATOM     25  H   UNL     1     -13.801 -16.761  -6.427  0.00  0.00    -0.082 HD
ATOM     26  C   UNL     1     -12.092 -16.835  -5.138  0.00  0.00    -0.064 C 
ATOM     27  C   UNL     1     -12.077 -15.307  -4.855  0.00  0.00    +0.066 C 
ENDBRANCH  19  20
ENDBRANCH  18  19
ENDBRANCH  14  15
ENDBRANCH  12  13
TORSDOF 6
ENDMDL
MODEL 5
REMARK VINA RESULT:      -8.8     22.882     28.431
REMARK  Name = C:\Users\Docking\Desktop\test protocol\1iep_ligandH.pdb
REMARK  8 active torsions:
REMARK  status: ('A' for Active; 'I' for Inactive)
REMARK    1  A    between atoms: _5  and  _11
REMARK    2  A    between atoms: _19  and  _21
REMARK    3  A    between atoms: _22  and  _66
REMARK    4  A    between atoms: _27  and  _30
REMARK    5  A    between atoms: _32  and  _33
REMARK    6  A    between atoms: _38  and  _43
REMARK    7  A    between atoms: _43  and  _46
REMARK    8  A    between atoms: _53  and  _55
REMARK                            x       y       z     vdW  Elec       q    Type
REMARK                         _______ _______ _______ _____ _____    ______ ____
ROOT
ATOM     10  C   UNL     1       1.612  -9.660  17.065  0.00  0.00    +0.038 A 
ATOM     11  C   UNL     1       1.539 -10.841  16.284  0.00  0.00    +0.047 A 
ATOM     12  C   UNL     1       0.258 -11.440  15.942  0.00  0.00    +0.035 A 
ATOM     32  C   UNL     1      -0.930 -10.807  16.412  0.00  0.00    +0.024 A 
ATOM     33  C   UNL     1      -0.874  -9.607  17.209  0.00  0.00    +0.007 A 
ATOM     34  C   UNL     1       0.387  -9.013  17.551  0.00  0.00    -0.029 A 
ATOM     35  C   UNL     1       0.386  -7.729  18.413  0.00  0.00    +0.045 C 
ENDROOT
BRANCH  10   9
ATOM      4  C   UNL     1       5.185  -6.552  16.285  0.00  0.00    +0.077 A 
ATOM      5  C   UNL     1       4.503  -5.956  15.173  0.00  0.00    +0.048 A 
ATOM      6  C   UNL     1       3.237  -6.483  14.829  0.00  0.00    +0.116 A 
ATOM      7  N   UNL     1       2.704  -7.528  15.552  0.00  0.00    -0.223 NA
ATOM      8  C   UNL     1       3.389  -8.081  16.618  0.00  0.00    +0.220 A 
ATOM      9  N   UNL     1       2.868  -9.127  17.363  0.00  0.00    -0.283 N 
ATOM     36  H   UNL     1       3.408  -9.513  18.138  0.00  0.00    +0.155 HD
ATOM     37  N   UNL     1       4.600  -7.597  16.965  0.00  0.00    -0.214 NA
BRANCH   4   3
ATOM      1  C   UNL     1       8.552  -4.600  16.680  0.00  0.00    +0.020 A 
ATOM      2  C   UNL     1       7.258  -4.993  16.172  0.00  0.00    +0.013 A 
ATOM      3  C   UNL     1       6.528  -6.103  16.771  0.00  0.00    +0.019 A 
ATOM     38  C   UNL     1       7.141  -6.800  17.892  0.00  0.00    +0.120 A 
ATOM     39  N   UNL     1       8.389  -6.400  18.359  0.00  0.00    -0.263 NA
ATOM     40  C   UNL     1       9.101  -5.334  17.790  0.00  0.00    +0.111 A 
ENDBRANCH   4   3
ENDBRANCH  10   9
BRANCH  12  13
ATOM     13  N   UNL     1       0.122 -12.642  15.159  0.00  0.00    -0.281 N 
ATOM     14  C   UNL     1       0.386 -12.814  13.810  0.00  0.00    +0.248 C 
ATOM     30  O   UNL     1       0.577 -11.900  13.021  0.00  0.00    -0.270 OA
ATOM     31  H   UNL     1      -0.208 -13.467  15.659  0.00  0.00    +0.155 HD
BRANCH  14  15
ATOM     15  C   UNL     1       0.431 -14.201  13.254  0.00  0.00    +0.037 A 
ATOM     16  C   UNL     1       1.275 -15.235  13.857  0.00  0.00    +0.013 A 
ATOM     17  C   UNL     1       1.312 -16.560  13.290  0.00  0.00    +0.005 A 
ATOM     18  C   UNL     1       0.501 -16.858  12.113  0.00  0.00    -0.033 A 
ATOM     28  C   UNL     1      -0.332 -15.815  11.538  0.00  0.00    +0.005 A 
ATOM     29  C   UNL     1      -0.370 -14.515  12.090  0.00  0.00    +0.013 A 
BRANCH  18  19
ATOM     19  C   UNL     1       0.494 -18.238  11.429  0.00  0.00    +0.119 C 
BRANCH  19  20
ATOM     20  N   UNL     1       0.253 -19.430  12.296  0.00  0.00    -0.302 NA
ATOM     21  C   UNL     1       1.468 -20.360  12.345  0.00  0.00    +0.066 C 
ATOM     22  C   UNL     1       1.207 -21.590  13.274  0.00  0.00    -0.064 C 
ATOM     23  N   UNL     1      -0.032 -22.342  12.784  0.00  0.00    +0.379 N 
ATOM     24  C   UNL     1      -0.247 -23.532  13.621  0.00  0.00    -0.096 C 
ATOM     25  H   UNL     1       0.174 -22.691  11.746  0.00  0.00    -0.082 HD
ATOM     26  C   UNL     1      -1.244 -21.423  12.730  0.00  0.00    -0.064 C 
ATOM     27  C   UNL     1      -0.963 -20.190  11.827  0.00  0.00    +0.066 C 
ENDBRANCH  19  20
ENDBRANCH  18  19
ENDBRANCH  14  15
ENDBRANCH  12  13
TORSDOF 6
ENDMDL
