MODEL 1
REMARK VINA RESULT:      -8.3      0.000      0.000
REMARK  Name = C:\Users\Docking\Desktop\test protocol\1iep_ligandH.pdb
REMARK  8 active torsions:
REMARK  status: ('A' for Active; 'I' for Inactive)
REMARK    1  A    between atoms: _5  and  _11
REMARK    2  A    between atoms: _19  and  _21
REMARK    3  A    between atoms: _22  and  _66
REMARK    4  A    between atoms: _27  and  _30
REMARK    5  A    between atoms: _32  and  _33
REMARK    6  A    between atoms: _38  and  _43
REMARK    7  A    between atoms: _43  and  _46
REMARK    8  A    between atoms: _53  and  _55
REMARK                            x       y       z     vdW  Elec       q    Type
REMARK                         _______ _______ _______ _____ _____    ______ ____
ROOT
ATOM     10  C   UNL     1       5.575  -8.970  27.143  0.00  0.00    +0.038 A 
ATOM     11  C   UNL     1       4.234  -8.713  27.526  0.00  0.00    +0.047 A 
ATOM     12  C   UNL     1       3.572  -7.471  27.158  0.00  0.00    +0.035 A 
ATOM     32  C   UNL     1       4.305  -6.513  26.398  0.00  0.00    +0.024 A 
ATOM     33  C   UNL     1       5.669  -6.758  26.002  0.00  0.00    +0.007 A 
ATOM     34  C   UNL     1       6.329  -7.980  26.364  0.00  0.00    -0.029 A 
ATOM     35  C   UNL     1       7.795  -8.186  25.917  0.00  0.00    +0.045 C 
ENDROOT
BRANCH  10   9
ATOM      4  C   UNL     1       6.635 -13.587  26.372  0.00  0.00    +0.077 A 
ATOM      5  C   UNL     1       5.938 -13.599  25.118  0.00  0.00    +0.048 A 
ATOM      6  C   UNL     1       5.315 -12.398  24.711  0.00  0.00    +0.116 A 
ATOM      7  N   UNL     1       5.389 -11.275  25.507  0.00  0.00    -0.223 NA
ATOM      8  C   UNL     1       6.068 -11.298  26.711  0.00  0.00    +0.220 A 
ATOM      9  N   UNL     1       6.162 -10.179  27.523  0.00  0.00    -0.283 N 
ATOM     36  H   UNL     1       6.666 -10.239  28.408  0.00  0.00    +0.155 HD
ATOM     37  N   UNL     1       6.671 -12.433  27.123  0.00  0.00    -0.214 NA
BRANCH   4   3
ATOM      1  C   UNL     1       7.567 -17.251  27.374  0.00  0.00    +0.020 A 
ATOM      2  C   UNL     1       6.840 -16.137  26.811  0.00  0.00    +0.013 A 
ATOM      3  C   UNL     1       7.348 -14.777  26.936  0.00  0.00    +0.019 A 
ATOM     38  C   UNL     1       8.604 -14.577  27.642  0.00  0.00    +0.120 A 
ATOM     39  N   UNL     1       9.282 -15.669  28.175  0.00  0.00    -0.263 NA
ATOM     40  C   UNL     1       8.802 -16.982  28.062  0.00  0.00    +0.111 A 
ENDBRANCH   4   3
ENDBRANCH  10   9
BRANCH  12  13
ATOM     13  N   UNL     1       2.214  -7.151  27.524  0.00  0.00    -0.281 N 
ATOM     14  C   UNL     1       1.777  -6.165  28.394  0.00  0.00    +0.248 C 
ATOM     30  O   UNL     1       2.502  -5.545  29.157  0.00  0.00    -0.270 OA
ATOM     31  H   UNL     1       1.488  -7.720  27.090  0.00  0.00    +0.155 HD
BRANCH  14  15
ATOM     15  C   UNL     1       0.321  -5.830  28.432  0.00  0.00    +0.037 A 
ATOM     16  C   UNL     1      -0.453  -5.944  29.671  0.00  0.00    +0.013 A 
ATOM     17  C   UNL     1      -1.860  -5.631  29.676  0.00  0.00    +0.005 A 
ATOM     18  C   UNL     1      -2.502  -5.199  28.437  0.00  0.00    -0.033 A 
ATOM     28  C   UNL     1      -1.710  -5.090  27.223  0.00  0.00    +0.005 A 
ATOM     29  C   UNL     1      -0.331  -5.397  27.214  0.00  0.00    +0.013 A 
BRANCH  18  19
ATOM     19  C   UNL     1      -4.003  -4.865  28.345  0.00  0.00    +0.119 C 
BRANCH  19  20
ATOM     20  N   UNL     1      -4.881  -5.849  27.643  0.00  0.00    -0.302 NA
ATOM     21  C   UNL     1      -5.788  -5.174  26.610  0.00  0.00    +0.066 C 
ATOM     22  C   UNL     1      -6.683  -6.220  25.869  0.00  0.00    -0.064 C 
ATOM     23  N   UNL     1      -7.513  -6.995  26.895  0.00  0.00    +0.379 N 
ATOM     24  C   UNL     1      -8.398  -7.939  26.198  0.00  0.00    -0.096 C 
ATOM     25  H   UNL     1      -8.157  -6.261  27.433  0.00  0.00    -0.082 HD
ATOM     26  C   UNL     1      -6.618  -7.667  27.927  0.00  0.00    -0.064 C 
ATOM     27  C   UNL     1      -5.712  -6.622  28.637  0.00  0.00    +0.066 C 
ENDBRANCH  19  20
ENDBRANCH  18  19
ENDBRANCH  14  15
ENDBRANCH  12  13
TORSDOF 6
ENDMDL
MODEL 2
REMARK VINA RESULT:      -8.2     50.001     55.774
REMARK  Name = C:\Users\Docking\Desktop\test protocol\1iep_ligandH.pdb
REMARK  8 active torsions:
REMARK  status: ('A' for Active; 'I' for Inactive)
REMARK    1  A    between atoms: _5  and  _11
REMARK    2  A    between atoms: _19  and  _21
REMARK    3  A    between atoms: _22  and  _66
REMARK    4  A    between atoms: _27  and  _30
REMARK    5  A    between atoms: _32  and  _33
REMARK    6  A    between atoms: _38  and  _43
REMARK    7  A    between atoms: _43  and  _46
REMARK    8  A    between atoms: _53  and  _55
REMARK                            x       y       z     vdW  Elec       q    Type
REMARK                         _______ _______ _______ _____ _____    ______ ____
ROOT
ATOM     10  C   UNL     1       7.326 -58.354  13.587  0.00  0.00    +0.038 A 
ATOM     11  C   UNL     1       7.550 -59.753  13.669  0.00  0.00    +0.047 A 
ATOM     12  C   UNL     1       6.585 -60.633  14.310  0.00  0.00    +0.035 A 
ATOM     32  C   UNL     1       5.402 -60.055  14.856  0.00  0.00    +0.024 A 
ATOM     33  C   UNL     1       5.159 -58.636  14.783  0.00  0.00    +0.007 A 
ATOM     34  C   UNL     1       6.108 -57.762  14.154  0.00  0.00    -0.029 A 
ATOM     35  C   UNL     1       5.799 -56.248  14.110  0.00  0.00    +0.045 C 
ENDROOT
BRANCH  10   9
ATOM      4  C   UNL     1      11.099 -57.768  10.679  0.00  0.00    +0.077 A 
ATOM      5  C   UNL     1      11.183 -59.175  10.407  0.00  0.00    +0.048 A 
ATOM      6  C   UNL     1      10.241 -60.015  11.042  0.00  0.00    +0.116 A 
ATOM      7  N   UNL     1       9.290 -59.479  11.882  0.00  0.00    -0.223 NA
ATOM      8  C   UNL     1       9.238 -58.118  12.124  0.00  0.00    +0.220 A 
ATOM      9  N   UNL     1       8.285 -57.556  12.960  0.00  0.00    -0.283 N 
ATOM     36  H   UNL     1       8.285 -56.549  13.118  0.00  0.00    +0.155 HD
ATOM     37  N   UNL     1      10.127 -57.294  11.532  0.00  0.00    -0.214 NA
BRANCH   4   3
ATOM      1  C   UNL     1      13.538 -54.742  10.241  0.00  0.00    +0.020 A 
ATOM      2  C   UNL     1      12.655 -55.699  10.866  0.00  0.00    +0.013 A 
ATOM      3  C   UNL     1      12.021 -56.751  10.082  0.00  0.00    +0.019 A 
ATOM     38  C   UNL     1      12.305 -56.808   8.656  0.00  0.00    +0.120 A 
ATOM     39  N   UNL     1      13.159 -55.872   8.080  0.00  0.00    -0.263 NA
ATOM     40  C   UNL     1      13.773 -54.854   8.825  0.00  0.00    +0.111 A 
ENDBRANCH   4   3
ENDBRANCH  10   9
BRANCH  12  13
ATOM     13  N   UNL     1       6.762 -62.059  14.430  0.00  0.00    -0.281 N 
ATOM     14  C   UNL     1       7.646 -62.741  15.250  0.00  0.00    +0.248 C 
ATOM     30  O   UNL     1       8.574 -62.220  15.851  0.00  0.00    -0.270 OA
ATOM     31  H   UNL     1       6.162 -62.635  13.840  0.00  0.00    +0.155 HD
BRANCH  14  15
ATOM     15  C   UNL     1       7.486 -64.218  15.413  0.00  0.00    +0.037 A 
ATOM     16  C   UNL     1       6.192 -64.871  15.196  0.00  0.00    +0.013 A 
ATOM     17  C   UNL     1       6.061 -66.295  15.377  0.00  0.00    +0.005 A 
ATOM     18  C   UNL     1       7.230 -67.077  15.775  0.00  0.00    -0.033 A 
ATOM     28  C   UNL     1       8.502 -66.405  15.978  0.00  0.00    +0.005 A 
ATOM     29  C   UNL     1       8.634 -65.009  15.803  0.00  0.00    +0.013 A 
BRANCH  18  19
ATOM     19  C   UNL     1       7.177 -68.598  16.011  0.00  0.00    +0.119 C 
BRANCH  19  20
ATOM     20  N   UNL     1       5.926 -69.155  16.606  0.00  0.00    -0.302 NA
ATOM     21  C   UNL     1       5.824 -68.864  18.106  0.00  0.00    +0.066 C 
ATOM     22  C   UNL     1       4.499 -69.434  18.708  0.00  0.00    -0.064 C 
ATOM     23  N   UNL     1       4.426 -70.938  18.442  0.00  0.00    +0.379 N 
ATOM     24  C   UNL     1       3.209 -71.487  19.057  0.00  0.00    -0.096 C 
ATOM     25  H   UNL     1       5.302 -71.413  18.943  0.00  0.00    -0.082 HD
ATOM     26  C   UNL     1       4.529 -71.236  16.953  0.00  0.00    -0.064 C 
ATOM     27  C   UNL     1       5.836 -70.640  16.359  0.00  0.00    +0.066 C 
ENDBRANCH  19  20
ENDBRANCH  18  19
ENDBRANCH  14  15
ENDBRANCH  12  13
TORSDOF 6
ENDMDL
MODEL 3
REMARK VINA RESULT:      -8.2     15.739     23.236
REMARK  Name = C:\Users\Docking\Desktop\test protocol\1iep_ligandH.pdb
REMARK  8 active torsions:
REMARK  status: ('A' for Active; 'I' for Inactive)
REMARK    1  A    between atoms: _5  and  _11
REMARK    2  A    between atoms: _19  and  _21
REMARK    3  A    between atoms: _22  and  _66
REMARK    4  A    between atoms: _27  and  _30
REMARK    5  A    between atoms: _32  and  _33
REMARK    6  A    between atoms: _38  and  _43
REMARK    7  A    between atoms: _43  and  _46
REMARK    8  A    between atoms: _53  and  _55
REMARK                            x       y       z     vdW  Elec       q    Type
REMARK                         _______ _______ _______ _____ _____    ______ ____
ROOT
ATOM     10  C   UNL     1       8.984 -18.105  15.087  0.00  0.00    +0.038 A 
ATOM     11  C   UNL     1       8.947 -19.351  14.410  0.00  0.00    +0.047 A 
ATOM     12  C   UNL     1       9.957 -20.369  14.650  0.00  0.00    +0.035 A 
ATOM     32  C   UNL     1      10.991 -20.086  15.591  0.00  0.00    +0.024 A 
ATOM     33  C   UNL     1      11.044 -18.825  16.288  0.00  0.00    +0.007 A 
ATOM     34  C   UNL     1      10.051 -17.816  16.052  0.00  0.00    -0.029 A 
ATOM     35  C   UNL     1      10.162 -16.480  16.823  0.00  0.00    +0.045 C 
ENDROOT
BRANCH  10   9
ATOM      4  C   UNL     1       7.290 -14.300  12.702  0.00  0.00    +0.077 A 
ATOM      5  C   UNL     1       8.503 -14.158  11.949  0.00  0.00    +0.048 A 
ATOM      6  C   UNL     1       9.541 -15.081  12.210  0.00  0.00    +0.116 A 
ATOM      7  N   UNL     1       9.368 -16.067  13.156  0.00  0.00    -0.223 NA
ATOM      8  C   UNL     1       8.186 -16.175  13.867  0.00  0.00    +0.220 A 
ATOM      9  N   UNL     1       7.988 -17.164  14.818  0.00  0.00    -0.283 N 
ATOM     36  H   UNL     1       7.104 -17.205  15.326  0.00  0.00    +0.155 HD
ATOM     37  N   UNL     1       7.181 -15.305  13.637  0.00  0.00    -0.214 NA
BRANCH   4   3
ATOM      1  C   UNL     1       4.979 -11.146  12.596  0.00  0.00    +0.020 A 
ATOM      2  C   UNL     1       6.156 -11.966  12.769  0.00  0.00    +0.013 A 
ATOM      3  C   UNL     1       6.102 -13.404  12.538  0.00  0.00    +0.019 A 
ATOM     38  C   UNL     1       4.832 -13.985  12.128  0.00  0.00    +0.120 A 
ATOM     39  N   UNL     1       3.716 -13.171  11.971  0.00  0.00    -0.263 NA
ATOM     40  C   UNL     1       3.755 -11.786  12.192  0.00  0.00    +0.111 A 
ENDBRANCH   4   3
ENDBRANCH  10   9
BRANCH  12  13
ATOM     13  N   UNL     1       9.976 -21.648  13.986  0.00  0.00    -0.281 N 
ATOM     14  C   UNL     1      10.877 -22.102  13.037  0.00  0.00    +0.248 C 
ATOM     30  O   UNL     1      11.685 -21.393  12.456  0.00  0.00    -0.270 OA
ATOM     31  H   UNL     1       9.235 -22.299  14.247  0.00  0.00    +0.155 HD
BRANCH  14  15
ATOM     15  C   UNL     1      10.872 -23.551  12.671  0.00  0.00    +0.037 A 
ATOM     16  C   UNL     1      12.018 -24.170  12.001  0.00  0.00    +0.013 A 
ATOM     17  C   UNL     1      11.980 -25.566  11.644  0.00  0.00    +0.005 A 
ATOM     18  C   UNL     1      10.789 -26.353  11.956  0.00  0.00    -0.033 A 
ATOM     28  C   UNL     1       9.668 -25.715  12.625  0.00  0.00    +0.005 A 
ATOM     29  C   UNL     1       9.702 -24.347  12.976  0.00  0.00    +0.013 A 
BRANCH  18  19
ATOM     19  C   UNL     1      10.653 -27.843  11.592  0.00  0.00    +0.119 C 
BRANCH  19  20
ATOM     20  N   UNL     1      11.516 -28.810  12.333  0.00  0.00    -0.302 NA
ATOM     21  C   UNL     1      12.226 -28.154  13.521  0.00  0.00    +0.066 C 
ATOM     22  C   UNL     1      13.107 -29.185  14.298  0.00  0.00    -0.064 C 
ATOM     23  N   UNL     1      14.122 -29.810  13.339  0.00  0.00    +0.379 N 
ATOM     24  C   UNL     1      14.990 -30.737  14.079  0.00  0.00    -0.096 C 
ATOM     25  H   UNL     1      14.763 -28.988  12.943  0.00  0.00    -0.082 HD
ATOM     26  C   UNL     1      13.425 -30.462  12.154  0.00  0.00    -0.064 C 
ATOM     27  C   UNL     1      12.529 -29.436  11.406  0.00  0.00    +0.066 C 
ENDBRANCH  19  20
ENDBRANCH  18  19
ENDBRANCH  14  15
ENDBRANCH  12  13
TORSDOF 6
ENDMDL
MODEL 4
REMARK VINA RESULT:      -8.1     19.629     25.311
REMARK  Name = C:\Users\Docking\Desktop\test protocol\1iep_ligandH.pdb
REMARK  8 active torsions:
REMARK  status: ('A' for Active; 'I' for Inactive)
REMARK    1  A    between atoms: _5  and  _11
REMARK    2  A    between atoms: _19  and  _21
REMARK    3  A    between atoms: _22  and  _66
REMARK    4  A    between atoms: _27  and  _30
REMARK    5  A    between atoms: _32  and  _33
REMARK    6  A    between atoms: _38  and  _43
REMARK    7  A    between atoms: _43  and  _46
REMARK    8  A    between atoms: _53  and  _55
REMARK                            x       y       z     vdW  Elec       q    Type
REMARK                         _______ _______ _______ _____ _____    ______ ____
ROOT
ATOM     10  C   UNL     1     -12.845 -23.485  17.166  0.00  0.00    +0.038 A 
ATOM     11  C   UNL     1     -12.126 -24.174  18.175  0.00  0.00    +0.047 A 
ATOM     12  C   UNL     1     -10.673 -24.126  18.231  0.00  0.00    +0.035 A 
ATOM     32  C   UNL     1      -9.985 -23.363  17.243  0.00  0.00    +0.024 A 
ATOM     33  C   UNL     1     -10.700 -22.657  16.209  0.00  0.00    +0.007 A 
ATOM     34  C   UNL     1     -12.133 -22.703  16.148  0.00  0.00    -0.029 A 
ATOM     35  C   UNL     1     -12.847 -21.932  15.013  0.00  0.00    +0.045 C 
ENDROOT
BRANCH  10   9
ATOM      4  C   UNL     1     -17.175 -22.035  18.646  0.00  0.00    +0.077 A 
ATOM      5  C   UNL     1     -16.610 -21.051  19.524  0.00  0.00    +0.048 A 
ATOM      6  C   UNL     1     -15.201 -20.955  19.572  0.00  0.00    +0.116 A 
ATOM      7  N   UNL     1     -14.425 -21.786  18.793  0.00  0.00    -0.223 NA
ATOM      8  C   UNL     1     -15.001 -22.725  17.958  0.00  0.00    +0.220 A 
ATOM      9  N   UNL     1     -14.239 -23.565  17.160  0.00  0.00    -0.283 N 
ATOM     36  H   UNL     1     -14.702 -24.250  16.563  0.00  0.00    +0.155 HD
ATOM     37  N   UNL     1     -16.344 -22.837  17.896  0.00  0.00    -0.214 NA
BRANCH   4   3
ATOM      1  C   UNL     1     -20.648 -23.703  17.972  0.00  0.00    +0.020 A 
ATOM      2  C   UNL     1     -19.219 -23.544  18.116  0.00  0.00    +0.013 A 
ATOM      3  C   UNL     1     -18.647 -22.255  18.483  0.00  0.00    +0.019 A 
ATOM     38  C   UNL     1     -19.554 -21.138  18.700  0.00  0.00    +0.120 A 
ATOM     39  N   UNL     1     -20.926 -21.321  18.553  0.00  0.00    -0.263 NA
ATOM     40  C   UNL     1     -21.488 -22.557  18.198  0.00  0.00    +0.111 A 
ENDBRANCH   4   3
ENDBRANCH  10   9
BRANCH  12  13
ATOM     13  N   UNL     1      -9.889 -24.812  19.227  0.00  0.00    -0.281 N 
ATOM     14  C   UNL     1     -10.342 -25.561  20.301  0.00  0.00    +0.248 C 
ATOM     30  O   UNL     1     -11.500 -25.577  20.692  0.00  0.00    -0.270 OA
ATOM     31  H   UNL     1      -8.876 -24.736  19.129  0.00  0.00    +0.155 HD
BRANCH  14  15
ATOM     15  C   UNL     1      -9.366 -26.401  21.058  0.00  0.00    +0.037 A 
ATOM     16  C   UNL     1      -9.814 -27.358  22.073  0.00  0.00    +0.013 A 
ATOM     17  C   UNL     1      -8.851 -28.145  22.802  0.00  0.00    +0.005 A 
ATOM     18  C   UNL     1      -7.428 -27.978  22.516  0.00  0.00    -0.033 A 
ATOM     28  C   UNL     1      -7.011 -27.026  21.500  0.00  0.00    +0.005 A 
ATOM     29  C   UNL     1      -7.953 -26.252  20.785  0.00  0.00    +0.013 A 
BRANCH  18  19
ATOM     19  C   UNL     1      -6.328 -28.760  23.259  0.00  0.00    +0.119 C 
BRANCH  19  20
ATOM     20  N   UNL     1      -4.911 -28.379  22.980  0.00  0.00    -0.302 NA
ATOM     21  C   UNL     1      -3.998 -29.604  22.872  0.00  0.00    +0.066 C 
ATOM     22  C   UNL     1      -2.524 -29.188  22.558  0.00  0.00    -0.064 C 
ATOM     23  N   UNL     1      -2.024 -28.234  23.644  0.00  0.00    +0.379 N 
ATOM     24  C   UNL     1      -0.619 -27.887  23.383  0.00  0.00    -0.096 C 
ATOM     25  H   UNL     1      -2.063 -28.778  24.616  0.00  0.00    -0.082 HD
ATOM     26  C   UNL     1      -2.928 -27.015  23.761  0.00  0.00    -0.064 C 
ATOM     27  C   UNL     1      -4.396 -27.440  24.043  0.00  0.00    +0.066 C 
ENDBRANCH  19  20
ENDBRANCH  18  19
ENDBRANCH  14  15
ENDBRANCH  12  13
TORSDOF 6
ENDMDL
MODEL 5
REMARK VINA RESULT:      -8.0     36.570     40.964
REMARK  Name = C:\Users\Docking\Desktop\test protocol\1iep_ligandH.pdb
REMARK  8 active torsions:
REMARK  status: ('A' for Active; 'I' for Inactive)
REMARK    1  A    between atoms: _5  and  _11
REMARK    2  A    between atoms: _19  and  _21
REMARK    3  A    between atoms: _22  and  _66
REMARK    4  A    between atoms: _27  and  _30
REMARK    5  A    between atoms: _32  and  _33
REMARK    6  A    between atoms: _38  and  _43
REMARK    7  A    between atoms: _43  and  _46
REMARK    8  A    between atoms: _53  and  _55
REMARK                            x       y       z     vdW  Elec       q    Type
REMARK                         _______ _______ _______ _____ _____    ______ ____
ROOT
ATOM     10  C   UNL     1      -0.327 -49.248  23.301  0.00  0.00    +0.038 A 
ATOM     11  C   UNL     1      -0.238 -48.765  21.970  0.00  0.00    +0.047 A 
ATOM     12  C   UNL     1      -1.168 -47.766  21.468  0.00  0.00    +0.035 A 
ATOM     32  C   UNL     1      -2.177 -47.279  22.349  0.00  0.00    +0.024 A 
ATOM     33  C   UNL     1      -2.283 -47.759  23.704  0.00  0.00    +0.007 A 
ATOM     34  C   UNL     1      -1.370 -48.747  24.205  0.00  0.00    -0.029 A 
ATOM     35  C   UNL     1      -1.535 -49.230  25.664  0.00  0.00    +0.045 C 
ENDROOT
BRANCH  10   9
ATOM      4  C   UNL     1       1.030 -53.799  23.992  0.00  0.00    +0.077 A 
ATOM      5  C   UNL     1      -0.209 -54.309  23.479  0.00  0.00    +0.048 A 
ATOM      6  C   UNL     1      -1.172 -53.366  23.054  0.00  0.00    +0.116 A 
ATOM      7  N   UNL     1      -0.905 -52.017  23.140  0.00  0.00    -0.223 NA
ATOM      8  C   UNL     1       0.300 -51.559  23.642  0.00  0.00    +0.220 A 
ATOM      9  N   UNL     1       0.592 -50.207  23.730  0.00  0.00    -0.283 N 
ATOM     36  H   UNL     1       1.489 -49.909  24.113  0.00  0.00    +0.155 HD
ATOM     37  N   UNL     1       1.235 -52.439  24.056  0.00  0.00    -0.214 NA
BRANCH   4   3
ATOM      1  C   UNL     1       4.539 -55.470  24.432  0.00  0.00    +0.020 A 
ATOM      2  C   UNL     1       3.496 -54.608  23.927  0.00  0.00    +0.013 A 
ATOM      3  C   UNL     1       2.148 -54.669  24.478  0.00  0.00    +0.019 A 
ATOM     38  C   UNL     1       1.887 -55.621  25.547  0.00  0.00    +0.120 A 
ATOM     39  N   UNL     1       2.911 -56.440  26.012  0.00  0.00    -0.263 NA
ATOM     40  C   UNL     1       4.212 -56.391  25.489  0.00  0.00    +0.111 A 
ENDBRANCH   4   3
ENDBRANCH  10   9
BRANCH  12  13
ATOM     13  N   UNL     1      -1.131 -47.244  20.124  0.00  0.00    -0.281 N 
ATOM     14  C   UNL     1      -1.370 -47.922  18.940  0.00  0.00    +0.248 C 
ATOM     30  O   UNL     1      -1.443 -49.138  18.843  0.00  0.00    -0.270 OA
ATOM     31  H   UNL     1      -0.901 -46.254  20.035  0.00  0.00    +0.155 HD
BRANCH  14  15
ATOM     15  C   UNL     1      -1.537 -47.137  17.679  0.00  0.00    +0.037 A 
ATOM     16  C   UNL     1      -1.605 -45.674  17.699  0.00  0.00    +0.013 A 
ATOM     17  C   UNL     1      -1.784 -44.942  16.470  0.00  0.00    +0.005 A 
ATOM     18  C   UNL     1      -1.895 -45.674  15.210  0.00  0.00    -0.033 A 
ATOM     28  C   UNL     1      -1.820 -47.125  15.219  0.00  0.00    +0.005 A 
ATOM     29  C   UNL     1      -1.645 -47.846  16.422  0.00  0.00    +0.013 A 
BRANCH  18  19
ATOM     19  C   UNL     1      -2.109 -44.976  13.854  0.00  0.00    +0.119 C 
BRANCH  19  20
ATOM     20  N   UNL     1      -3.040 -43.808  13.825  0.00  0.00    -0.302 NA
ATOM     21  C   UNL     1      -4.435 -44.198  13.329  0.00  0.00    +0.066 C 
ATOM     22  C   UNL     1      -5.402 -42.970  13.327  0.00  0.00    -0.064 C 
ATOM     23  N   UNL     1      -4.809 -41.859  12.457  0.00  0.00    +0.379 N 
ATOM     24  C   UNL     1      -5.743 -40.725  12.406  0.00  0.00    -0.096 C 
ATOM     25  H   UNL     1      -4.706 -42.260  11.422  0.00  0.00    -0.082 HD
ATOM     26  C   UNL     1      -3.420 -41.467  12.941  0.00  0.00    -0.064 C 
ATOM     27  C   UNL     1      -2.476 -42.701  12.968  0.00  0.00    +0.066 C 
ENDBRANCH  19  20
ENDBRANCH  18  19
ENDBRANCH  14  15
ENDBRANCH  12  13
TORSDOF 6
ENDMDL
