MODEL 1
REMARK VINA RESULT:      -7.4      0.000      0.000
REMARK  Name = C:\Users\Docking\Desktop\test protocol\1iep_ligandH.pdb
REMARK  8 active torsions:
REMARK  status: ('A' for Active; 'I' for Inactive)
REMARK    1  A    between atoms: _5  and  _11
REMARK    2  A    between atoms: _19  and  _21
REMARK    3  A    between atoms: _22  and  _66
REMARK    4  A    between atoms: _27  and  _30
REMARK    5  A    between atoms: _32  and  _33
REMARK    6  A    between atoms: _38  and  _43
REMARK    7  A    between atoms: _43  and  _46
REMARK    8  A    between atoms: _53  and  _55
REMARK                            x       y       z     vdW  Elec       q    Type
REMARK                         _______ _______ _______ _____ _____    ______ ____
ROOT
ATOM     10  C   UNL     1      19.768   4.602   2.721  0.00  0.00    +0.038 A 
ATOM     11  C   UNL     1      18.917   4.010   3.690  0.00  0.00    +0.047 A 
ATOM     12  C   UNL     1      17.512   4.376   3.781  0.00  0.00    +0.035 A 
ATOM     32  C   UNL     1      17.006   5.346   2.868  0.00  0.00    +0.024 A 
ATOM     33  C   UNL     1      17.857   5.958   1.877  0.00  0.00    +0.007 A 
ATOM     34  C   UNL     1      19.244   5.603   1.784  0.00  0.00    -0.029 A 
ATOM     35  C   UNL     1      20.111   6.296   0.707  0.00  0.00    +0.045 C 
ENDROOT
BRANCH  10   9
ATOM      4  C   UNL     1      23.252   1.548   1.468  0.00  0.00    +0.077 A 
ATOM      5  C   UNL     1      22.319   0.635   0.872  0.00  0.00    +0.048 A 
ATOM      6  C   UNL     1      20.951   0.986   0.915  0.00  0.00    +0.116 A 
ATOM      7  N   UNL     1      20.557   2.163   1.512  0.00  0.00    -0.223 NA
ATOM      8  C   UNL     1      21.482   3.020   2.079  0.00  0.00    +0.220 A 
ATOM      9  N   UNL     1      21.109   4.213   2.678  0.00  0.00    -0.283 N 
ATOM     36  H   UNL     1      21.821   4.815   3.092  0.00  0.00    +0.155 HD
ATOM     37  N   UNL     1      22.794   2.707   2.052  0.00  0.00    -0.214 NA
BRANCH   4   3
ATOM      1  C   UNL     1      27.021   1.632   2.510  0.00  0.00    +0.020 A 
ATOM      2  C   UNL     1      25.599   1.883   2.525  0.00  0.00    +0.013 A 
ATOM      3  C   UNL     1      24.731   1.319   1.499  0.00  0.00    +0.019 A 
ATOM     38  C   UNL     1      25.340   0.497   0.464  0.00  0.00    +0.120 A 
ATOM     39  N   UNL     1      26.713   0.273   0.473  0.00  0.00    -0.263 NA
ATOM     40  C   UNL     1      27.558   0.813   1.455  0.00  0.00    +0.111 A 
ENDBRANCH   4   3
ENDBRANCH  10   9
BRANCH  12  13
ATOM     13  N   UNL     1      16.603   3.815   4.749  0.00  0.00    -0.281 N 
ATOM     14  C   UNL     1      15.918   4.475   5.756  0.00  0.00    +0.248 C 
ATOM     30  O   UNL     1      16.150   5.620   6.114  0.00  0.00    -0.270 OA
ATOM     31  H   UNL     1      16.444   2.810   4.684  0.00  0.00    +0.155 HD
BRANCH  14  15
ATOM     15  C   UNL     1      14.827   3.754   6.480  0.00  0.00    +0.037 A 
ATOM     16  C   UNL     1      14.392   4.176   7.814  0.00  0.00    +0.013 A 
ATOM     17  C   UNL     1      13.349   3.452   8.498  0.00  0.00    +0.005 A 
ATOM     18  C   UNL     1      12.734   2.299   7.847  0.00  0.00    -0.033 A 
ATOM     28  C   UNL     1      13.181   1.904   6.521  0.00  0.00    +0.005 A 
ATOM     29  C   UNL     1      14.203   2.611   5.849  0.00  0.00    +0.013 A 
BRANCH  18  19
ATOM     19  C   UNL     1      11.629   1.455   8.510  0.00  0.00    +0.119 C 
BRANCH  19  20
ATOM     20  N   UNL     1      11.096   0.295   7.735  0.00  0.00    -0.302 NA
ATOM     21  C   UNL     1       9.565   0.277   7.707  0.00  0.00    +0.066 C 
ATOM     22  C   UNL     1       9.025  -0.930   6.874  0.00  0.00    -0.064 C 
ATOM     23  N   UNL     1       9.571  -2.234   7.457  0.00  0.00    +0.379 N 
ATOM     24  C   UNL     1       9.019  -3.375   6.712  0.00  0.00    -0.096 C 
ATOM     25  H   UNL     1       9.210  -2.311   8.509  0.00  0.00    -0.082 HD
ATOM     26  C   UNL     1      11.093  -2.224   7.492  0.00  0.00    -0.064 C 
ATOM     27  C   UNL     1      11.620  -1.004   8.298  0.00  0.00    +0.066 C 
ENDBRANCH  19  20
ENDBRANCH  18  19
ENDBRANCH  14  15
ENDBRANCH  12  13
TORSDOF 6
ENDMDL
MODEL 2
REMARK VINA RESULT:      -7.3      5.651      7.869
REMARK  Name = C:\Users\Docking\Desktop\test protocol\1iep_ligandH.pdb
REMARK  8 active torsions:
REMARK  status: ('A' for Active; 'I' for Inactive)
REMARK    1  A    between atoms: _5  and  _11
REMARK    2  A    between atoms: _19  and  _21
REMARK    3  A    between atoms: _22  and  _66
REMARK    4  A    between atoms: _27  and  _30
REMARK    5  A    between atoms: _32  and  _33
REMARK    6  A    between atoms: _38  and  _43
REMARK    7  A    between atoms: _43  and  _46
REMARK    8  A    between atoms: _53  and  _55
REMARK                            x       y       z     vdW  Elec       q    Type
REMARK                         _______ _______ _______ _____ _____    ______ ____
ROOT
ATOM     10  C   UNL     1      20.039   2.882   2.248  0.00  0.00    +0.038 A 
ATOM     11  C   UNL     1      19.941   3.640   3.443  0.00  0.00    +0.047 A 
ATOM     12  C   UNL     1      18.829   4.551   3.667  0.00  0.00    +0.035 A 
ATOM     32  C   UNL     1      17.833   4.663   2.653  0.00  0.00    +0.024 A 
ATOM     33  C   UNL     1      17.918   3.900   1.433  0.00  0.00    +0.007 A 
ATOM     34  C   UNL     1      19.014   3.002   1.205  0.00  0.00    -0.029 A 
ATOM     35  C   UNL     1      19.057   2.215  -0.125  0.00  0.00    +0.045 C 
ENDROOT
BRANCH  10   9
ATOM      4  C   UNL     1      24.370   1.827   0.467  0.00  0.00    +0.077 A 
ATOM      5  C   UNL     1      24.458   3.084  -0.220  0.00  0.00    +0.048 A 
ATOM      6  C   UNL     1      23.365   3.970  -0.095  0.00  0.00    +0.116 A 
ATOM      7  N   UNL     1      22.270   3.616   0.663  0.00  0.00    -0.223 NA
ATOM      8  C   UNL     1      22.216   2.396   1.311  0.00  0.00    +0.220 A 
ATOM      9  N   UNL     1      21.128   2.023   2.086  0.00  0.00    -0.283 N 
ATOM     36  H   UNL     1      21.123   1.111   2.542  0.00  0.00    +0.155 HD
ATOM     37  N   UNL     1      23.246   1.531   1.207  0.00  0.00    -0.214 NA
BRANCH   4   3
ATOM      1  C   UNL     1      27.793  -0.018   0.886  0.00  0.00    +0.020 A 
ATOM      2  C   UNL     1      26.791   1.022   0.941  0.00  0.00    +0.013 A 
ATOM      3  C   UNL     1      25.445   0.786   0.434  0.00  0.00    +0.019 A 
ATOM     38  C   UNL     1      25.142  -0.523  -0.125  0.00  0.00    +0.120 A 
ATOM     39  N   UNL     1      26.128  -1.504  -0.165  0.00  0.00    -0.263 NA
ATOM     40  C   UNL     1      27.427  -1.288   0.317  0.00  0.00    +0.111 A 
ENDBRANCH   4   3
ENDBRANCH  10   9
BRANCH  12  13
ATOM     13  N   UNL     1      18.680   5.352   4.856  0.00  0.00    -0.281 N 
ATOM     14  C   UNL     1      18.667   6.734   4.956  0.00  0.00    +0.248 C 
ATOM     30  O   UNL     1      18.996   7.495   4.058  0.00  0.00    -0.270 OA
ATOM     31  H   UNL     1      18.572   4.839   5.731  0.00  0.00    +0.155 HD
BRANCH  14  15
ATOM     15  C   UNL     1      18.239   7.361   6.244  0.00  0.00    +0.037 A 
ATOM     16  C   UNL     1      19.220   7.896   7.191  0.00  0.00    +0.013 A 
ATOM     17  C   UNL     1      18.782   8.480   8.434  0.00  0.00    +0.005 A 
ATOM     18  C   UNL     1      17.353   8.533   8.735  0.00  0.00    -0.033 A 
ATOM     28  C   UNL     1      16.401   8.000   7.775  0.00  0.00    +0.005 A 
ATOM     29  C   UNL     1      16.827   7.426   6.557  0.00  0.00    +0.013 A 
BRANCH  18  19
ATOM     19  C   UNL     1      16.797   9.119  10.046  0.00  0.00    +0.119 C 
BRANCH  19  20
ATOM     20  N   UNL     1      17.678  10.057  10.804  0.00  0.00    -0.302 NA
ATOM     21  C   UNL     1      17.458   9.956  12.316  0.00  0.00    +0.066 C 
ATOM     22  C   UNL     1      18.404  10.927  13.095  0.00  0.00    -0.064 C 
ATOM     23  N   UNL     1      18.172  12.359  12.609  0.00  0.00    +0.379 N 
ATOM     24  C   UNL     1      19.018  13.282  13.380  0.00  0.00    -0.096 C 
ATOM     25  H   UNL     1      17.108  12.619  12.820  0.00  0.00    -0.082 HD
ATOM     26  C   UNL     1      18.385  12.468  11.106  0.00  0.00    -0.064 C 
ATOM     27  C   UNL     1      17.462  11.478  10.343  0.00  0.00    +0.066 C 
ENDBRANCH  19  20
ENDBRANCH  18  19
ENDBRANCH  14  15
ENDBRANCH  12  13
TORSDOF 6
ENDMDL
MODEL 3
REMARK VINA RESULT:      -7.2     14.350     16.745
REMARK  Name = C:\Users\Docking\Desktop\test protocol\1iep_ligandH.pdb
REMARK  8 active torsions:
REMARK  status: ('A' for Active; 'I' for Inactive)
REMARK    1  A    between atoms: _5  and  _11
REMARK    2  A    between atoms: _19  and  _21
REMARK    3  A    between atoms: _22  and  _66
REMARK    4  A    between atoms: _27  and  _30
REMARK    5  A    between atoms: _32  and  _33
REMARK    6  A    between atoms: _38  and  _43
REMARK    7  A    between atoms: _43  and  _46
REMARK    8  A    between atoms: _53  and  _55
REMARK                            x       y       z     vdW  Elec       q    Type
REMARK                         _______ _______ _______ _____ _____    ______ ____
ROOT
ATOM     10  C   UNL     1      24.823 -14.220   7.276  0.00  0.00    +0.038 A 
ATOM     11  C   UNL     1      23.819 -13.377   6.734  0.00  0.00    +0.047 A 
ATOM     12  C   UNL     1      22.535 -13.913   6.310  0.00  0.00    +0.035 A 
ATOM     32  C   UNL     1      22.306 -15.312   6.455  0.00  0.00    +0.024 A 
ATOM     33  C   UNL     1      23.316 -16.184   7.002  0.00  0.00    +0.007 A 
ATOM     34  C   UNL     1      24.585 -15.661   7.420  0.00  0.00    -0.029 A 
ATOM     35  C   UNL     1      25.633 -16.643   7.994  0.00  0.00    +0.045 C 
ENDROOT
BRANCH  10   9
ATOM      4  C   UNL     1      27.653 -12.095  10.518  0.00  0.00    +0.077 A 
ATOM      5  C   UNL     1      26.616 -12.092  11.509  0.00  0.00    +0.048 A 
ATOM      6  C   UNL     1      25.366 -12.640  11.142  0.00  0.00    +0.116 A 
ATOM      7  N   UNL     1      25.179 -13.150   9.875  0.00  0.00    -0.223 NA
ATOM      8  C   UNL     1      26.201 -13.136   8.943  0.00  0.00    +0.220 A 
ATOM      9  N   UNL     1      26.038 -13.652   7.667  0.00  0.00    -0.283 N 
ATOM     36  H   UNL     1      26.813 -13.616   7.006  0.00  0.00    +0.155 HD
ATOM     37  N   UNL     1      27.403 -12.617   9.269  0.00  0.00    -0.214 NA
BRANCH   4   3
ATOM      1  C   UNL     1      30.993 -11.015  12.244  0.00  0.00    +0.020 A 
ATOM      2  C   UNL     1      29.662 -11.549  12.069  0.00  0.00    +0.013 A 
ATOM      3  C   UNL     1      29.029 -11.554  10.756  0.00  0.00    +0.019 A 
ATOM     38  C   UNL     1      29.776 -11.009   9.632  0.00  0.00    +0.120 A 
ATOM     39  N   UNL     1      31.055 -10.500   9.832  0.00  0.00    -0.263 NA
ATOM     40  C   UNL     1      31.674 -10.488  11.091  0.00  0.00    +0.111 A 
ENDBRANCH   4   3
ENDBRANCH  10   9
BRANCH  12  13
ATOM     13  N   UNL     1      21.481 -13.107   5.746  0.00  0.00    -0.281 N 
ATOM     14  C   UNL     1      21.312 -12.730   4.424  0.00  0.00    +0.248 C 
ATOM     30  O   UNL     1      22.164 -12.851   3.556  0.00  0.00    -0.270 OA
ATOM     31  H   UNL     1      20.772 -12.775   6.401  0.00  0.00    +0.155 HD
BRANCH  14  15
ATOM     15  C   UNL     1      20.014 -12.116   4.008  0.00  0.00    +0.037 A 
ATOM     16  C   UNL     1      18.763 -12.447   4.694  0.00  0.00    +0.013 A 
ATOM     17  C   UNL     1      17.522 -11.853   4.262  0.00  0.00    +0.005 A 
ATOM     18  C   UNL     1      17.528 -10.920   3.137  0.00  0.00    -0.033 A 
ATOM     28  C   UNL     1      18.785 -10.605   2.479  0.00  0.00    +0.005 A 
ATOM     29  C   UNL     1      20.002 -11.186   2.899  0.00  0.00    +0.013 A 
BRANCH  18  19
ATOM     19  C   UNL     1      16.249 -10.256   2.595  0.00  0.00    +0.119 C 
BRANCH  19  20
ATOM     20  N   UNL     1      15.914  -8.895   3.111  0.00  0.00    -0.302 NA
ATOM     21  C   UNL     1      16.630  -7.791   2.327  0.00  0.00    +0.066 C 
ATOM     22  C   UNL     1      16.251  -6.373   2.866  0.00  0.00    -0.064 C 
ATOM     23  N   UNL     1      16.591  -6.288   4.355  0.00  0.00    +0.379 N 
ATOM     24  C   UNL     1      16.289  -4.937   4.850  0.00  0.00    -0.096 C 
ATOM     25  H   UNL     1      17.689  -6.450   4.460  0.00  0.00    -0.082 HD
ATOM     26  C   UNL     1      15.885  -7.384   5.141  0.00  0.00    -0.064 C 
ATOM     27  C   UNL     1      16.246  -8.787   4.579  0.00  0.00    +0.066 C 
ENDBRANCH  19  20
ENDBRANCH  18  19
ENDBRANCH  14  15
ENDBRANCH  12  13
TORSDOF 6
ENDMDL
MODEL 4
REMARK VINA RESULT:      -7.2     12.331     14.232
REMARK  Name = C:\Users\Docking\Desktop\test protocol\1iep_ligandH.pdb
REMARK  8 active torsions:
REMARK  status: ('A' for Active; 'I' for Inactive)
REMARK    1  A    between atoms: _5  and  _11
REMARK    2  A    between atoms: _19  and  _21
REMARK    3  A    between atoms: _22  and  _66
REMARK    4  A    between atoms: _27  and  _30
REMARK    5  A    between atoms: _32  and  _33
REMARK    6  A    between atoms: _38  and  _43
REMARK    7  A    between atoms: _43  and  _46
REMARK    8  A    between atoms: _53  and  _55
REMARK                            x       y       z     vdW  Elec       q    Type
REMARK                         _______ _______ _______ _____ _____    ______ ____
ROOT
ATOM     10  C   UNL     1      20.045  15.214  13.275  0.00  0.00    +0.038 A 
ATOM     11  C   UNL     1      19.379  13.985  13.036  0.00  0.00    +0.047 A 
ATOM     12  C   UNL     1      17.931  13.881  13.139  0.00  0.00    +0.035 A 
ATOM     32  C   UNL     1      17.193  15.050  13.487  0.00  0.00    +0.024 A 
ATOM     33  C   UNL     1      17.854  16.307  13.734  0.00  0.00    +0.007 A 
ATOM     34  C   UNL     1      19.282  16.415  13.636  0.00  0.00    -0.029 A 
ATOM     35  C   UNL     1      19.938  17.787  13.918  0.00  0.00    +0.045 C 
ENDROOT
BRANCH  10   9
ATOM      4  C   UNL     1      24.453  15.079  15.169  0.00  0.00    +0.077 A 
ATOM      5  C   UNL     1      23.940  14.938  16.502  0.00  0.00    +0.048 A 
ATOM      6  C   UNL     1      22.536  14.912  16.657  0.00  0.00    +0.116 A 
ATOM      7  N   UNL     1      21.715  15.019  15.555  0.00  0.00    -0.223 NA
ATOM      8  C   UNL     1      22.242  15.156  14.284  0.00  0.00    +0.220 A 
ATOM      9  N   UNL     1      21.436  15.257  13.161  0.00  0.00    -0.283 N 
ATOM     36  H   UNL     1      21.864  15.364  12.241  0.00  0.00    +0.155 HD
ATOM     37  N   UNL     1      23.580  15.185  14.109  0.00  0.00    -0.214 NA
BRANCH   4   3
ATOM      1  C   UNL     1      28.343  14.751  15.411  0.00  0.00    +0.020 A 
ATOM      2  C   UNL     1      26.947  14.691  15.776  0.00  0.00    +0.013 A 
ATOM      3  C   UNL     1      25.913  15.121  14.842  0.00  0.00    +0.019 A 
ATOM     38  C   UNL     1      26.330  15.609  13.536  0.00  0.00    +0.120 A 
ATOM     39  N   UNL     1      27.682  15.656  13.213  0.00  0.00    -0.263 NA
ATOM     40  C   UNL     1      28.686  15.247  14.104  0.00  0.00    +0.111 A 
ENDBRANCH   4   3
ENDBRANCH  10   9
BRANCH  12  13
ATOM     13  N   UNL     1      17.201  12.658  12.916  0.00  0.00    -0.281 N 
ATOM     14  C   UNL     1      16.513  12.273  11.777  0.00  0.00    +0.248 C 
ATOM     30  O   UNL     1      16.241  13.020  10.848  0.00  0.00    -0.270 OA
ATOM     31  H   UNL     1      17.189  11.996  13.692  0.00  0.00    +0.155 HD
BRANCH  14  15
ATOM     15  C   UNL     1      16.047  10.858  11.658  0.00  0.00    +0.037 A 
ATOM     16  C   UNL     1      16.952   9.794  11.218  0.00  0.00    +0.013 A 
ATOM     17  C   UNL     1      16.472   8.440  11.096  0.00  0.00    +0.005 A 
ATOM     18  C   UNL     1      15.078   8.143  11.417  0.00  0.00    -0.033 A 
ATOM     28  C   UNL     1      14.203   9.217  11.856  0.00  0.00    +0.005 A 
ATOM     29  C   UNL     1      14.670  10.545  11.976  0.00  0.00    +0.013 A 
BRANCH  18  19
ATOM     19  C   UNL     1      14.475   6.731  11.295  0.00  0.00    +0.119 C 
BRANCH  19  20
ATOM     20  N   UNL     1      13.493   6.500  10.194  0.00  0.00    -0.302 NA
ATOM     21  C   UNL     1      13.052   5.036  10.115  0.00  0.00    +0.066 C 
ATOM     22  C   UNL     1      12.008   4.816   8.973  0.00  0.00    -0.064 C 
ATOM     23  N   UNL     1      12.608   5.274   7.642  0.00  0.00    +0.379 N 
ATOM     24  C   UNL     1      11.650   5.015   6.557  0.00  0.00    -0.096 C 
ATOM     25  H   UNL     1      13.514   4.654   7.449  0.00  0.00    -0.082 HD
ATOM     26  C   UNL     1      13.051   6.729   7.713  0.00  0.00    -0.064 C 
ATOM     27  C   UNL     1      14.066   6.941   8.870  0.00  0.00    +0.066 C 
ENDBRANCH  19  20
ENDBRANCH  18  19
ENDBRANCH  14  15
ENDBRANCH  12  13
TORSDOF 6
ENDMDL
MODEL 5
REMARK VINA RESULT:      -7.2      5.766      7.460
REMARK  Name = C:\Users\Docking\Desktop\test protocol\1iep_ligandH.pdb
REMARK  8 active torsions:
REMARK  status: ('A' for Active; 'I' for Inactive)
REMARK    1  A    between atoms: _5  and  _11
REMARK    2  A    between atoms: _19  and  _21
REMARK    3  A    between atoms: _22  and  _66
REMARK    4  A    between atoms: _27  and  _30
REMARK    5  A    between atoms: _32  and  _33
REMARK    6  A    between atoms: _38  and  _43
REMARK    7  A    between atoms: _43  and  _46
REMARK    8  A    between atoms: _53  and  _55
REMARK                            x       y       z     vdW  Elec       q    Type
REMARK                         _______ _______ _______ _____ _____    ______ ____
ROOT
ATOM     10  C   UNL     1      19.905   3.227   2.452  0.00  0.00    +0.038 A 
ATOM     11  C   UNL     1      19.899   3.941   3.677  0.00  0.00    +0.047 A 
ATOM     12  C   UNL     1      18.860   4.914   3.976  0.00  0.00    +0.035 A 
ATOM     32  C   UNL     1      17.840   5.132   3.004  0.00  0.00    +0.024 A 
ATOM     33  C   UNL     1      17.831   4.416   1.753  0.00  0.00    +0.007 A 
ATOM     34  C   UNL     1      18.856   3.457   1.452  0.00  0.00    -0.029 A 
ATOM     35  C   UNL     1      18.800   2.723   0.092  0.00  0.00    +0.045 C 
ENDROOT
BRANCH  10   9
ATOM      4  C   UNL     1      24.080   1.951   0.456  0.00  0.00    +0.077 A 
ATOM      5  C   UNL     1      24.223   3.220  -0.197  0.00  0.00    +0.048 A 
ATOM      6  C   UNL     1      23.197   4.171   0.001  0.00  0.00    +0.116 A 
ATOM      7  N   UNL     1      22.113   3.865   0.795  0.00  0.00    -0.223 NA
ATOM      8  C   UNL     1      22.005   2.631   1.408  0.00  0.00    +0.220 A 
ATOM      9  N   UNL     1      20.927   2.304   2.217  0.00  0.00    -0.283 N 
ATOM     36  H   UNL     1      20.881   1.380   2.646  0.00  0.00    +0.155 HD
ATOM     37  N   UNL     1      22.970   1.704   1.234  0.00  0.00    -0.214 NA
BRANCH   4   3
ATOM      1  C   UNL     1      25.776  -1.484  -0.336  0.00  0.00    +0.020 A 
ATOM      2  C   UNL     1      24.772  -0.448  -0.254  0.00  0.00    +0.013 A 
ATOM      3  C   UNL     1      25.081   0.843   0.346  0.00  0.00    +0.019 A 
ATOM     38  C   UNL     1      26.427   1.056   0.858  0.00  0.00    +0.120 A 
ATOM     39  N   UNL     1      27.372   0.040   0.767  0.00  0.00    -0.263 NA
ATOM     40  C   UNL     1      27.086  -1.207   0.193  0.00  0.00    +0.111 A 
ENDBRANCH   4   3
ENDBRANCH  10   9
BRANCH  12  13
ATOM     13  N   UNL     1      18.806   5.675   5.199  0.00  0.00    -0.281 N 
ATOM     14  C   UNL     1      18.680   7.047   5.344  0.00  0.00    +0.248 C 
ATOM     30  O   UNL     1      18.811   7.852   4.434  0.00  0.00    -0.270 OA
ATOM     31  H   UNL     1      18.868   5.137   6.064  0.00  0.00    +0.155 HD
BRANCH  14  15
ATOM     15  C   UNL     1      18.381   7.606   6.697  0.00  0.00    +0.037 A 
ATOM     16  C   UNL     1      17.003   7.827   7.140  0.00  0.00    +0.013 A 
ATOM     17  C   UNL     1      16.742   8.384   8.445  0.00  0.00    +0.005 A 
ATOM     18  C   UNL     1      17.865   8.721   9.316  0.00  0.00    -0.033 A 
ATOM     28  C   UNL     1      19.223   8.486   8.853  0.00  0.00    +0.005 A 
ATOM     29  C   UNL     1      19.482   7.942   7.576  0.00  0.00    +0.013 A 
BRANCH  18  19
ATOM     19  C   UNL     1      17.682   9.338  10.715  0.00  0.00    +0.119 C 
BRANCH  19  20
ATOM     20  N   UNL     1      16.541  10.284  10.901  0.00  0.00    -0.302 NA
ATOM     21  C   UNL     1      17.001  11.638  11.449  0.00  0.00    +0.066 C 
ATOM     22  C   UNL     1      15.798  12.623  11.616  0.00  0.00    -0.064 C 
ATOM     23  N   UNL     1      14.752  11.993  12.537  0.00  0.00    +0.379 N 
ATOM     24  C   UNL     1      13.646  12.940  12.742  0.00  0.00    -0.096 C 
ATOM     25  H   UNL     1      15.234  11.817  13.526  0.00  0.00    -0.082 HD
ATOM     26  C   UNL     1      14.291  10.645  12.001  0.00  0.00    -0.064 C 
ATOM     27  C   UNL     1      15.497   9.684  11.811  0.00  0.00    +0.066 C 
ENDBRANCH  19  20
ENDBRANCH  18  19
ENDBRANCH  14  15
ENDBRANCH  12  13
TORSDOF 6
ENDMDL
