MODEL 1
REMARK VINA RESULT:     -11.8      0.000      0.000
REMARK  Name = C:\Users\Docking\Desktop\test protocol\1iep_ligandH.pdb
REMARK  8 active torsions:
REMARK  status: ('A' for Active; 'I' for Inactive)
REMARK    1  A    between atoms: _5  and  _11
REMARK    2  A    between atoms: _19  and  _21
REMARK    3  A    between atoms: _22  and  _66
REMARK    4  A    between atoms: _27  and  _30
REMARK    5  A    between atoms: _32  and  _33
REMARK    6  A    between atoms: _38  and  _43
REMARK    7  A    between atoms: _43  and  _46
REMARK    8  A    between atoms: _53  and  _55
REMARK                            x       y       z     vdW  Elec       q    Type
REMARK                         _______ _______ _______ _____ _____    ______ ____
ROOT
ATOM     10  C   UNL     1       5.380  -2.464   8.381  0.00  0.00    +0.038 A 
ATOM     11  C   UNL     1       5.856  -2.022   7.120  0.00  0.00    +0.047 A 
ATOM     12  C   UNL     1       6.120  -0.614   6.868  0.00  0.00    +0.035 A 
ATOM     32  C   UNL     1       5.892   0.316   7.923  0.00  0.00    +0.024 A 
ATOM     33  C   UNL     1       5.408  -0.116   9.210  0.00  0.00    +0.007 A 
ATOM     34  C   UNL     1       5.143  -1.503   9.465  0.00  0.00    -0.029 A 
ATOM     35  C   UNL     1       4.618  -1.909  10.862  0.00  0.00    +0.045 C 
ENDROOT
BRANCH  10   9
ATOM      4  C   UNL     1       2.593  -6.359   8.062  0.00  0.00    +0.077 A 
ATOM      5  C   UNL     1       1.508  -5.609   7.499  0.00  0.00    +0.048 A 
ATOM      6  C   UNL     1       1.705  -4.222   7.314  0.00  0.00    +0.116 A 
ATOM      7  N   UNL     1       2.902  -3.639   7.669  0.00  0.00    -0.223 NA
ATOM      8  C   UNL     1       3.928  -4.391   8.212  0.00  0.00    +0.220 A 
ATOM      9  N   UNL     1       5.143  -3.828   8.569  0.00  0.00    -0.283 N 
ATOM     36  H   UNL     1       5.872  -4.415   8.973  0.00  0.00    +0.155 HD
ATOM     37  N   UNL     1       3.764  -5.717   8.400  0.00  0.00    -0.214 NA
BRANCH   4   3
ATOM      1  C   UNL     1       3.169 -10.218   7.786  0.00  0.00    +0.020 A 
ATOM      2  C   UNL     1       3.255  -8.805   7.499  0.00  0.00    +0.013 A 
ATOM      3  C   UNL     1       2.539  -7.833   8.316  0.00  0.00    +0.019 A 
ATOM     38  C   UNL     1       1.739  -8.329   9.426  0.00  0.00    +0.120 A 
ATOM     39  N   UNL     1       1.674  -9.696   9.678  0.00  0.00    -0.263 NA
ATOM     40  C   UNL     1       2.358 -10.640   8.898  0.00  0.00    +0.111 A 
ENDBRANCH   4   3
ENDBRANCH  10   9
BRANCH  12  13
ATOM     13  N   UNL     1       6.596  -0.105   5.605  0.00  0.00    -0.281 N 
ATOM     14  C   UNL     1       7.909   0.046   5.188  0.00  0.00    +0.248 C 
ATOM     30  O   UNL     1       8.881  -0.035   5.924  0.00  0.00    -0.270 OA
ATOM     31  H   UNL     1       5.879   0.178   4.938  0.00  0.00    +0.155 HD
BRANCH  14  15
ATOM     15  C   UNL     1       8.179   0.344   3.749  0.00  0.00    +0.037 A 
ATOM     16  C   UNL     1       7.502   1.446   3.061  0.00  0.00    +0.013 A 
ATOM     17  C   UNL     1       7.768   1.701   1.667  0.00  0.00    +0.005 A 
ATOM     18  C   UNL     1       8.719   0.853   0.953  0.00  0.00    -0.033 A 
ATOM     28  C   UNL     1       9.381  -0.230   1.661  0.00  0.00    +0.005 A 
ATOM     29  C   UNL     1       9.122  -0.484   3.027  0.00  0.00    +0.013 A 
BRANCH  18  19
ATOM     19  C   UNL     1       9.049   1.039  -0.540  0.00  0.00    +0.119 C 
BRANCH  19  20
ATOM     20  N   UNL     1      10.376   0.545  -1.014  0.00  0.00    -0.302 NA
ATOM     21  C   UNL     1      11.414   1.668  -1.088  0.00  0.00    +0.066 C 
ATOM     22  C   UNL     1      12.802   1.129  -1.565  0.00  0.00    -0.064 C 
ATOM     23  N   UNL     1      12.642   0.448  -2.925  0.00  0.00    +0.379 N 
ATOM     24  C   UNL     1      13.956  -0.009  -3.403  0.00  0.00    -0.096 C 
ATOM     25  H   UNL     1      12.268   1.213  -3.644  0.00  0.00    -0.082 HD
ATOM     26  C   UNL     1      11.610  -0.668  -2.861  0.00  0.00    -0.064 C 
ATOM     27  C   UNL     1      10.242  -0.127  -2.358  0.00  0.00    +0.066 C 
ENDBRANCH  19  20
ENDBRANCH  18  19
ENDBRANCH  14  15
ENDBRANCH  12  13
TORSDOF 6
ENDMDL
MODEL 2
REMARK VINA RESULT:     -11.7      2.427     11.899
REMARK  Name = C:\Users\Docking\Desktop\test protocol\1iep_ligandH.pdb
REMARK  8 active torsions:
REMARK  status: ('A' for Active; 'I' for Inactive)
REMARK    1  A    between atoms: _5  and  _11
REMARK    2  A    between atoms: _19  and  _21
REMARK    3  A    between atoms: _22  and  _66
REMARK    4  A    between atoms: _27  and  _30
REMARK    5  A    between atoms: _32  and  _33
REMARK    6  A    between atoms: _38  and  _43
REMARK    7  A    between atoms: _43  and  _46
REMARK    8  A    between atoms: _53  and  _55
REMARK                            x       y       z     vdW  Elec       q    Type
REMARK                         _______ _______ _______ _____ _____    ______ ____
ROOT
ATOM     10  C   UNL     1       7.949  -1.275   6.733  0.00  0.00    +0.038 A 
ATOM     11  C   UNL     1       6.904  -2.214   6.924  0.00  0.00    +0.047 A 
ATOM     12  C   UNL     1       6.194  -2.303   8.190  0.00  0.00    +0.035 A 
ATOM     32  C   UNL     1       6.573  -1.417   9.241  0.00  0.00    +0.024 A 
ATOM     33  C   UNL     1       7.634  -0.457   9.065  0.00  0.00    +0.007 A 
ATOM     34  C   UNL     1       8.339  -0.367   7.819  0.00  0.00    -0.029 A 
ATOM     35  C   UNL     1       9.473   0.677   7.688  0.00  0.00    +0.045 C 
ENDROOT
BRANCH  10   9
ATOM      4  C   UNL     1       8.429   0.399   2.261  0.00  0.00    +0.077 A 
ATOM      5  C   UNL     1       7.275   1.242   2.389  0.00  0.00    +0.048 A 
ATOM      6  C   UNL     1       6.582   1.209   3.620  0.00  0.00    +0.116 A 
ATOM      7  N   UNL     1       7.019   0.392   4.639  0.00  0.00    -0.223 NA
ATOM      8  C   UNL     1       8.135  -0.409   4.482  0.00  0.00    +0.220 A 
ATOM      9  N   UNL     1       8.597  -1.233   5.497  0.00  0.00    -0.283 N 
ATOM     36  H   UNL     1       9.420  -1.815   5.339  0.00  0.00    +0.155 HD
ATOM     37  N   UNL     1       8.814  -0.398   3.316  0.00  0.00    -0.214 NA
BRANCH   4   3
ATOM      1  C   UNL     1       9.980   1.157  -1.250  0.00  0.00    +0.020 A 
ATOM      2  C   UNL     1       9.144   1.273  -0.077  0.00  0.00    +0.013 A 
ATOM      3  C   UNL     1       9.269   0.325   1.023  0.00  0.00    +0.019 A 
ATOM     38  C   UNL     1      10.256  -0.737   0.904  0.00  0.00    +0.120 A 
ATOM     39  N   UNL     1      11.046  -0.825  -0.238  0.00  0.00    -0.263 NA
ATOM     40  C   UNL     1      10.934   0.080  -1.304  0.00  0.00    +0.111 A 
ENDBRANCH   4   3
ENDBRANCH  10   9
BRANCH  12  13
ATOM     13  N   UNL     1       5.130  -3.242   8.445  0.00  0.00    -0.281 N 
ATOM     14  C   UNL     1       3.979  -3.447   7.702  0.00  0.00    +0.248 C 
ATOM     30  O   UNL     1       3.585  -2.701   6.818  0.00  0.00    -0.270 OA
ATOM     31  H   UNL     1       5.238  -3.827   9.274  0.00  0.00    +0.155 HD
BRANCH  14  15
ATOM     15  C   UNL     1       3.136  -4.647   7.992  0.00  0.00    +0.037 A 
ATOM     16  C   UNL     1       3.734  -5.974   8.158  0.00  0.00    +0.013 A 
ATOM     17  C   UNL     1       2.896  -7.117   8.421  0.00  0.00    +0.005 A 
ATOM     18  C   UNL     1       1.449  -6.937   8.521  0.00  0.00    -0.033 A 
ATOM     28  C   UNL     1       0.883  -5.608   8.357  0.00  0.00    +0.005 A 
ATOM     29  C   UNL     1       1.701  -4.486   8.098  0.00  0.00    +0.013 A 
BRANCH  18  19
ATOM     19  C   UNL     1       0.477  -8.104   8.778  0.00  0.00    +0.119 C 
BRANCH  19  20
ATOM     20  N   UNL     1      -0.159  -8.739   7.585  0.00  0.00    -0.302 NA
ATOM     21  C   UNL     1       0.048 -10.256   7.563  0.00  0.00    +0.066 C 
ATOM     22  C   UNL     1      -0.642 -10.907   6.321  0.00  0.00    -0.064 C 
ATOM     23  N   UNL     1      -0.096 -10.267   5.044  0.00  0.00    +0.379 N 
ATOM     24  C   UNL     1      -0.701 -10.918   3.872  0.00  0.00    -0.096 C 
ATOM     25  H   UNL     1       1.001 -10.463   5.010  0.00  0.00    -0.082 HD
ATOM     26  C   UNL     1      -0.296  -8.759   5.058  0.00  0.00    -0.064 C 
ATOM     27  C   UNL     1       0.370  -8.125   6.312  0.00  0.00    +0.066 C 
ENDBRANCH  19  20
ENDBRANCH  18  19
ENDBRANCH  14  15
ENDBRANCH  12  13
TORSDOF 6
ENDMDL
MODEL 3
REMARK VINA RESULT:     -11.5      1.964      2.411
REMARK  Name = C:\Users\Docking\Desktop\test protocol\1iep_ligandH.pdb
REMARK  8 active torsions:
REMARK  status: ('A' for Active; 'I' for Inactive)
REMARK    1  A    between atoms: _5  and  _11
REMARK    2  A    between atoms: _19  and  _21
REMARK    3  A    between atoms: _22  and  _66
REMARK    4  A    between atoms: _27  and  _30
REMARK    5  A    between atoms: _32  and  _33
REMARK    6  A    between atoms: _38  and  _43
REMARK    7  A    between atoms: _43  and  _46
REMARK    8  A    between atoms: _53  and  _55
REMARK                            x       y       z     vdW  Elec       q    Type
REMARK                         _______ _______ _______ _____ _____    ______ ____
ROOT
ATOM     10  C   UNL     1       3.257  -3.402   8.128  0.00  0.00    +0.038 A 
ATOM     11  C   UNL     1       3.880  -2.679   7.078  0.00  0.00    +0.047 A 
ATOM     12  C   UNL     1       4.940  -1.721   7.350  0.00  0.00    +0.035 A 
ATOM     32  C   UNL     1       5.343  -1.525   8.703  0.00  0.00    +0.024 A 
ATOM     33  C   UNL     1       4.720  -2.249   9.783  0.00  0.00    +0.007 A 
ATOM     34  C   UNL     1       3.672  -3.194   9.521  0.00  0.00    -0.029 A 
ATOM     35  C   UNL     1       3.035  -3.938  10.718  0.00  0.00    +0.045 C 
ENDROOT
BRANCH  10   9
ATOM      4  C   UNL     1       1.641  -7.868   7.435  0.00  0.00    +0.077 A 
ATOM      5  C   UNL     1       2.930  -8.439   7.703  0.00  0.00    +0.048 A 
ATOM      6  C   UNL     1       3.983  -7.548   8.009  0.00  0.00    +0.116 A 
ATOM      7  N   UNL     1       3.754  -6.190   8.041  0.00  0.00    -0.223 NA
ATOM      8  C   UNL     1       2.500  -5.672   7.775  0.00  0.00    +0.220 A 
ATOM      9  N   UNL     1       2.245  -4.309   7.810  0.00  0.00    -0.283 N 
ATOM     36  H   UNL     1       1.308  -3.967   7.601  0.00  0.00    +0.155 HD
ATOM     37  N   UNL     1       1.477  -6.501   7.480  0.00  0.00    -0.214 NA
BRANCH   4   3
ATOM      1  C   UNL     1      -1.049  -9.930   5.483  0.00  0.00    +0.020 A 
ATOM      2  C   UNL     1       0.137  -9.150   5.753  0.00  0.00    +0.013 A 
ATOM      3  C   UNL     1       0.428  -8.678   7.100  0.00  0.00    +0.019 A 
ATOM     38  C   UNL     1      -0.509  -9.016   8.162  0.00  0.00    +0.120 A 
ATOM     39  N   UNL     1      -1.643  -9.768   7.872  0.00  0.00    -0.263 NA
ATOM     40  C   UNL     1      -1.934 -10.226   6.578  0.00  0.00    +0.111 A 
ENDBRANCH   4   3
ENDBRANCH  10   9
BRANCH  12  13
ATOM     13  N   UNL     1       5.604  -0.953   6.326  0.00  0.00    -0.281 N 
ATOM     14  C   UNL     1       6.943  -0.984   5.971  0.00  0.00    +0.248 C 
ATOM     30  O   UNL     1       7.819  -1.526   6.628  0.00  0.00    -0.270 OA
ATOM     31  H   UNL     1       5.016  -0.307   5.799  0.00  0.00    +0.155 HD
BRANCH  14  15
ATOM     15  C   UNL     1       7.372  -0.303   4.712  0.00  0.00    +0.037 A 
ATOM     16  C   UNL     1       6.566   0.763   4.112  0.00  0.00    +0.013 A 
ATOM     17  C   UNL     1       6.994   1.392   2.888  0.00  0.00    +0.005 A 
ATOM     18  C   UNL     1       8.238   0.957   2.256  0.00  0.00    -0.033 A 
ATOM     28  C   UNL     1       9.021  -0.100   2.876  0.00  0.00    +0.005 A 
ATOM     29  C   UNL     1       8.603  -0.719   4.075  0.00  0.00    +0.013 A 
BRANCH  18  19
ATOM     19  C   UNL     1       8.761   1.557   0.937  0.00  0.00    +0.119 C 
BRANCH  19  20
ATOM     20  N   UNL     1       9.941   0.895   0.306  0.00  0.00    -0.302 NA
ATOM     21  C   UNL     1      11.028   1.903  -0.078  0.00  0.00    +0.066 C 
ATOM     22  C   UNL     1      12.264   1.191  -0.717  0.00  0.00    -0.064 C 
ATOM     23  N   UNL     1      11.813   0.391  -1.939  0.00  0.00    +0.379 N 
ATOM     24  C   UNL     1      12.982  -0.233  -2.576  0.00  0.00    -0.096 C 
ATOM     25  H   UNL     1      11.372   1.108  -2.670  0.00  0.00    -0.082 HD
ATOM     26  C   UNL     1      10.730  -0.613  -1.568  0.00  0.00    -0.064 C 
ATOM     27  C   UNL     1       9.518   0.102  -0.907  0.00  0.00    +0.066 C 
ENDBRANCH  19  20
ENDBRANCH  18  19
ENDBRANCH  14  15
ENDBRANCH  12  13
TORSDOF 6
ENDMDL
MODEL 4
REMARK VINA RESULT:     -11.3      2.523     12.683
REMARK  Name = C:\Users\Docking\Desktop\test protocol\1iep_ligandH.pdb
REMARK  8 active torsions:
REMARK  status: ('A' for Active; 'I' for Inactive)
REMARK    1  A    between atoms: _5  and  _11
REMARK    2  A    between atoms: _19  and  _21
REMARK    3  A    between atoms: _22  and  _66
REMARK    4  A    between atoms: _27  and  _30
REMARK    5  A    between atoms: _32  and  _33
REMARK    6  A    between atoms: _38  and  _43
REMARK    7  A    between atoms: _43  and  _46
REMARK    8  A    between atoms: _53  and  _55
REMARK                            x       y       z     vdW  Elec       q    Type
REMARK                         _______ _______ _______ _____ _____    ______ ____
ROOT
ATOM     10  C   UNL     1       7.589  -1.159   6.737  0.00  0.00    +0.038 A 
ATOM     11  C   UNL     1       6.724  -2.270   6.909  0.00  0.00    +0.047 A 
ATOM     12  C   UNL     1       5.831  -2.359   8.054  0.00  0.00    +0.035 A 
ATOM     32  C   UNL     1       5.843  -1.296   9.004  0.00  0.00    +0.024 A 
ATOM     33  C   UNL     1       6.716  -0.160   8.845  0.00  0.00    +0.007 A 
ATOM     34  C   UNL     1       7.601  -0.068   7.719  0.00  0.00    -0.029 A 
ATOM     35  C   UNL     1       8.520   1.170   7.604  0.00  0.00    +0.045 C 
ENDROOT
BRANCH  10   9
ATOM      4  C   UNL     1       8.712   0.392   2.336  0.00  0.00    +0.077 A 
ATOM      5  C   UNL     1       7.517   1.181   2.245  0.00  0.00    +0.048 A 
ATOM      6  C   UNL     1       6.637   1.155   3.350  0.00  0.00    +0.116 A 
ATOM      7  N   UNL     1       6.939   0.393   4.458  0.00  0.00    -0.223 NA
ATOM      8  C   UNL     1       8.098  -0.358   4.512  0.00  0.00    +0.220 A 
ATOM      9  N   UNL     1       8.426  -1.125   5.619  0.00  0.00    -0.283 N 
ATOM     36  H   UNL     1       9.287  -1.671   5.618  0.00  0.00    +0.155 HD
ATOM     37  N   UNL     1       8.955  -0.351   3.470  0.00  0.00    -0.214 NA
BRANCH   4   3
ATOM      1  C   UNL     1      11.329   1.376  -0.399  0.00  0.00    +0.020 A 
ATOM      2  C   UNL     1      10.337   1.502   0.644  0.00  0.00    +0.013 A 
ATOM      3  C   UNL     1       9.742   0.319   1.252  0.00  0.00    +0.019 A 
ATOM     38  C   UNL     1      10.177  -0.987   0.780  0.00  0.00    +0.120 A 
ATOM     39  N   UNL     1      11.133  -1.078  -0.227  0.00  0.00    -0.263 NA
ATOM     40  C   UNL     1      11.711   0.054  -0.822  0.00  0.00    +0.111 A 
ENDBRANCH   4   3
ENDBRANCH  10   9
BRANCH  12  13
ATOM     13  N   UNL     1       4.937  -3.466   8.285  0.00  0.00    -0.281 N 
ATOM     14  C   UNL     1       3.700  -3.697   7.705  0.00  0.00    +0.248 C 
ATOM     30  O   UNL     1       3.077  -2.872   7.055  0.00  0.00    -0.270 OA
ATOM     31  H   UNL     1       5.254  -4.164   8.957  0.00  0.00    +0.155 HD
BRANCH  14  15
ATOM     15  C   UNL     1       3.057  -5.034   7.886  0.00  0.00    +0.037 A 
ATOM     16  C   UNL     1       1.681  -5.281   7.446  0.00  0.00    +0.013 A 
ATOM     17  C   UNL     1       1.078  -6.575   7.648  0.00  0.00    +0.005 A 
ATOM     18  C   UNL     1       1.853  -7.633   8.293  0.00  0.00    -0.033 A 
ATOM     28  C   UNL     1       3.217  -7.362   8.715  0.00  0.00    +0.005 A 
ATOM     29  C   UNL     1       3.811  -6.095   8.519  0.00  0.00    +0.013 A 
BRANCH  18  19
ATOM     19  C   UNL     1       1.283  -9.037   8.568  0.00  0.00    +0.119 C 
BRANCH  19  20
ATOM     20  N   UNL     1      -0.202  -9.192   8.528  0.00  0.00    -0.302 NA
ATOM     21  C   UNL     1      -0.718 -10.071   9.671  0.00  0.00    +0.066 C 
ATOM     22  C   UNL     1      -2.276 -10.205   9.627  0.00  0.00    -0.064 C 
ATOM     23  N   UNL     1      -2.698 -10.774   8.272  0.00  0.00    +0.379 N 
ATOM     24  C   UNL     1      -4.157 -10.955   8.249  0.00  0.00    -0.096 C 
ATOM     25  H   UNL     1      -2.231 -11.781   8.168  0.00  0.00    -0.082 HD
ATOM     26  C   UNL     1      -2.187  -9.907   7.130  0.00  0.00    -0.064 C 
ATOM     27  C   UNL     1      -0.641  -9.757   7.200  0.00  0.00    +0.066 C 
ENDBRANCH  19  20
ENDBRANCH  18  19
ENDBRANCH  14  15
ENDBRANCH  12  13
TORSDOF 6
ENDMDL
MODEL 5
REMARK VINA RESULT:     -11.2      2.146     12.379
REMARK  Name = C:\Users\Docking\Desktop\test protocol\1iep_ligandH.pdb
REMARK  8 active torsions:
REMARK  status: ('A' for Active; 'I' for Inactive)
REMARK    1  A    between atoms: _5  and  _11
REMARK    2  A    between atoms: _19  and  _21
REMARK    3  A    between atoms: _22  and  _66
REMARK    4  A    between atoms: _27  and  _30
REMARK    5  A    between atoms: _32  and  _33
REMARK    6  A    between atoms: _38  and  _43
REMARK    7  A    between atoms: _43  and  _46
REMARK    8  A    between atoms: _53  and  _55
REMARK                            x       y       z     vdW  Elec       q    Type
REMARK                         _______ _______ _______ _____ _____    ______ ____
ROOT
ATOM     10  C   UNL     1       7.751  -1.138   6.930  0.00  0.00    +0.038 A 
ATOM     11  C   UNL     1       6.591  -1.908   7.198  0.00  0.00    +0.047 A 
ATOM     12  C   UNL     1       5.939  -1.861   8.497  0.00  0.00    +0.035 A 
ATOM     32  C   UNL     1       6.495  -1.015   9.501  0.00  0.00    +0.024 A 
ATOM     33  C   UNL     1       7.675  -0.226   9.246  0.00  0.00    +0.007 A 
ATOM     34  C   UNL     1       8.323  -0.271   7.967  0.00  0.00    -0.029 A 
ATOM     35  C   UNL     1       9.589   0.592   7.752  0.00  0.00    +0.045 C 
ENDROOT
BRANCH  10   9
ATOM      4  C   UNL     1       8.261   0.350   2.395  0.00  0.00    +0.077 A 
ATOM      5  C   UNL     1       7.258   1.364   2.553  0.00  0.00    +0.048 A 
ATOM      6  C   UNL     1       6.630   1.464   3.814  0.00  0.00    +0.116 A 
ATOM      7  N   UNL     1       6.986   0.610   4.835  0.00  0.00    -0.223 NA
ATOM      8  C   UNL     1       7.956  -0.358   4.649  0.00  0.00    +0.220 A 
ATOM      9  N   UNL     1       8.336  -1.222   5.664  0.00  0.00    -0.283 N 
ATOM     36  H   UNL     1       9.051  -1.927   5.485  0.00  0.00    +0.155 HD
ATOM     37  N   UNL     1       8.570  -0.475   3.454  0.00  0.00    -0.214 NA
BRANCH   4   3
ATOM      1  C   UNL     1       9.600   0.690  -1.264  0.00  0.00    +0.020 A 
ATOM      2  C   UNL     1       8.845   0.953  -0.061  0.00  0.00    +0.013 A 
ATOM      3  C   UNL     1       9.017   0.121   1.123  0.00  0.00    +0.019 A 
ATOM     38  C   UNL     1       9.969  -0.978   1.057  0.00  0.00    +0.120 A 
ATOM     39  N   UNL     1      10.681  -1.208  -0.116  0.00  0.00    -0.263 NA
ATOM     40  C   UNL     1      10.522  -0.415  -1.263  0.00  0.00    +0.111 A 
ENDBRANCH   4   3
ENDBRANCH  10   9
BRANCH  12  13
ATOM     13  N   UNL     1       4.764  -2.627   8.830  0.00  0.00    -0.281 N 
ATOM     14  C   UNL     1       3.771  -3.077   7.975  0.00  0.00    +0.248 C 
ATOM     30  O   UNL     1       3.633  -2.706   6.819  0.00  0.00    -0.270 OA
ATOM     31  H   UNL     1       4.649  -2.865   9.815  0.00  0.00    +0.155 HD
BRANCH  14  15
ATOM     15  C   UNL     1       2.780  -4.075   8.482  0.00  0.00    +0.037 A 
ATOM     16  C   UNL     1       2.558  -4.263   9.917  0.00  0.00    +0.013 A 
ATOM     17  C   UNL     1       1.608  -5.244  10.380  0.00  0.00    +0.005 A 
ATOM     18  C   UNL     1       0.871  -6.043   9.404  0.00  0.00    -0.033 A 
ATOM     28  C   UNL     1       1.107  -5.832   7.985  0.00  0.00    +0.005 A 
ATOM     29  C   UNL     1       2.038  -4.872   7.528  0.00  0.00    +0.013 A 
BRANCH  18  19
ATOM     19  C   UNL     1      -0.146  -7.127   9.807  0.00  0.00    +0.119 C 
BRANCH  19  20
ATOM     20  N   UNL     1      -0.080  -8.431   9.082  0.00  0.00    -0.302 NA
ATOM     21  C   UNL     1      -1.450  -9.109   8.992  0.00  0.00    +0.066 C 
ATOM     22  C   UNL     1      -1.366 -10.461   8.211  0.00  0.00    -0.064 C 
ATOM     23  N   UNL     1      -0.351 -11.379   8.894  0.00  0.00    +0.379 N 
ATOM     24  C   UNL     1      -0.312 -12.672   8.196  0.00  0.00    -0.096 C 
ATOM     25  H   UNL     1      -0.710 -11.565   9.933  0.00  0.00    -0.082 HD
ATOM     26  C   UNL     1       1.014 -10.711   8.990  0.00  0.00    -0.064 C 
ATOM     27  C   UNL     1       0.914  -9.355   9.742  0.00  0.00    +0.066 C 
ENDBRANCH  19  20
ENDBRANCH  18  19
ENDBRANCH  14  15
ENDBRANCH  12  13
TORSDOF 6
ENDMDL
