MODEL 1
REMARK VINA RESULT:     -11.6      0.000      0.000
REMARK  Name = C:\Users\Docking\Desktop\test protocol\1iep_ligandH.pdb
REMARK  8 active torsions:
REMARK  status: ('A' for Active; 'I' for Inactive)
REMARK    1  A    between atoms: _5  and  _11
REMARK    2  A    between atoms: _19  and  _21
REMARK    3  A    between atoms: _22  and  _66
REMARK    4  A    between atoms: _27  and  _30
REMARK    5  A    between atoms: _32  and  _33
REMARK    6  A    between atoms: _38  and  _43
REMARK    7  A    between atoms: _43  and  _46
REMARK    8  A    between atoms: _53  and  _55
REMARK                            x       y       z     vdW  Elec       q    Type
REMARK                         _______ _______ _______ _____ _____    ______ ____
ROOT
ATOM     10  C   UNL     1       7.770   0.745   6.013  0.00  0.00    +0.038 A 
ATOM     11  C   UNL     1       8.649   0.801   4.900  0.00  0.00    +0.047 A 
ATOM     12  C   UNL     1       8.143   0.998   3.551  0.00  0.00    +0.035 A 
ATOM     32  C   UNL     1       6.736   1.136   3.371  0.00  0.00    +0.024 A 
ATOM     33  C   UNL     1       5.828   1.080   4.490  0.00  0.00    +0.007 A 
ATOM     34  C   UNL     1       6.322   0.884   5.823  0.00  0.00    -0.029 A 
ATOM     35  C   UNL     1       5.302   0.826   6.984  0.00  0.00    +0.045 C 
ENDROOT
BRANCH  10   9
ATOM      4  C   UNL     1       8.846  -2.024   9.783  0.00  0.00    +0.077 A 
ATOM      5  C   UNL     1       8.258  -3.183   9.175  0.00  0.00    +0.048 A 
ATOM      6  C   UNL     1       7.683  -3.022   7.894  0.00  0.00    +0.116 A 
ATOM      7  N   UNL     1       7.700  -1.790   7.277  0.00  0.00    -0.223 NA
ATOM      8  C   UNL     1       8.274  -0.693   7.892  0.00  0.00    +0.220 A 
ATOM      9  N   UNL     1       8.311   0.554   7.286  0.00  0.00    -0.283 N 
ATOM     36  H   UNL     1       8.737   1.340   7.776  0.00  0.00    +0.155 HD
ATOM     37  N   UNL     1       8.829  -0.820   9.115  0.00  0.00    -0.214 NA
BRANCH   4   3
ATOM      1  C   UNL     1      11.511  -2.189  12.641  0.00  0.00    +0.020 A 
ATOM      2  C   UNL     1      10.933  -2.186  11.317  0.00  0.00    +0.013 A 
ATOM      3  C   UNL     1       9.496  -2.034  11.132  0.00  0.00    +0.019 A 
ATOM     38  C   UNL     1       8.664  -1.886  12.316  0.00  0.00    +0.120 A 
ATOM     39  N   UNL     1       9.248  -1.894  13.579  0.00  0.00    -0.263 NA
ATOM     40  C   UNL     1      10.630  -2.041  13.770  0.00  0.00    +0.111 A 
ENDBRANCH   4   3
ENDBRANCH  10   9
BRANCH  12  13
ATOM     13  N   UNL     1       8.986   1.056   2.383  0.00  0.00    -0.281 N 
ATOM     14  C   UNL     1       9.264   0.040   1.482  0.00  0.00    +0.248 C 
ATOM     30  O   UNL     1       8.998  -1.138   1.666  0.00  0.00    -0.270 OA
ATOM     31  H   UNL     1       9.431   1.954   2.196  0.00  0.00    +0.155 HD
BRANCH  14  15
ATOM     15  C   UNL     1       9.951   0.381   0.199  0.00  0.00    +0.037 A 
ATOM     16  C   UNL     1      10.209  -0.640  -0.819  0.00  0.00    +0.013 A 
ATOM     17  C   UNL     1      10.888  -0.288  -2.041  0.00  0.00    +0.005 A 
ATOM     18  C   UNL     1      11.312   1.094  -2.252  0.00  0.00    -0.033 A 
ATOM     28  C   UNL     1      11.038   2.088  -1.227  0.00  0.00    +0.005 A 
ATOM     29  C   UNL     1      10.374   1.746  -0.028  0.00  0.00    +0.013 A 
BRANCH  18  19
ATOM     19  C   UNL     1      12.061   1.555  -3.516  0.00  0.00    +0.119 C 
BRANCH  19  20
ATOM     20  N   UNL     1      13.252   0.757  -3.934  0.00  0.00    -0.302 NA
ATOM     21  C   UNL     1      14.567   1.436  -3.538  0.00  0.00    +0.066 C 
ATOM     22  C   UNL     1      15.801   0.576  -3.963  0.00  0.00    -0.064 C 
ATOM     23  N   UNL     1      15.753   0.330  -5.472  0.00  0.00    +0.379 N 
ATOM     24  C   UNL     1      16.943  -0.428  -5.884  0.00  0.00    -0.096 C 
ATOM     25  H   UNL     1      15.792   1.323  -5.978  0.00  0.00    -0.082 HD
ATOM     26  C   UNL     1      14.448  -0.341  -5.876  0.00  0.00    -0.064 C 
ATOM     27  C   UNL     1      13.226   0.506  -5.422  0.00  0.00    +0.066 C 
ENDBRANCH  19  20
ENDBRANCH  18  19
ENDBRANCH  14  15
ENDBRANCH  12  13
TORSDOF 6
ENDMDL
MODEL 2
REMARK VINA RESULT:     -11.6      5.879      8.375
REMARK  Name = C:\Users\Docking\Desktop\test protocol\1iep_ligandH.pdb
REMARK  8 active torsions:
REMARK  status: ('A' for Active; 'I' for Inactive)
REMARK    1  A    between atoms: _5  and  _11
REMARK    2  A    between atoms: _19  and  _21
REMARK    3  A    between atoms: _22  and  _66
REMARK    4  A    between atoms: _27  and  _30
REMARK    5  A    between atoms: _32  and  _33
REMARK    6  A    between atoms: _38  and  _43
REMARK    7  A    between atoms: _43  and  _46
REMARK    8  A    between atoms: _53  and  _55
REMARK                            x       y       z     vdW  Elec       q    Type
REMARK                         _______ _______ _______ _____ _____    ______ ____
ROOT
ATOM     10  C   UNL     1       3.177  -3.484   8.393  0.00  0.00    +0.038 A 
ATOM     11  C   UNL     1       3.914  -2.999   7.283  0.00  0.00    +0.047 A 
ATOM     12  C   UNL     1       5.051  -2.111   7.465  0.00  0.00    +0.035 A 
ATOM     32  C   UNL     1       5.413  -1.739   8.792  0.00  0.00    +0.024 A 
ATOM     33  C   UNL     1       4.674  -2.222   9.932  0.00  0.00    +0.007 A 
ATOM     34  C   UNL     1       3.550  -3.096   9.759  0.00  0.00    -0.029 A 
ATOM     35  C   UNL     1       2.790  -3.578  11.017  0.00  0.00    +0.045 C 
ENDROOT
BRANCH  10   9
ATOM      4  C   UNL     1       1.244  -7.856   7.961  0.00  0.00    +0.077 A 
ATOM      5  C   UNL     1       2.505  -8.501   8.191  0.00  0.00    +0.048 A 
ATOM      6  C   UNL     1       3.628  -7.671   8.409  0.00  0.00    +0.116 A 
ATOM      7  N   UNL     1       3.488  -6.300   8.396  0.00  0.00    -0.223 NA
ATOM      8  C   UNL     1       2.258  -5.710   8.170  0.00  0.00    +0.220 A 
ATOM      9  N   UNL     1       2.093  -4.334   8.161  0.00  0.00    -0.283 N 
ATOM     36  H   UNL     1       1.171  -3.938   7.983  0.00  0.00    +0.155 HD
ATOM     37  N   UNL     1       1.171  -6.481   7.958  0.00  0.00    -0.214 NA
BRANCH   4   3
ATOM      1  C   UNL     1      -2.090  -9.828   8.507  0.00  0.00    +0.020 A 
ATOM      2  C   UNL     1      -0.864  -9.120   8.795  0.00  0.00    +0.013 A 
ATOM      3  C   UNL     1      -0.034  -8.596   7.718  0.00  0.00    +0.019 A 
ATOM     38  C   UNL     1      -0.478  -8.806   6.348  0.00  0.00    +0.120 A 
ATOM     39  N   UNL     1      -1.662  -9.493   6.100  0.00  0.00    -0.263 NA
ATOM     40  C   UNL     1      -2.468 -10.003   7.129  0.00  0.00    +0.111 A 
ENDBRANCH   4   3
ENDBRANCH  10   9
BRANCH  12  13
ATOM     13  N   UNL     1       5.832  -1.580   6.375  0.00  0.00    -0.281 N 
ATOM     14  C   UNL     1       5.709  -0.344   5.761  0.00  0.00    +0.248 C 
ATOM     30  O   UNL     1       4.763   0.413   5.917  0.00  0.00    -0.270 OA
ATOM     31  H   UNL     1       6.565  -2.190   6.011  0.00  0.00    +0.155 HD
BRANCH  14  15
ATOM     15  C   UNL     1       6.785   0.110   4.829  0.00  0.00    +0.037 A 
ATOM     16  C   UNL     1       8.149  -0.417   4.928  0.00  0.00    +0.013 A 
ATOM     17  C   UNL     1       9.172   0.051   4.027  0.00  0.00    +0.005 A 
ATOM     18  C   UNL     1       8.834   1.051   3.017  0.00  0.00    -0.033 A 
ATOM     28  C   UNL     1       7.472   1.552   2.937  0.00  0.00    +0.005 A 
ATOM     29  C   UNL     1       6.467   1.097   3.819  0.00  0.00    +0.013 A 
BRANCH  18  19
ATOM     19  C   UNL     1       9.867   1.622   2.028  0.00  0.00    +0.119 C 
BRANCH  19  20
ATOM     20  N   UNL     1      10.019   0.922   0.717  0.00  0.00    -0.302 NA
ATOM     21  C   UNL     1      11.022  -0.232   0.796  0.00  0.00    +0.066 C 
ATOM     22  C   UNL     1      11.152  -0.968  -0.578  0.00  0.00    -0.064 C 
ATOM     23  N   UNL     1      11.566   0.037  -1.654  0.00  0.00    +0.379 N 
ATOM     24  C   UNL     1      11.746  -0.662  -2.935  0.00  0.00    -0.096 C 
ATOM     25  H   UNL     1      12.554   0.461  -1.359  0.00  0.00    -0.082 HD
ATOM     26  C   UNL     1      10.576   1.190  -1.737  0.00  0.00    -0.064 C 
ATOM     27  C   UNL     1      10.432   1.895  -0.359  0.00  0.00    +0.066 C 
ENDBRANCH  19  20
ENDBRANCH  18  19
ENDBRANCH  14  15
ENDBRANCH  12  13
TORSDOF 6
ENDMDL
MODEL 3
REMARK VINA RESULT:     -11.4      3.263      4.687
REMARK  Name = C:\Users\Docking\Desktop\test protocol\1iep_ligandH.pdb
REMARK  8 active torsions:
REMARK  status: ('A' for Active; 'I' for Inactive)
REMARK    1  A    between atoms: _5  and  _11
REMARK    2  A    between atoms: _19  and  _21
REMARK    3  A    between atoms: _22  and  _66
REMARK    4  A    between atoms: _27  and  _30
REMARK    5  A    between atoms: _32  and  _33
REMARK    6  A    between atoms: _38  and  _43
REMARK    7  A    between atoms: _43  and  _46
REMARK    8  A    between atoms: _53  and  _55
REMARK                            x       y       z     vdW  Elec       q    Type
REMARK                         _______ _______ _______ _____ _____    ______ ____
ROOT
ATOM     10  C   UNL     1       6.463  -0.361   6.207  0.00  0.00    +0.038 A 
ATOM     11  C   UNL     1       7.049  -0.707   4.963  0.00  0.00    +0.047 A 
ATOM     12  C   UNL     1       8.254  -0.045   4.489  0.00  0.00    +0.035 A 
ATOM     32  C   UNL     1       8.838   0.964   5.309  0.00  0.00    +0.024 A 
ATOM     33  C   UNL     1       8.255   1.329   6.576  0.00  0.00    +0.007 A 
ATOM     34  C   UNL     1       7.065   0.681   7.048  0.00  0.00    -0.029 A 
ATOM     35  C   UNL     1       6.479   1.117   8.411  0.00  0.00    +0.045 C 
ENDROOT
BRANCH  10   9
ATOM      4  C   UNL     1       4.180  -3.630   8.879  0.00  0.00    +0.077 A 
ATOM      5  C   UNL     1       5.400  -4.062   9.499  0.00  0.00    +0.048 A 
ATOM      6  C   UNL     1       6.594  -3.422   9.097  0.00  0.00    +0.116 A 
ATOM      7  N   UNL     1       6.559  -2.426   8.145  0.00  0.00    -0.223 NA
ATOM      8  C   UNL     1       5.365  -2.034   7.566  0.00  0.00    +0.220 A 
ATOM      9  N   UNL     1       5.306  -1.029   6.613  0.00  0.00    -0.283 N 
ATOM     36  H   UNL     1       4.407  -0.775   6.205  0.00  0.00    +0.155 HD
ATOM     37  N   UNL     1       4.212  -2.631   7.932  0.00  0.00    -0.214 NA
BRANCH   4   3
ATOM      1  C   UNL     1       1.082  -5.021  10.820  0.00  0.00    +0.020 A 
ATOM      2  C   UNL     1       2.390  -4.462  10.564  0.00  0.00    +0.013 A 
ATOM      3  C   UNL     1       2.837  -4.207   9.201  0.00  0.00    +0.019 A 
ATOM     38  C   UNL     1       1.929  -4.530   8.110  0.00  0.00    +0.120 A 
ATOM     39  N   UNL     1       0.676  -5.068   8.387  0.00  0.00    -0.263 NA
ATOM     40  C   UNL     1       0.236  -5.320   9.695  0.00  0.00    +0.111 A 
ENDBRANCH   4   3
ENDBRANCH  10   9
BRANCH  12  13
ATOM     13  N   UNL     1       8.890  -0.348   3.230  0.00  0.00    -0.281 N 
ATOM     14  C   UNL     1       8.699   0.274   2.008  0.00  0.00    +0.248 C 
ATOM     30  O   UNL     1       7.790   1.053   1.763  0.00  0.00    -0.270 OA
ATOM     31  H   UNL     1       9.562  -1.116   3.243  0.00  0.00    +0.155 HD
BRANCH  14  15
ATOM     15  C   UNL     1       9.648  -0.021   0.891  0.00  0.00    +0.037 A 
ATOM     16  C   UNL     1      11.001  -0.516   1.155  0.00  0.00    +0.013 A 
ATOM     17  C   UNL     1      11.902  -0.778   0.060  0.00  0.00    +0.005 A 
ATOM     18  C   UNL     1      11.450  -0.545  -1.310  0.00  0.00    -0.033 A 
ATOM     28  C   UNL     1      10.101  -0.059  -1.543  0.00  0.00    +0.005 A 
ATOM     29  C   UNL     1       9.216   0.200  -0.472  0.00  0.00    +0.013 A 
BRANCH  18  19
ATOM     19  C   UNL     1      12.351  -0.777  -2.538  0.00  0.00    +0.119 C 
BRANCH  19  20
ATOM     20  N   UNL     1      12.842   0.433  -3.263  0.00  0.00    -0.302 NA
ATOM     21  C   UNL     1      12.345   1.730  -2.619  0.00  0.00    +0.066 C 
ATOM     22  C   UNL     1      12.886   2.986  -3.377  0.00  0.00    -0.064 C 
ATOM     23  N   UNL     1      12.463   2.913  -4.846  0.00  0.00    +0.379 N 
ATOM     24  C   UNL     1      12.921   4.121  -5.548  0.00  0.00    -0.096 C 
ATOM     25  H   UNL     1      11.349   2.906  -4.876  0.00  0.00    -0.082 HD
ATOM     26  C   UNL     1      12.951   1.625  -5.493  0.00  0.00    -0.064 C 
ATOM     27  C   UNL     1      12.431   0.384  -4.715  0.00  0.00    +0.066 C 
ENDBRANCH  19  20
ENDBRANCH  18  19
ENDBRANCH  14  15
ENDBRANCH  12  13
TORSDOF 6
ENDMDL
MODEL 4
REMARK VINA RESULT:     -11.3      6.419     14.076
REMARK  Name = C:\Users\Docking\Desktop\test protocol\1iep_ligandH.pdb
REMARK  8 active torsions:
REMARK  status: ('A' for Active; 'I' for Inactive)
REMARK    1  A    between atoms: _5  and  _11
REMARK    2  A    between atoms: _19  and  _21
REMARK    3  A    between atoms: _22  and  _66
REMARK    4  A    between atoms: _27  and  _30
REMARK    5  A    between atoms: _32  and  _33
REMARK    6  A    between atoms: _38  and  _43
REMARK    7  A    between atoms: _43  and  _46
REMARK    8  A    between atoms: _53  and  _55
REMARK                            x       y       z     vdW  Elec       q    Type
REMARK                         _______ _______ _______ _____ _____    ______ ____
ROOT
ATOM     10  C   UNL     1       7.819  -1.540   6.595  0.00  0.00    +0.038 A 
ATOM     11  C   UNL     1       6.883  -2.581   6.827  0.00  0.00    +0.047 A 
ATOM     12  C   UNL     1       6.179  -2.690   8.095  0.00  0.00    +0.035 A 
ATOM     32  C   UNL     1       6.449  -1.720   9.104  0.00  0.00    +0.024 A 
ATOM     33  C   UNL     1       7.398  -0.657   8.885  0.00  0.00    +0.007 A 
ATOM     34  C   UNL     1       8.098  -0.545   7.637  0.00  0.00    -0.029 A 
ATOM     35  C   UNL     1       9.109   0.612   7.460  0.00  0.00    +0.045 C 
ENDROOT
BRANCH  10   9
ATOM      4  C   UNL     1       8.370   0.273   2.185  0.00  0.00    +0.077 A 
ATOM      5  C   UNL     1       7.257   1.163   2.348  0.00  0.00    +0.048 A 
ATOM      6  C   UNL     1       6.564   1.118   3.578  0.00  0.00    +0.116 A 
ATOM      7  N   UNL     1       6.965   0.244   4.566  0.00  0.00    -0.223 NA
ATOM      8  C   UNL     1       8.042  -0.602   4.376  0.00  0.00    +0.220 A 
ATOM      9  N   UNL     1       8.467  -1.483   5.359  0.00  0.00    -0.283 N 
ATOM     36  H   UNL     1       9.261  -2.096   5.177  0.00  0.00    +0.155 HD
ATOM     37  N   UNL     1       8.719  -0.579   3.209  0.00  0.00    -0.214 NA
BRANCH   4   3
ATOM      1  C   UNL     1       9.844   0.995  -1.366  0.00  0.00    +0.020 A 
ATOM      2  C   UNL     1       9.011   1.102  -0.190  0.00  0.00    +0.013 A 
ATOM      3  C   UNL     1       9.204   0.206   0.943  0.00  0.00    +0.019 A 
ATOM     38  C   UNL     1      10.257  -0.795   0.854  0.00  0.00    +0.120 A 
ATOM     39  N   UNL     1      11.042  -0.876  -0.291  0.00  0.00    -0.263 NA
ATOM     40  C   UNL     1      10.865  -0.020  -1.389  0.00  0.00    +0.111 A 
ENDBRANCH   4   3
ENDBRANCH  10   9
BRANCH  12  13
ATOM     13  N   UNL     1       5.224  -3.730   8.391  0.00  0.00    -0.281 N 
ATOM     14  C   UNL     1       3.945  -3.881   7.882  0.00  0.00    +0.248 C 
ATOM     30  O   UNL     1       3.345  -3.022   7.253  0.00  0.00    -0.270 OA
ATOM     31  H   UNL     1       5.529  -4.440   9.056  0.00  0.00    +0.155 HD
BRANCH  14  15
ATOM     15  C   UNL     1       3.221  -5.167   8.118  0.00  0.00    +0.037 A 
ATOM     16  C   UNL     1       1.936  -5.446   7.472  0.00  0.00    +0.013 A 
ATOM     17  C   UNL     1       1.251  -6.688   7.730  0.00  0.00    +0.005 A 
ATOM     18  C   UNL     1       1.852  -7.661   8.639  0.00  0.00    -0.033 A 
ATOM     28  C   UNL     1       3.130  -7.361   9.262  0.00  0.00    +0.005 A 
ATOM     29  C   UNL     1       3.804  -6.145   9.012  0.00  0.00    +0.013 A 
BRANCH  18  19
ATOM     19  C   UNL     1       1.181  -9.003   8.989  0.00  0.00    +0.119 C 
BRANCH  19  20
ATOM     20  N   UNL     1      -0.300  -9.092   8.818  0.00  0.00    -0.302 NA
ATOM     21  C   UNL     1      -0.959  -9.904   9.937  0.00  0.00    +0.066 C 
ATOM     22  C   UNL     1      -2.511  -9.968   9.755  0.00  0.00    -0.064 C 
ATOM     23  N   UNL     1      -2.836 -10.569   8.386  0.00  0.00    +0.379 N 
ATOM     24  C   UNL     1      -4.294 -10.684   8.235  0.00  0.00    -0.096 C 
ATOM     25  H   UNL     1      -2.410 -11.599   8.359  0.00  0.00    -0.082 HD
ATOM     26  C   UNL     1      -2.182  -9.769   7.268  0.00  0.00    -0.064 C 
ATOM     27  C   UNL     1      -0.644  -9.687   7.474  0.00  0.00    +0.066 C 
ENDBRANCH  19  20
ENDBRANCH  18  19
ENDBRANCH  14  15
ENDBRANCH  12  13
TORSDOF 6
ENDMDL
MODEL 5
REMARK VINA RESULT:     -11.2      1.700      2.243
REMARK  Name = C:\Users\Docking\Desktop\test protocol\1iep_ligandH.pdb
REMARK  8 active torsions:
REMARK  status: ('A' for Active; 'I' for Inactive)
REMARK    1  A    between atoms: _5  and  _11
REMARK    2  A    between atoms: _19  and  _21
REMARK    3  A    between atoms: _22  and  _66
REMARK    4  A    between atoms: _27  and  _30
REMARK    5  A    between atoms: _32  and  _33
REMARK    6  A    between atoms: _38  and  _43
REMARK    7  A    between atoms: _43  and  _46
REMARK    8  A    between atoms: _53  and  _55
REMARK                            x       y       z     vdW  Elec       q    Type
REMARK                         _______ _______ _______ _____ _____    ______ ____
ROOT
ATOM     10  C   UNL     1       7.168  -0.735   5.255  0.00  0.00    +0.038 A 
ATOM     11  C   UNL     1       8.162  -0.650   4.247  0.00  0.00    +0.047 A 
ATOM     12  C   UNL     1       8.254   0.513   3.378  0.00  0.00    +0.035 A 
ATOM     32  C   UNL     1       7.319   1.572   3.565  0.00  0.00    +0.024 A 
ATOM     33  C   UNL     1       6.301   1.502   4.585  0.00  0.00    +0.007 A 
ATOM     34  C   UNL     1       6.204   0.356   5.443  0.00  0.00    -0.029 A 
ATOM     35  C   UNL     1       5.090   0.331   6.515  0.00  0.00    +0.045 C 
ENDROOT
BRANCH  10   9
ATOM      4  C   UNL     1       8.340  -3.151   9.234  0.00  0.00    +0.077 A 
ATOM      5  C   UNL     1       9.125  -2.060   9.736  0.00  0.00    +0.048 A 
ATOM      6  C   UNL     1       9.207  -0.898   8.936  0.00  0.00    +0.116 A 
ATOM      7  N   UNL     1       8.549  -0.842   7.727  0.00  0.00    -0.223 NA
ATOM      8  C   UNL     1       7.802  -1.912   7.271  0.00  0.00    +0.220 A 
ATOM      9  N   UNL     1       7.126  -1.875   6.062  0.00  0.00    -0.283 N 
ATOM     36  H   UNL     1       6.591  -2.688   5.757  0.00  0.00    +0.155 HD
ATOM     37  N   UNL     1       7.709  -3.034   8.015  0.00  0.00    -0.214 NA
BRANCH   4   3
ATOM      1  C   UNL     1       8.979  -6.673  10.812  0.00  0.00    +0.020 A 
ATOM      2  C   UNL     1       9.211  -5.439  10.095  0.00  0.00    +0.013 A 
ATOM      3  C   UNL     1       8.154  -4.445   9.964  0.00  0.00    +0.019 A 
ATOM     38  C   UNL     1       6.864  -4.730  10.575  0.00  0.00    +0.120 A 
ATOM     39  N   UNL     1       6.670  -5.927  11.257  0.00  0.00    -0.263 NA
ATOM     40  C   UNL     1       7.679  -6.893  11.388  0.00  0.00    +0.111 A 
ENDBRANCH   4   3
ENDBRANCH  10   9
BRANCH  12  13
ATOM     13  N   UNL     1       9.236   0.652   2.331  0.00  0.00    -0.281 N 
ATOM     14  C   UNL     1       9.577  -0.270   1.355  0.00  0.00    +0.248 C 
ATOM     30  O   UNL     1       9.236  -1.443   1.364  0.00  0.00    -0.270 OA
ATOM     31  H   UNL     1       9.742   1.538   2.307  0.00  0.00    +0.155 HD
BRANCH  14  15
ATOM     15  C   UNL     1      10.431   0.173   0.211  0.00  0.00    +0.037 A 
ATOM     16  C   UNL     1      11.506  -0.677  -0.308  0.00  0.00    +0.013 A 
ATOM     17  C   UNL     1      12.326  -0.219  -1.401  0.00  0.00    +0.005 A 
ATOM     18  C   UNL     1      12.072   1.096  -1.985  0.00  0.00    -0.033 A 
ATOM     28  C   UNL     1      10.996   1.916  -1.454  0.00  0.00    +0.005 A 
ATOM     29  C   UNL     1      10.190   1.471  -0.382  0.00  0.00    +0.013 A 
BRANCH  18  19
ATOM     19  C   UNL     1      12.911   1.674  -3.140  0.00  0.00    +0.119 C 
BRANCH  19  20
ATOM     20  N   UNL     1      13.764   0.721  -3.909  0.00  0.00    -0.302 NA
ATOM     21  C   UNL     1      15.233   1.153  -3.932  0.00  0.00    +0.066 C 
ATOM     22  C   UNL     1      16.115   0.133  -4.722  0.00  0.00    -0.064 C 
ATOM     23  N   UNL     1      15.571  -0.013  -6.145  0.00  0.00    +0.379 N 
ATOM     24  C   UNL     1      16.433  -0.928  -6.908  0.00  0.00    -0.096 C 
ATOM     25  H   UNL     1      15.626   0.988  -6.631  0.00  0.00    -0.082 HD
ATOM     26  C   UNL     1      14.111  -0.441  -6.131  0.00  0.00    -0.064 C 
ATOM     27  C   UNL     1      13.248   0.565  -5.319  0.00  0.00    +0.066 C 
ENDBRANCH  19  20
ENDBRANCH  18  19
ENDBRANCH  14  15
ENDBRANCH  12  13
TORSDOF 6
ENDMDL
