MODEL 1
REMARK VINA RESULT:      -8.4      0.000      0.000
REMARK  Name = C:\Users\Docking\Desktop\test protocol\1iep_ligandH.pdb
REMARK  8 active torsions:
REMARK  status: ('A' for Active; 'I' for Inactive)
REMARK    1  A    between atoms: _5  and  _11
REMARK    2  A    between atoms: _19  and  _21
REMARK    3  A    between atoms: _22  and  _66
REMARK    4  A    between atoms: _27  and  _30
REMARK    5  A    between atoms: _32  and  _33
REMARK    6  A    between atoms: _38  and  _43
REMARK    7  A    between atoms: _43  and  _46
REMARK    8  A    between atoms: _53  and  _55
REMARK                            x       y       z     vdW  Elec       q    Type
REMARK                         _______ _______ _______ _____ _____    ______ ____
ROOT
ATOM     10  C   UNL     1      -1.280 -14.329   1.889  0.00  0.00    +0.038 A 
ATOM     11  C   UNL     1      -0.362 -13.529   1.161  0.00  0.00    +0.047 A 
ATOM     12  C   UNL     1      -0.136 -12.136   1.512  0.00  0.00    +0.035 A 
ATOM     32  C   UNL     1      -0.859 -11.590   2.612  0.00  0.00    +0.024 A 
ATOM     33  C   UNL     1      -1.797 -12.388   3.362  0.00  0.00    +0.007 A 
ATOM     34  C   UNL     1      -2.026 -13.762   3.019  0.00  0.00    -0.029 A 
ATOM     35  C   UNL     1      -3.048 -14.569   3.854  0.00  0.00    +0.045 C 
ENDROOT
BRANCH  10   9
ATOM      4  C   UNL     1      -3.348 -17.721  -0.804  0.00  0.00    +0.077 A 
ATOM      5  C   UNL     1      -4.161 -16.761  -1.494  0.00  0.00    +0.048 A 
ATOM      6  C   UNL     1      -4.022 -15.405  -1.121  0.00  0.00    +0.116 A 
ATOM      7  N   UNL     1      -3.133 -15.048  -0.131  0.00  0.00    -0.223 NA
ATOM      8  C   UNL     1      -2.365 -15.999   0.516  0.00  0.00    +0.220 A 
ATOM      9  N   UNL     1      -1.459 -15.661   1.509  0.00  0.00    -0.283 N 
ATOM     36  H   UNL     1      -0.917 -16.393   1.967  0.00  0.00    +0.155 HD
ATOM     37  N   UNL     1      -2.481 -17.300   0.179  0.00  0.00    -0.214 NA
BRANCH   4   3
ATOM      1  C   UNL     1      -2.260 -21.392  -1.605  0.00  0.00    +0.020 A 
ATOM      2  C   UNL     1      -2.176 -19.975  -1.336  0.00  0.00    +0.013 A 
ATOM      3  C   UNL     1      -3.379 -19.191  -1.088  0.00  0.00    +0.019 A 
ATOM     38  C   UNL     1      -4.662 -19.876  -1.118  0.00  0.00    +0.120 A 
ATOM     39  N   UNL     1      -4.713 -21.242  -1.381  0.00  0.00    -0.263 NA
ATOM     40  C   UNL     1      -3.562 -22.006  -1.623  0.00  0.00    +0.111 A 
ENDBRANCH   4   3
ENDBRANCH  10   9
BRANCH  12  13
ATOM     13  N   UNL     1       0.778 -11.273   0.805  0.00  0.00    -0.281 N 
ATOM     14  C   UNL     1       1.786 -11.636  -0.073  0.00  0.00    +0.248 C 
ATOM     30  O   UNL     1       2.196 -12.778  -0.220  0.00  0.00    -0.270 OA
ATOM     31  H   UNL     1       0.668 -10.273   0.972  0.00  0.00    +0.155 HD
BRANCH  14  15
ATOM     15  C   UNL     1       2.443 -10.576  -0.897  0.00  0.00    +0.037 A 
ATOM     16  C   UNL     1       1.717  -9.370  -1.303  0.00  0.00    +0.013 A 
ATOM     17  C   UNL     1       2.369  -8.371  -2.112  0.00  0.00    +0.005 A 
ATOM     18  C   UNL     1       3.758  -8.574  -2.519  0.00  0.00    -0.033 A 
ATOM     28  C   UNL     1       4.456  -9.777  -2.097  0.00  0.00    +0.005 A 
ATOM     29  C   UNL     1       3.820 -10.759  -1.305  0.00  0.00    +0.013 A 
BRANCH  18  19
ATOM     19  C   UNL     1       4.527  -7.571  -3.399  0.00  0.00    +0.119 C 
BRANCH  19  20
ATOM     20  N   UNL     1       4.250  -7.597  -4.866  0.00  0.00    -0.302 NA
ATOM     21  C   UNL     1       4.685  -8.916  -5.510  0.00  0.00    +0.066 C 
ATOM     22  C   UNL     1       4.368  -8.935  -7.040  0.00  0.00    -0.064 C 
ATOM     23  N   UNL     1       5.059  -7.749  -7.716  0.00  0.00    +0.379 N 
ATOM     24  C   UNL     1       4.810  -7.797  -9.164  0.00  0.00    -0.096 C 
ATOM     25  H   UNL     1       6.156  -7.862  -7.557  0.00  0.00    -0.082 HD
ATOM     26  C   UNL     1       4.633  -6.433  -7.081  0.00  0.00    -0.064 C 
ATOM     27  C   UNL     1       4.926  -6.436  -5.554  0.00  0.00    +0.066 C 
ENDBRANCH  19  20
ENDBRANCH  18  19
ENDBRANCH  14  15
ENDBRANCH  12  13
TORSDOF 6
ENDMDL
MODEL 2
REMARK VINA RESULT:      -8.0      3.375      4.484
REMARK  Name = C:\Users\Docking\Desktop\test protocol\1iep_ligandH.pdb
REMARK  8 active torsions:
REMARK  status: ('A' for Active; 'I' for Inactive)
REMARK    1  A    between atoms: _5  and  _11
REMARK    2  A    between atoms: _19  and  _21
REMARK    3  A    between atoms: _22  and  _66
REMARK    4  A    between atoms: _27  and  _30
REMARK    5  A    between atoms: _32  and  _33
REMARK    6  A    between atoms: _38  and  _43
REMARK    7  A    between atoms: _43  and  _46
REMARK    8  A    between atoms: _53  and  _55
REMARK                            x       y       z     vdW  Elec       q    Type
REMARK                         _______ _______ _______ _____ _____    ______ ____
ROOT
ATOM     10  C   UNL     1      -0.387 -13.112   4.080  0.00  0.00    +0.038 A 
ATOM     11  C   UNL     1       0.561 -12.582   3.168  0.00  0.00    +0.047 A 
ATOM     12  C   UNL     1       0.261 -11.404   2.370  0.00  0.00    +0.035 A 
ATOM     32  C   UNL     1      -1.016 -10.789   2.527  0.00  0.00    +0.024 A 
ATOM     33  C   UNL     1      -1.992 -11.315   3.449  0.00  0.00    +0.007 A 
ATOM     34  C   UNL     1      -1.702 -12.478   4.237  0.00  0.00    -0.029 A 
ATOM     35  C   UNL     1      -2.789 -13.002   5.204  0.00  0.00    +0.045 C 
ENDROOT
BRANCH  10   9
ATOM      4  C   UNL     1      -0.070 -17.869   4.637  0.00  0.00    +0.077 A 
ATOM      5  C   UNL     1      -0.659 -18.118   3.353  0.00  0.00    +0.048 A 
ATOM      6  C   UNL     1      -1.037 -16.994   2.583  0.00  0.00    +0.116 A 
ATOM      7  N   UNL     1      -0.835 -15.722   3.071  0.00  0.00    -0.223 NA
ATOM      8  C   UNL     1      -0.265 -15.516   4.314  0.00  0.00    +0.220 A 
ATOM      9  N   UNL     1      -0.045 -14.245   4.822  0.00  0.00    -0.283 N 
ATOM     36  H   UNL     1       0.371 -14.136   5.746  0.00  0.00    +0.155 HD
ATOM     37  N   UNL     1       0.103 -16.573   5.069  0.00  0.00    -0.214 NA
BRANCH   4   3
ATOM      1  C   UNL     1       0.335 -21.320   6.432  0.00  0.00    +0.020 A 
ATOM      2  C   UNL     1      -0.138 -20.311   5.513  0.00  0.00    +0.013 A 
ATOM      3  C   UNL     1       0.385 -18.952   5.565  0.00  0.00    +0.019 A 
ATOM     38  C   UNL     1       1.393 -18.644   6.568  0.00  0.00    +0.120 A 
ATOM     39  N   UNL     1       1.828 -19.635   7.442  0.00  0.00    -0.263 NA
ATOM     40  C   UNL     1       1.331 -20.947   7.401  0.00  0.00    +0.111 A 
ENDBRANCH   4   3
ENDBRANCH  10   9
BRANCH  12  13
ATOM     13  N   UNL     1       1.181 -10.825   1.422  0.00  0.00    -0.281 N 
ATOM     14  C   UNL     1       1.505 -11.290   0.158  0.00  0.00    +0.248 C 
ATOM     30  O   UNL     1       1.212 -12.397  -0.268  0.00  0.00    -0.270 OA
ATOM     31  H   UNL     1       1.649  -9.969   1.719  0.00  0.00    +0.155 HD
BRANCH  14  15
ATOM     15  C   UNL     1       2.280 -10.401  -0.761  0.00  0.00    +0.037 A 
ATOM     16  C   UNL     1       3.624 -10.766  -1.217  0.00  0.00    +0.013 A 
ATOM     17  C   UNL     1       4.357  -9.883  -2.089  0.00  0.00    +0.005 A 
ATOM     18  C   UNL     1       3.745  -8.625  -2.512  0.00  0.00    -0.033 A 
ATOM     28  C   UNL     1       2.409  -8.291  -2.049  0.00  0.00    +0.005 A 
ATOM     29  C   UNL     1       1.688  -9.153  -1.193  0.00  0.00    +0.013 A 
BRANCH  18  19
ATOM     19  C   UNL     1       4.462  -7.613  -3.425  0.00  0.00    +0.119 C 
BRANCH  19  20
ATOM     20  N   UNL     1       4.180  -7.693  -4.889  0.00  0.00    -0.302 NA
ATOM     21  C   UNL     1       4.609  -9.037  -5.484  0.00  0.00    +0.066 C 
ATOM     22  C   UNL     1       4.286  -9.112  -7.012  0.00  0.00    -0.064 C 
ATOM     23  N   UNL     1       4.978  -7.955  -7.734  0.00  0.00    +0.379 N 
ATOM     24  C   UNL     1       4.724  -8.056  -9.179  0.00  0.00    -0.096 C 
ATOM     25  H   UNL     1       6.076  -8.065  -7.575  0.00  0.00    -0.082 HD
ATOM     26  C   UNL     1       4.559  -6.614  -7.147  0.00  0.00    -0.064 C 
ATOM     27  C   UNL     1       4.857  -6.561  -5.623  0.00  0.00    +0.066 C 
ENDBRANCH  19  20
ENDBRANCH  18  19
ENDBRANCH  14  15
ENDBRANCH  12  13
TORSDOF 6
ENDMDL
MODEL 3
REMARK VINA RESULT:      -8.0     20.666     23.660
REMARK  Name = C:\Users\Docking\Desktop\test protocol\1iep_ligandH.pdb
REMARK  8 active torsions:
REMARK  status: ('A' for Active; 'I' for Inactive)
REMARK    1  A    between atoms: _5  and  _11
REMARK    2  A    between atoms: _19  and  _21
REMARK    3  A    between atoms: _22  and  _66
REMARK    4  A    between atoms: _27  and  _30
REMARK    5  A    between atoms: _32  and  _33
REMARK    6  A    between atoms: _38  and  _43
REMARK    7  A    between atoms: _43  and  _46
REMARK    8  A    between atoms: _53  and  _55
REMARK                            x       y       z     vdW  Elec       q    Type
REMARK                         _______ _______ _______ _____ _____    ______ ____
ROOT
ATOM     10  C   UNL     1      -9.412   8.090   2.892  0.00  0.00    +0.038 A 
ATOM     11  C   UNL     1      -8.471   8.719   2.038  0.00  0.00    +0.047 A 
ATOM     12  C   UNL     1      -8.635  10.106   1.631  0.00  0.00    +0.035 A 
ATOM     32  C   UNL     1      -9.768  10.823   2.114  0.00  0.00    +0.024 A 
ATOM     33  C   UNL     1     -10.735  10.198   2.982  0.00  0.00    +0.007 A 
ATOM     34  C   UNL     1     -10.580   8.830   3.385  0.00  0.00    -0.029 A 
ATOM     35  C   UNL     1     -11.651   8.209   4.312  0.00  0.00    +0.045 C 
ENDROOT
BRANCH  10   9
ATOM      4  C   UNL     1      -7.719   4.719   5.860  0.00  0.00    +0.077 A 
ATOM      5  C   UNL     1      -7.177   5.698   6.758  0.00  0.00    +0.048 A 
ATOM      6  C   UNL     1      -7.349   7.058   6.415  0.00  0.00    +0.116 A 
ATOM      7  N   UNL     1      -8.016   7.402   5.259  0.00  0.00    -0.223 NA
ATOM      8  C   UNL     1      -8.525   6.433   4.415  0.00  0.00    +0.220 A 
ATOM      9  N   UNL     1      -9.206   6.756   3.251  0.00  0.00    -0.283 N 
ATOM     36  H   UNL     1      -9.560   6.011   2.651  0.00  0.00    +0.155 HD
ATOM     37  N   UNL     1      -8.373   5.127   4.719  0.00  0.00    -0.214 NA
BRANCH   4   3
ATOM      1  C   UNL     1      -8.463   0.879   5.820  0.00  0.00    +0.020 A 
ATOM      2  C   UNL     1      -8.605   2.296   5.574  0.00  0.00    +0.013 A 
ATOM      3  C   UNL     1      -7.622   3.242   6.086  0.00  0.00    +0.019 A 
ATOM     38  C   UNL     1      -6.498   2.719   6.848  0.00  0.00    +0.120 A 
ATOM     39  N   UNL     1      -6.389   1.349   7.070  0.00  0.00    -0.263 NA
ATOM     40  C   UNL     1      -7.330   0.429   6.584  0.00  0.00    +0.111 A 
ENDBRANCH   4   3
ENDBRANCH  10   9
BRANCH  12  13
ATOM     13  N   UNL     1      -7.717  10.796   0.759  0.00  0.00    -0.281 N 
ATOM     14  C   UNL     1      -6.642  11.594   1.115  0.00  0.00    +0.248 C 
ATOM     30  O   UNL     1      -6.434  12.011   2.245  0.00  0.00    -0.270 OA
ATOM     31  H   UNL     1      -7.879  10.683  -0.242  0.00  0.00    +0.155 HD
BRANCH  14  15
ATOM     15  C   UNL     1      -5.663  12.000   0.060  0.00  0.00    +0.037 A 
ATOM     16  C   UNL     1      -4.745  13.123   0.266  0.00  0.00    +0.013 A 
ATOM     17  C   UNL     1      -3.823  13.504  -0.774  0.00  0.00    +0.005 A 
ATOM     18  C   UNL     1      -3.814  12.760  -2.031  0.00  0.00    -0.033 A 
ATOM     28  C   UNL     1      -4.732  11.647  -2.207  0.00  0.00    +0.005 A 
ATOM     29  C   UNL     1      -5.638  11.271  -1.190  0.00  0.00    +0.013 A 
BRANCH  18  19
ATOM     19  C   UNL     1      -2.879  13.110  -3.204  0.00  0.00    +0.119 C 
BRANCH  19  20
ATOM     20  N   UNL     1      -1.439  13.339  -2.885  0.00  0.00    -0.302 NA
ATOM     21  C   UNL     1      -1.147  14.808  -2.565  0.00  0.00    +0.066 C 
ATOM     22  C   UNL     1       0.360  15.026  -2.212  0.00  0.00    -0.064 C 
ATOM     23  N   UNL     1       1.229  14.541  -3.374  0.00  0.00    +0.379 N 
ATOM     24  C   UNL     1       2.644  14.798  -3.069  0.00  0.00    -0.096 C 
ATOM     25  H   UNL     1       0.961  15.147  -4.271  0.00  0.00    -0.082 HD
ATOM     26  C   UNL     1       0.943  13.082  -3.700  0.00  0.00    -0.064 C 
ATOM     27  C   UNL     1      -0.563  12.872  -4.021  0.00  0.00    +0.066 C 
ENDBRANCH  19  20
ENDBRANCH  18  19
ENDBRANCH  14  15
ENDBRANCH  12  13
TORSDOF 6
ENDMDL
MODEL 4
REMARK VINA RESULT:      -7.8      5.461      6.237
REMARK  Name = C:\Users\Docking\Desktop\test protocol\1iep_ligandH.pdb
REMARK  8 active torsions:
REMARK  status: ('A' for Active; 'I' for Inactive)
REMARK    1  A    between atoms: _5  and  _11
REMARK    2  A    between atoms: _19  and  _21
REMARK    3  A    between atoms: _22  and  _66
REMARK    4  A    between atoms: _27  and  _30
REMARK    5  A    between atoms: _32  and  _33
REMARK    6  A    between atoms: _38  and  _43
REMARK    7  A    between atoms: _43  and  _46
REMARK    8  A    between atoms: _53  and  _55
REMARK                            x       y       z     vdW  Elec       q    Type
REMARK                         _______ _______ _______ _____ _____    ______ ____
ROOT
ATOM     10  C   UNL     1      -1.580 -11.378   4.713  0.00  0.00    +0.038 A 
ATOM     11  C   UNL     1      -1.099 -11.320   3.380  0.00  0.00    +0.047 A 
ATOM     12  C   UNL     1       0.249 -10.858   3.086  0.00  0.00    +0.035 A 
ATOM     32  C   UNL     1       1.081 -10.466   4.175  0.00  0.00    +0.024 A 
ATOM     33  C   UNL     1       0.608 -10.518   5.536  0.00  0.00    +0.007 A 
ATOM     34  C   UNL     1      -0.721 -10.970   5.832  0.00  0.00    -0.029 A 
ATOM     35  C   UNL     1      -1.177 -10.999   7.309  0.00  0.00    +0.045 C 
ENDROOT
BRANCH  10   9
ATOM      4  C   UNL     1      -6.344 -10.858   4.454  0.00  0.00    +0.077 A 
ATOM      5  C   UNL     1      -6.229  -9.565   3.842  0.00  0.00    +0.048 A 
ATOM      6  C   UNL     1      -4.926  -9.067   3.618  0.00  0.00    +0.116 A 
ATOM      7  N   UNL     1      -3.827  -9.815   3.982  0.00  0.00    -0.223 NA
ATOM      8  C   UNL     1      -3.973 -11.057   4.571  0.00  0.00    +0.220 A 
ATOM      9  N   UNL     1      -2.882 -11.830   4.938  0.00  0.00    -0.283 N 
ATOM     36  H   UNL     1      -3.032 -12.738   5.377  0.00  0.00    +0.155 HD
ATOM     37  N   UNL     1      -5.207 -11.554   4.797  0.00  0.00    -0.214 NA
BRANCH   4   3
ATOM      1  C   UNL     1      -9.337 -12.534   6.334  0.00  0.00    +0.020 A 
ATOM      2  C   UNL     1      -8.062 -11.896   6.100  0.00  0.00    +0.013 A 
ATOM      3  C   UNL     1      -7.653 -11.521   4.752  0.00  0.00    +0.019 A 
ATOM     38  C   UNL     1      -8.565 -11.806   3.655  0.00  0.00    +0.120 A 
ATOM     39  N   UNL     1      -9.786 -12.422   3.910  0.00  0.00    -0.263 NA
ATOM     40  C   UNL     1     -10.189 -12.790   5.203  0.00  0.00    +0.111 A 
ENDBRANCH   4   3
ENDBRANCH  10   9
BRANCH  12  13
ATOM     13  N   UNL     1       0.789 -10.769   1.752  0.00  0.00    -0.281 N 
ATOM     14  C   UNL     1       0.725  -9.698   0.877  0.00  0.00    +0.248 C 
ATOM     30  O   UNL     1       0.004  -8.723   1.029  0.00  0.00    -0.270 OA
ATOM     31  H   UNL     1       1.278 -11.597   1.412  0.00  0.00    +0.155 HD
BRANCH  14  15
ATOM     15  C   UNL     1       1.574  -9.718  -0.353  0.00  0.00    +0.037 A 
ATOM     16  C   UNL     1       1.609  -8.577  -1.272  0.00  0.00    +0.013 A 
ATOM     17  C   UNL     1       2.423  -8.630  -2.460  0.00  0.00    +0.005 A 
ATOM     18  C   UNL     1       3.211  -9.829  -2.736  0.00  0.00    -0.033 A 
ATOM     28  C   UNL     1       3.162 -10.945  -1.805  0.00  0.00    +0.005 A 
ATOM     29  C   UNL     1       2.364 -10.897  -0.640  0.00  0.00    +0.013 A 
BRANCH  18  19
ATOM     19  C   UNL     1       4.092  -9.981  -3.990  0.00  0.00    +0.119 C 
BRANCH  19  20
ATOM     20  N   UNL     1       4.084  -8.856  -4.971  0.00  0.00    -0.302 NA
ATOM     21  C   UNL     1       4.575  -9.295  -6.354  0.00  0.00    +0.066 C 
ATOM     22  C   UNL     1       4.539  -8.111  -7.373  0.00  0.00    -0.064 C 
ATOM     23  N   UNL     1       5.388  -6.956  -6.839  0.00  0.00    +0.379 N 
ATOM     24  C   UNL     1       5.404  -5.863  -7.823  0.00  0.00    -0.096 C 
ATOM     25  H   UNL     1       6.434  -7.328  -6.730  0.00  0.00    -0.082 HD
ATOM     26  C   UNL     1       4.909  -6.514  -5.464  0.00  0.00    -0.064 C 
ATOM     27  C   UNL     1       4.921  -7.706  -4.466  0.00  0.00    +0.066 C 
ENDBRANCH  19  20
ENDBRANCH  18  19
ENDBRANCH  14  15
ENDBRANCH  12  13
TORSDOF 6
ENDMDL
MODEL 5
REMARK VINA RESULT:      -7.8     22.365     24.682
REMARK  Name = C:\Users\Docking\Desktop\test protocol\1iep_ligandH.pdb
REMARK  8 active torsions:
REMARK  status: ('A' for Active; 'I' for Inactive)
REMARK    1  A    between atoms: _5  and  _11
REMARK    2  A    between atoms: _19  and  _21
REMARK    3  A    between atoms: _22  and  _66
REMARK    4  A    between atoms: _27  and  _30
REMARK    5  A    between atoms: _32  and  _33
REMARK    6  A    between atoms: _38  and  _43
REMARK    7  A    between atoms: _43  and  _46
REMARK    8  A    between atoms: _53  and  _55
REMARK                            x       y       z     vdW  Elec       q    Type
REMARK                         _______ _______ _______ _____ _____    ______ ____
ROOT
ATOM     10  C   UNL     1      -9.075  10.187   2.593  0.00  0.00    +0.038 A 
ATOM     11  C   UNL     1      -7.962  10.654   1.848  0.00  0.00    +0.047 A 
ATOM     12  C   UNL     1      -8.130  11.224   0.521  0.00  0.00    +0.035 A 
ATOM     32  C   UNL     1      -9.447  11.306  -0.017  0.00  0.00    +0.024 A 
ATOM     33  C   UNL     1     -10.590  10.836   0.726  0.00  0.00    +0.007 A 
ATOM     34  C   UNL     1     -10.430  10.270   2.035  0.00  0.00    -0.029 A 
ATOM     35  C   UNL     1     -11.691   9.777   2.783  0.00  0.00    +0.045 C 
ENDROOT
BRANCH  10   9
ATOM      4  C   UNL     1      -7.759   6.604   5.502  0.00  0.00    +0.077 A 
ATOM      5  C   UNL     1      -7.513   5.720   4.399  0.00  0.00    +0.048 A 
ATOM      6  C   UNL     1      -7.745   6.224   3.100  0.00  0.00    +0.116 A 
ATOM      7  N   UNL     1      -8.188   7.517   2.928  0.00  0.00    -0.223 NA
ATOM      8  C   UNL     1      -8.417   8.343   4.013  0.00  0.00    +0.220 A 
ATOM      9  N   UNL     1      -8.856   9.649   3.863  0.00  0.00    -0.283 N 
ATOM     36  H   UNL     1      -9.021  10.224   4.689  0.00  0.00    +0.155 HD
ATOM     37  N   UNL     1      -8.206   7.885   5.265  0.00  0.00    -0.214 NA
BRANCH   4   3
ATOM      1  C   UNL     1      -7.702   4.586   8.853  0.00  0.00    +0.020 A 
ATOM      2  C   UNL     1      -7.917   4.907   7.461  0.00  0.00    +0.013 A 
ATOM      3  C   UNL     1      -7.559   6.219   6.935  0.00  0.00    +0.019 A 
ATOM     38  C   UNL     1      -6.979   7.189   7.851  0.00  0.00    +0.120 A 
ATOM     39  N   UNL     1      -6.785   6.852   9.187  0.00  0.00    -0.263 NA
ATOM     40  C   UNL     1      -7.128   5.594   9.705  0.00  0.00    +0.111 A 
ENDBRANCH   4   3
ENDBRANCH  10   9
BRANCH  12  13
ATOM     13  N   UNL     1      -7.036  11.706  -0.286  0.00  0.00    -0.281 N 
ATOM     14  C   UNL     1      -5.833  12.241   0.144  0.00  0.00    +0.248 C 
ATOM     30  O   UNL     1      -5.600  12.585   1.293  0.00  0.00    -0.270 OA
ATOM     31  H   UNL     1      -7.165  11.645  -1.296  0.00  0.00    +0.155 HD
BRANCH  14  15
ATOM     15  C   UNL     1      -4.733  12.435  -0.850  0.00  0.00    +0.037 A 
ATOM     16  C   UNL     1      -4.211  13.770  -1.154  0.00  0.00    +0.013 A 
ATOM     17  C   UNL     1      -3.162  13.931  -2.129  0.00  0.00    +0.005 A 
ATOM     18  C   UNL     1      -2.627  12.753  -2.807  0.00  0.00    -0.033 A 
ATOM     28  C   UNL     1      -3.160  11.440  -2.482  0.00  0.00    +0.005 A 
ATOM     29  C   UNL     1      -4.189  11.278  -1.528  0.00  0.00    +0.013 A 
BRANCH  18  19
ATOM     19  C   UNL     1      -1.522  12.833  -3.877  0.00  0.00    +0.119 C 
BRANCH  19  20
ATOM     20  N   UNL     1      -0.109  12.895  -3.397  0.00  0.00    -0.302 NA
ATOM     21  C   UNL     1       0.352  14.334  -3.152  0.00  0.00    +0.066 C 
ATOM     22  C   UNL     1       1.825  14.379  -2.629  0.00  0.00    -0.064 C 
ATOM     23  N   UNL     1       2.742  13.680  -3.635  0.00  0.00    +0.379 N 
ATOM     24  C   UNL     1       4.135  13.771  -3.174  0.00  0.00    -0.096 C 
ATOM     25  H   UNL     1       2.668  14.232  -4.600  0.00  0.00    -0.082 HD
ATOM     26  C   UNL     1       2.289  12.248  -3.886  0.00  0.00    -0.064 C 
ATOM     27  C   UNL     1       0.814  12.213  -4.377  0.00  0.00    +0.066 C 
ENDBRANCH  19  20
ENDBRANCH  18  19
ENDBRANCH  14  15
ENDBRANCH  12  13
TORSDOF 6
ENDMDL
