MODEL 1
REMARK VINA RESULT:      -8.1      0.000      0.000
REMARK  Name = C:\Users\Docking\Desktop\test protocol\1iep_ligandH.pdb
REMARK  8 active torsions:
REMARK  status: ('A' for Active; 'I' for Inactive)
REMARK    1  A    between atoms: _5  and  _11
REMARK    2  A    between atoms: _19  and  _21
REMARK    3  A    between atoms: _22  and  _66
REMARK    4  A    between atoms: _27  and  _30
REMARK    5  A    between atoms: _32  and  _33
REMARK    6  A    between atoms: _38  and  _43
REMARK    7  A    between atoms: _43  and  _46
REMARK    8  A    between atoms: _53  and  _55
REMARK                            x       y       z     vdW  Elec       q    Type
REMARK                         _______ _______ _______ _____ _____    ______ ____
ROOT
ATOM     10  C   UNL     1      18.727  38.401   0.030  0.00  0.00    +0.038 A 
ATOM     11  C   UNL     1      17.890  39.211  -0.778  0.00  0.00    +0.047 A 
ATOM     12  C   UNL     1      18.255  39.539  -2.148  0.00  0.00    +0.035 A 
ATOM     32  C   UNL     1      19.479  39.022  -2.663  0.00  0.00    +0.024 A 
ATOM     33  C   UNL     1      20.343  38.198  -1.855  0.00  0.00    +0.007 A 
ATOM     34  C   UNL     1      19.989  37.873  -0.502  0.00  0.00    -0.029 A 
ATOM     35  C   UNL     1      20.956  36.990   0.320  0.00  0.00    +0.045 C 
ENDROOT
BRANCH  10   9
ATOM      4  C   UNL     1      18.955  39.106   4.772  0.00  0.00    +0.077 A 
ATOM      5  C   UNL     1      19.976  40.105   4.634  0.00  0.00    +0.048 A 
ATOM      6  C   UNL     1      20.420  40.402   3.326  0.00  0.00    +0.116 A 
ATOM      7  N   UNL     1      19.876  39.745   2.244  0.00  0.00    -0.223 NA
ATOM      8  C   UNL     1      18.894  38.786   2.413  0.00  0.00    +0.220 A 
ATOM      9  N   UNL     1      18.327  38.118   1.338  0.00  0.00    -0.283 N 
ATOM     36  H   UNL     1      17.611  37.412   1.505  0.00  0.00    +0.155 HD
ATOM     37  N   UNL     1      18.454  38.482   3.651  0.00  0.00    -0.214 NA
BRANCH   4   3
ATOM      1  C   UNL     1      16.592  37.608   7.505  0.00  0.00    +0.020 A 
ATOM      2  C   UNL     1      17.102  37.995   6.210  0.00  0.00    +0.013 A 
ATOM      3  C   UNL     1      18.380  38.684   6.089  0.00  0.00    +0.019 A 
ATOM     38  C   UNL     1      19.124  38.968   7.306  0.00  0.00    +0.120 A 
ATOM     39  N   UNL     1      18.607  38.585   8.540  0.00  0.00    -0.263 NA
ATOM     40  C   UNL     1      17.377  37.923   8.670  0.00  0.00    +0.111 A 
ENDBRANCH   4   3
ENDBRANCH  10   9
BRANCH  12  13
ATOM     13  N   UNL     1      17.449  40.364  -3.014  0.00  0.00    -0.281 N 
ATOM     14  C   UNL     1      16.614  39.958  -4.041  0.00  0.00    +0.248 C 
ATOM     30  O   UNL     1      16.597  38.831  -4.514  0.00  0.00    -0.270 OA
ATOM     31  H   UNL     1      17.500  41.369  -2.848  0.00  0.00    +0.155 HD
BRANCH  14  15
ATOM     15  C   UNL     1      15.671  40.950  -4.641  0.00  0.00    +0.037 A 
ATOM     16  C   UNL     1      16.092  42.326  -4.921  0.00  0.00    +0.013 A 
ATOM     17  C   UNL     1      15.157  43.268  -5.483  0.00  0.00    +0.005 A 
ATOM     18  C   UNL     1      13.791  42.837  -5.771  0.00  0.00    -0.033 A 
ATOM     28  C   UNL     1      13.402  41.465  -5.488  0.00  0.00    +0.005 A 
ATOM     29  C   UNL     1      14.315  40.539  -4.936  0.00  0.00    +0.013 A 
BRANCH  18  19
ATOM     19  C   UNL     1      12.721  43.780  -6.352  0.00  0.00    +0.119 C 
BRANCH  19  20
ATOM     20  N   UNL     1      11.701  44.322  -5.406  0.00  0.00    -0.302 NA
ATOM     21  C   UNL     1      12.289  44.590  -4.018  0.00  0.00    +0.066 C 
ATOM     22  C   UNL     1      11.214  45.177  -3.047  0.00  0.00    -0.064 C 
ATOM     23  N   UNL     1      10.031  44.212  -2.957  0.00  0.00    +0.379 N 
ATOM     24  C   UNL     1       9.044  44.733  -2.000  0.00  0.00    -0.096 C 
ATOM     25  H   UNL     1      10.414  43.245  -2.554  0.00  0.00    -0.082 HD
ATOM     26  C   UNL     1       9.441  43.937  -4.333  0.00  0.00    -0.064 C 
ATOM     27  C   UNL     1      10.526  43.382  -5.298  0.00  0.00    +0.066 C 
ENDBRANCH  19  20
ENDBRANCH  18  19
ENDBRANCH  14  15
ENDBRANCH  12  13
TORSDOF 6
ENDMDL
MODEL 2
REMARK VINA RESULT:      -8.1      4.538     14.152
REMARK  Name = C:\Users\Docking\Desktop\test protocol\1iep_ligandH.pdb
REMARK  8 active torsions:
REMARK  status: ('A' for Active; 'I' for Inactive)
REMARK    1  A    between atoms: _5  and  _11
REMARK    2  A    between atoms: _19  and  _21
REMARK    3  A    between atoms: _22  and  _66
REMARK    4  A    between atoms: _27  and  _30
REMARK    5  A    between atoms: _32  and  _33
REMARK    6  A    between atoms: _38  and  _43
REMARK    7  A    between atoms: _43  and  _46
REMARK    8  A    between atoms: _53  and  _55
REMARK                            x       y       z     vdW  Elec       q    Type
REMARK                         _______ _______ _______ _____ _____    ______ ____
ROOT
ATOM     10  C   UNL     1      10.630  41.435  -7.105  0.00  0.00    +0.038 A 
ATOM     11  C   UNL     1      11.843  40.833  -6.683  0.00  0.00    +0.047 A 
ATOM     12  C   UNL     1      12.299  40.945  -5.306  0.00  0.00    +0.035 A 
ATOM     32  C   UNL     1      11.493  41.676  -4.385  0.00  0.00    +0.024 A 
ATOM     33  C   UNL     1      10.258  42.295  -4.797  0.00  0.00    +0.007 A 
ATOM     34  C   UNL     1       9.805  42.190  -6.155  0.00  0.00    -0.029 A 
ATOM     35  C   UNL     1       8.476  42.879  -6.543  0.00  0.00    +0.045 C 
ENDROOT
BRANCH  10   9
ATOM      4  C   UNL     1      10.563  42.909 -11.672  0.00  0.00    +0.077 A 
ATOM      5  C   UNL     1      11.350  44.070 -11.371  0.00  0.00    +0.048 A 
ATOM      6  C   UNL     1      11.745  44.255 -10.027  0.00  0.00    +0.116 A 
ATOM      7  N   UNL     1      11.376  43.340  -9.065  0.00  0.00    -0.223 NA
ATOM      8  C   UNL     1      10.616  42.232  -9.389  0.00  0.00    +0.220 A 
ATOM      9  N   UNL     1      10.240  41.295  -8.439  0.00  0.00    -0.283 N 
ATOM     36  H   UNL     1       9.672  40.495  -8.717  0.00  0.00    +0.155 HD
ATOM     37  N   UNL     1      10.224  42.034 -10.665  0.00  0.00    -0.214 NA
BRANCH   4   3
ATOM      1  C   UNL     1       8.713  41.189 -14.659  0.00  0.00    +0.020 A 
ATOM      2  C   UNL     1       9.158  41.471 -13.313  0.00  0.00    +0.013 A 
ATOM      3  C   UNL     1      10.072  42.574 -13.046  0.00  0.00    +0.019 A 
ATOM     38  C   UNL     1      10.520  43.381 -14.171  0.00  0.00    +0.120 A 
ATOM     39  N   UNL     1      10.076  43.085 -15.456  0.00  0.00    -0.263 NA
ATOM     40  C   UNL     1       9.198  42.025 -15.726  0.00  0.00    +0.111 A 
ENDBRANCH   4   3
ENDBRANCH  10   9
BRANCH  12  13
ATOM     13  N   UNL     1      13.525  40.362  -4.821  0.00  0.00    -0.281 N 
ATOM     14  C   UNL     1      14.094  39.152  -5.183  0.00  0.00    +0.248 C 
ATOM     30  O   UNL     1      13.523  38.284  -5.826  0.00  0.00    -0.270 OA
ATOM     31  H   UNL     1      14.035  40.907  -4.126  0.00  0.00    +0.155 HD
BRANCH  14  15
ATOM     15  C   UNL     1      15.497  38.858  -4.758  0.00  0.00    +0.037 A 
ATOM     16  C   UNL     1      16.205  37.671  -5.245  0.00  0.00    +0.013 A 
ATOM     17  C   UNL     1      17.552  37.402  -4.805  0.00  0.00    +0.005 A 
ATOM     18  C   UNL     1      18.199  38.323  -3.874  0.00  0.00    -0.033 A 
ATOM     28  C   UNL     1      17.474  39.495  -3.411  0.00  0.00    +0.005 A 
ATOM     29  C   UNL     1      16.154  39.762  -3.838  0.00  0.00    +0.013 A 
BRANCH  18  19
ATOM     19  C   UNL     1      19.625  38.103  -3.336  0.00  0.00    +0.119 C 
BRANCH  19  20
ATOM     20  N   UNL     1      19.872  38.430  -1.899  0.00  0.00    -0.302 NA
ATOM     21  C   UNL     1      21.366  38.520  -1.579  0.00  0.00    +0.066 C 
ATOM     22  C   UNL     1      21.606  38.885  -0.078  0.00  0.00    -0.064 C 
ATOM     23  N   UNL     1      20.924  37.844   0.812  0.00  0.00    +0.379 N 
ATOM     24  C   UNL     1      21.196  38.151   2.223  0.00  0.00    -0.096 C 
ATOM     25  H   UNL     1      21.383  36.853   0.586  0.00  0.00    -0.082 HD
ATOM     26  C   UNL     1      19.437  37.745   0.498  0.00  0.00    -0.064 C 
ATOM     27  C   UNL     1      19.210  37.412  -1.003  0.00  0.00    +0.066 C 
ENDBRANCH  19  20
ENDBRANCH  18  19
ENDBRANCH  14  15
ENDBRANCH  12  13
TORSDOF 6
ENDMDL
MODEL 3
REMARK VINA RESULT:      -8.1      4.444     13.803
REMARK  Name = C:\Users\Docking\Desktop\test protocol\1iep_ligandH.pdb
REMARK  8 active torsions:
REMARK  status: ('A' for Active; 'I' for Inactive)
REMARK    1  A    between atoms: _5  and  _11
REMARK    2  A    between atoms: _19  and  _21
REMARK    3  A    between atoms: _22  and  _66
REMARK    4  A    between atoms: _27  and  _30
REMARK    5  A    between atoms: _32  and  _33
REMARK    6  A    between atoms: _38  and  _43
REMARK    7  A    between atoms: _43  and  _46
REMARK    8  A    between atoms: _53  and  _55
REMARK                            x       y       z     vdW  Elec       q    Type
REMARK                         _______ _______ _______ _____ _____    ______ ____
ROOT
ATOM     10  C   UNL     1      10.780  41.362  -6.734  0.00  0.00    +0.038 A 
ATOM     11  C   UNL     1      12.055  40.974  -6.250  0.00  0.00    +0.047 A 
ATOM     12  C   UNL     1      12.492  41.329  -4.909  0.00  0.00    +0.035 A 
ATOM     32  C   UNL     1      11.602  42.078  -4.085  0.00  0.00    +0.024 A 
ATOM     33  C   UNL     1      10.302  42.482  -4.560  0.00  0.00    +0.007 A 
ATOM     34  C   UNL     1       9.867  42.137  -5.884  0.00  0.00    -0.029 A 
ATOM     35  C   UNL     1       8.466  42.602  -6.343  0.00  0.00    +0.045 C 
ENDROOT
BRANCH  10   9
ATOM      4  C   UNL     1      10.450  42.222 -11.444  0.00  0.00    +0.077 A 
ATOM      5  C   UNL     1      11.036  43.524 -11.308  0.00  0.00    +0.048 A 
ATOM      6  C   UNL     1      11.401  43.938 -10.007  0.00  0.00    +0.116 A 
ATOM      7  N   UNL     1      11.192  43.103  -8.931  0.00  0.00    -0.223 NA
ATOM      8  C   UNL     1      10.624  41.854  -9.097  0.00  0.00    +0.220 A 
ATOM      9  N   UNL     1      10.412  40.995  -8.030  0.00  0.00    -0.283 N 
ATOM     36  H   UNL     1       9.983  40.084  -8.193  0.00  0.00    +0.155 HD
ATOM     37  N   UNL     1      10.265  41.436 -10.329  0.00  0.00    -0.214 NA
BRANCH   4   3
ATOM      1  C   UNL     1       9.357  41.842 -15.181  0.00  0.00    +0.020 A 
ATOM      2  C   UNL     1       9.776  42.453 -13.940  0.00  0.00    +0.013 A 
ATOM      3  C   UNL     1      10.015  41.641 -12.754  0.00  0.00    +0.019 A 
ATOM     38  C   UNL     1       9.820  40.202 -12.857  0.00  0.00    +0.120 A 
ATOM     39  N   UNL     1       9.415  39.643 -14.065  0.00  0.00    -0.263 NA
ATOM     40  C   UNL     1       9.180  40.414 -15.212  0.00  0.00    +0.111 A 
ENDBRANCH   4   3
ENDBRANCH  10   9
BRANCH  12  13
ATOM     13  N   UNL     1      13.778  40.969  -4.366  0.00  0.00    -0.281 N 
ATOM     14  C   UNL     1      14.997  41.591  -4.582  0.00  0.00    +0.248 C 
ATOM     30  O   UNL     1      15.203  42.427  -5.450  0.00  0.00    -0.270 OA
ATOM     31  H   UNL     1      13.792  40.158  -3.748  0.00  0.00    +0.155 HD
BRANCH  14  15
ATOM     15  C   UNL     1      16.160  41.219  -3.720  0.00  0.00    +0.037 A 
ATOM     16  C   UNL     1      16.930  42.238  -3.002  0.00  0.00    +0.013 A 
ATOM     17  C   UNL     1      18.058  41.854  -2.191  0.00  0.00    +0.005 A 
ATOM     18  C   UNL     1      18.421  40.442  -2.092  0.00  0.00    -0.033 A 
ATOM     28  C   UNL     1      17.637  39.452  -2.810  0.00  0.00    +0.005 A 
ATOM     29  C   UNL     1      16.532  39.825  -3.608  0.00  0.00    +0.013 A 
BRANCH  18  19
ATOM     19  C   UNL     1      19.622  39.944  -1.266  0.00  0.00    +0.119 C 
BRANCH  19  20
ATOM     20  N   UNL     1      19.588  40.189   0.207  0.00  0.00    -0.302 NA
ATOM     21  C   UNL     1      20.830  39.635   0.910  0.00  0.00    +0.066 C 
ATOM     22  C   UNL     1      20.789  39.920   2.447  0.00  0.00    -0.064 C 
ATOM     23  N   UNL     1      19.515  39.317   3.041  0.00  0.00    +0.379 N 
ATOM     24  C   UNL     1      19.501  39.533   4.495  0.00  0.00    -0.096 C 
ATOM     25  H   UNL     1      19.547  38.217   2.863  0.00  0.00    -0.082 HD
ATOM     26  C   UNL     1      18.275  39.861   2.345  0.00  0.00    -0.064 C 
ATOM     27  C   UNL     1      18.340  39.598   0.815  0.00  0.00    +0.066 C 
ENDBRANCH  19  20
ENDBRANCH  18  19
ENDBRANCH  14  15
ENDBRANCH  12  13
TORSDOF 6
ENDMDL
MODEL 4
REMARK VINA RESULT:      -8.1      1.807      2.886
REMARK  Name = C:\Users\Docking\Desktop\test protocol\1iep_ligandH.pdb
REMARK  8 active torsions:
REMARK  status: ('A' for Active; 'I' for Inactive)
REMARK    1  A    between atoms: _5  and  _11
REMARK    2  A    between atoms: _19  and  _21
REMARK    3  A    between atoms: _22  and  _66
REMARK    4  A    between atoms: _27  and  _30
REMARK    5  A    between atoms: _32  and  _33
REMARK    6  A    between atoms: _38  and  _43
REMARK    7  A    between atoms: _43  and  _46
REMARK    8  A    between atoms: _53  and  _55
REMARK                            x       y       z     vdW  Elec       q    Type
REMARK                         _______ _______ _______ _____ _____    ______ ____
ROOT
ATOM     10  C   UNL     1      18.523  38.396   0.084  0.00  0.00    +0.038 A 
ATOM     11  C   UNL     1      17.584  39.158  -0.657  0.00  0.00    +0.047 A 
ATOM     12  C   UNL     1      17.836  39.520  -2.043  0.00  0.00    +0.035 A 
ATOM     32  C   UNL     1      19.053  39.087  -2.644  0.00  0.00    +0.024 A 
ATOM     33  C   UNL     1      20.019  38.313  -1.905  0.00  0.00    +0.007 A 
ATOM     34  C   UNL     1      19.778  37.955  -0.537  0.00  0.00    -0.029 A 
ATOM     35  C   UNL     1      20.852  37.129   0.209  0.00  0.00    +0.045 C 
ENDROOT
BRANCH  10   9
ATOM      4  C   UNL     1      18.977  39.109   4.809  0.00  0.00    +0.077 A 
ATOM      5  C   UNL     1      19.896  40.193   4.616  0.00  0.00    +0.048 A 
ATOM      6  C   UNL     1      20.232  40.531   3.286  0.00  0.00    +0.116 A 
ATOM      7  N   UNL     1      19.683  39.831   2.234  0.00  0.00    -0.223 NA
ATOM      8  C   UNL     1      18.800  38.789   2.455  0.00  0.00    +0.220 A 
ATOM      9  N   UNL     1      18.230  38.076   1.412  0.00  0.00    -0.283 N 
ATOM     36  H   UNL     1      17.589  37.310   1.616  0.00  0.00    +0.155 HD
ATOM     37  N   UNL     1      18.465  38.446   3.716  0.00  0.00    -0.214 NA
BRANCH   4   3
ATOM      1  C   UNL     1      18.777  38.429   8.655  0.00  0.00    +0.020 A 
ATOM      2  C   UNL     1      19.260  38.909   7.381  0.00  0.00    +0.013 A 
ATOM      3  C   UNL     1      18.522  38.636   6.154  0.00  0.00    +0.019 A 
ATOM     38  C   UNL     1      17.290  37.868   6.252  0.00  0.00    +0.120 A 
ATOM     39  N   UNL     1      16.850  37.418   7.493  0.00  0.00    -0.263 NA
ATOM     40  C   UNL     1      17.552  37.673   8.680  0.00  0.00    +0.111 A 
ENDBRANCH   4   3
ENDBRANCH  10   9
BRANCH  12  13
ATOM     13  N   UNL     1      16.923  40.299  -2.843  0.00  0.00    -0.281 N 
ATOM     14  C   UNL     1      16.145  39.871  -3.907  0.00  0.00    +0.248 C 
ATOM     30  O   UNL     1      16.277  38.795  -4.471  0.00  0.00    -0.270 OA
ATOM     31  H   UNL     1      16.841  41.285  -2.596  0.00  0.00    +0.155 HD
BRANCH  14  15
ATOM     15  C   UNL     1      15.076  40.776  -4.429  0.00  0.00    +0.037 A 
ATOM     16  C   UNL     1      15.351  42.183  -4.731  0.00  0.00    +0.013 A 
ATOM     17  C   UNL     1      14.297  43.038  -5.217  0.00  0.00    +0.005 A 
ATOM     18  C   UNL     1      12.957  42.486  -5.405  0.00  0.00    -0.033 A 
ATOM     28  C   UNL     1      12.713  41.086  -5.103  0.00  0.00    +0.005 A 
ATOM     29  C   UNL     1      13.744  40.245  -4.626  0.00  0.00    +0.013 A 
BRANCH  18  19
ATOM     19  C   UNL     1      11.767  43.330  -5.900  0.00  0.00    +0.119 C 
BRANCH  19  20
ATOM     20  N   UNL     1      11.357  43.164  -7.326  0.00  0.00    -0.302 NA
ATOM     21  C   UNL     1      10.153  42.228  -7.472  0.00  0.00    +0.066 C 
ATOM     22  C   UNL     1       9.723  42.084  -8.968  0.00  0.00    -0.064 C 
ATOM     23  N   UNL     1      10.909  41.574  -9.790  0.00  0.00    +0.379 N 
ATOM     24  C   UNL     1      10.491  41.382 -11.186  0.00  0.00    -0.096 C 
ATOM     25  H   UNL     1      11.198  40.577  -9.383  0.00  0.00    -0.082 HD
ATOM     26  C   UNL     1      12.111  42.497  -9.648  0.00  0.00    -0.064 C 
ATOM     27  C   UNL     1      12.511  42.657  -8.155  0.00  0.00    +0.066 C 
ENDBRANCH  19  20
ENDBRANCH  18  19
ENDBRANCH  14  15
ENDBRANCH  12  13
TORSDOF 6
ENDMDL
MODEL 5
REMARK VINA RESULT:      -7.7      2.231      2.677
REMARK  Name = C:\Users\Docking\Desktop\test protocol\1iep_ligandH.pdb
REMARK  8 active torsions:
REMARK  status: ('A' for Active; 'I' for Inactive)
REMARK    1  A    between atoms: _5  and  _11
REMARK    2  A    between atoms: _19  and  _21
REMARK    3  A    between atoms: _22  and  _66
REMARK    4  A    between atoms: _27  and  _30
REMARK    5  A    between atoms: _32  and  _33
REMARK    6  A    between atoms: _38  and  _43
REMARK    7  A    between atoms: _43  and  _46
REMARK    8  A    between atoms: _53  and  _55
REMARK                            x       y       z     vdW  Elec       q    Type
REMARK                         _______ _______ _______ _____ _____    ______ ____
ROOT
ATOM     10  C   UNL     1      18.957  39.055   0.274  0.00  0.00    +0.038 A 
ATOM     11  C   UNL     1      18.379  40.200  -0.332  0.00  0.00    +0.047 A 
ATOM     12  C   UNL     1      18.838  40.681  -1.625  0.00  0.00    +0.035 A 
ATOM     32  C   UNL     1      19.888  39.969  -2.276  0.00  0.00    +0.024 A 
ATOM     33  C   UNL     1      20.487  38.803  -1.675  0.00  0.00    +0.007 A 
ATOM     34  C   UNL     1      20.040  38.326  -0.398  0.00  0.00    -0.029 A 
ATOM     35  C   UNL     1      20.723  37.076   0.202  0.00  0.00    +0.045 C 
ENDROOT
BRANCH  10   9
ATOM      4  C   UNL     1      19.028  39.105   5.073  0.00  0.00    +0.077 A 
ATOM      5  C   UNL     1      20.133  40.020   5.106  0.00  0.00    +0.048 A 
ATOM      6  C   UNL     1      20.658  40.447   3.866  0.00  0.00    +0.116 A 
ATOM      7  N   UNL     1      20.111  39.989   2.687  0.00  0.00    -0.223 NA
ATOM      8  C   UNL     1      19.047  39.106   2.691  0.00  0.00    +0.220 A 
ATOM      9  N   UNL     1      18.476  38.638   1.517  0.00  0.00    -0.283 N 
ATOM     36  H   UNL     1      17.697  37.982   1.562  0.00  0.00    +0.155 HD
ATOM     37  N   UNL     1      18.528  38.681   3.861  0.00  0.00    -0.214 NA
BRANCH   4   3
ATOM      1  C   UNL     1      16.622  37.155   7.462  0.00  0.00    +0.020 A 
ATOM      2  C   UNL     1      17.229  37.648   6.247  0.00  0.00    +0.013 A 
ATOM      3  C   UNL     1      18.361  38.565   6.299  0.00  0.00    +0.019 A 
ATOM     38  C   UNL     1      18.858  38.967   7.607  0.00  0.00    +0.120 A 
ATOM     39  N   UNL     1      18.252  38.477   8.759  0.00  0.00    -0.263 NA
ATOM     40  C   UNL     1      17.162  37.595   8.722  0.00  0.00    +0.111 A 
ENDBRANCH   4   3
ENDBRANCH  10   9
BRANCH  12  13
ATOM     13  N   UNL     1      18.295  41.842  -2.285  0.00  0.00    -0.281 N 
ATOM     14  C   UNL     1      17.168  41.917  -3.087  0.00  0.00    +0.248 C 
ATOM     30  O   UNL     1      16.572  40.948  -3.534  0.00  0.00    -0.270 OA
ATOM     31  H   UNL     1      18.803  42.715  -2.144  0.00  0.00    +0.155 HD
BRANCH  14  15
ATOM     15  C   UNL     1      16.633  43.262  -3.457  0.00  0.00    +0.037 A 
ATOM     16  C   UNL     1      16.624  44.367  -2.495  0.00  0.00    +0.013 A 
ATOM     17  C   UNL     1      16.086  45.650  -2.872  0.00  0.00    +0.005 A 
ATOM     18  C   UNL     1      15.554  45.835  -4.220  0.00  0.00    -0.033 A 
ATOM     28  C   UNL     1      15.579  44.724  -5.156  0.00  0.00    +0.005 A 
ATOM     29  C   UNL     1      16.105  43.464  -4.789  0.00  0.00    +0.013 A 
BRANCH  18  19
ATOM     19  C   UNL     1      14.941  47.164  -4.702  0.00  0.00    +0.119 C 
BRANCH  19  20
ATOM     20  N   UNL     1      13.830  47.740  -3.887  0.00  0.00    -0.302 NA
ATOM     21  C   UNL     1      12.684  46.744  -3.692  0.00  0.00    +0.066 C 
ATOM     22  C   UNL     1      11.541  47.355  -2.819  0.00  0.00    -0.064 C 
ATOM     23  N   UNL     1      11.035  48.641  -3.474  0.00  0.00    +0.379 N 
ATOM     24  C   UNL     1       9.920  49.188  -2.686  0.00  0.00    -0.096 C 
ATOM     25  H   UNL     1      10.638  48.374  -4.481  0.00  0.00    -0.082 HD
ATOM     26  C   UNL     1      12.169  49.637  -3.674  0.00  0.00    -0.064 C 
ATOM     27  C   UNL     1      13.313  49.009  -4.519  0.00  0.00    +0.066 C 
ENDBRANCH  19  20
ENDBRANCH  18  19
ENDBRANCH  14  15
ENDBRANCH  12  13
TORSDOF 6
ENDMDL
