MODEL 1
REMARK VINA RESULT:      -9.5      0.000      0.000
REMARK  Name = C:\Users\Docking\Desktop\test protocol\1iep_ligandH.pdb
REMARK  8 active torsions:
REMARK  status: ('A' for Active; 'I' for Inactive)
REMARK    1  A    between atoms: _5  and  _11
REMARK    2  A    between atoms: _19  and  _21
REMARK    3  A    between atoms: _22  and  _66
REMARK    4  A    between atoms: _27  and  _30
REMARK    5  A    between atoms: _32  and  _33
REMARK    6  A    between atoms: _38  and  _43
REMARK    7  A    between atoms: _43  and  _46
REMARK    8  A    between atoms: _53  and  _55
REMARK                            x       y       z     vdW  Elec       q    Type
REMARK                         _______ _______ _______ _____ _____    ______ ____
ROOT
ATOM     10  C   UNL     1      61.518  35.353  27.972  0.00  0.00    +0.038 A 
ATOM     11  C   UNL     1      60.188  34.933  28.231  0.00  0.00    +0.047 A 
ATOM     12  C   UNL     1      59.070  35.455  27.460  0.00  0.00    +0.035 A 
ATOM     32  C   UNL     1      59.344  36.402  26.430  0.00  0.00    +0.024 A 
ATOM     33  C   UNL     1      60.689  36.841  26.155  0.00  0.00    +0.007 A 
ATOM     34  C   UNL     1      61.795  36.331  26.914  0.00  0.00    -0.029 A 
ATOM     35  C   UNL     1      63.216  36.842  26.579  0.00  0.00    +0.045 C 
ENDROOT
BRANCH  10   9
ATOM      4  C   UNL     1      64.346  35.363  31.850  0.00  0.00    +0.077 A 
ATOM      5  C   UNL     1      63.727  36.548  32.371  0.00  0.00    +0.048 A 
ATOM      6  C   UNL     1      62.689  37.127  31.607  0.00  0.00    +0.116 A 
ATOM      7  N   UNL     1      62.307  36.556  30.413  0.00  0.00    -0.223 NA
ATOM      8  C   UNL     1      62.926  35.415  29.938  0.00  0.00    +0.220 A 
ATOM      9  N   UNL     1      62.553  34.819  28.743  0.00  0.00    -0.283 N 
ATOM     36  H   UNL     1      63.039  33.982  28.424  0.00  0.00    +0.155 HD
ATOM     37  N   UNL     1      63.921  34.843  30.648  0.00  0.00    -0.214 NA
BRANCH   4   3
ATOM      1  C   UNL     1      67.123  32.749  32.719  0.00  0.00    +0.020 A 
ATOM      2  C   UNL     1      66.055  33.416  32.010  0.00  0.00    +0.013 A 
ATOM      3  C   UNL     1      65.454  34.632  32.543  0.00  0.00    +0.019 A 
ATOM     38  C   UNL     1      65.961  35.152  33.804  0.00  0.00    +0.120 A 
ATOM     39  N   UNL     1      66.989  34.488  34.465  0.00  0.00    -0.263 NA
ATOM     40  C   UNL     1      67.575  33.316  33.963  0.00  0.00    +0.111 A 
ENDBRANCH   4   3
ENDBRANCH  10   9
BRANCH  12  13
ATOM     13  N   UNL     1      57.698  35.071  27.682  0.00  0.00    -0.281 N 
ATOM     14  C   UNL     1      56.981  34.068  27.051  0.00  0.00    +0.248 C 
ATOM     30  O   UNL     1      57.350  33.486  26.042  0.00  0.00    -0.270 OA
ATOM     31  H   UNL     1      57.195  35.604  28.392  0.00  0.00    +0.155 HD
BRANCH  14  15
ATOM     15  C   UNL     1      55.657  33.664  27.613  0.00  0.00    +0.037 A 
ATOM     16  C   UNL     1      54.404  34.174  27.049  0.00  0.00    +0.013 A 
ATOM     17  C   UNL     1      53.141  33.782  27.621  0.00  0.00    +0.005 A 
ATOM     18  C   UNL     1      53.124  32.872  28.764  0.00  0.00    -0.033 A 
ATOM     28  C   UNL     1      54.381  32.378  29.301  0.00  0.00    +0.005 A 
ATOM     29  C   UNL     1      55.621  32.761  28.743  0.00  0.00    +0.013 A 
BRANCH  18  19
ATOM     19  C   UNL     1      51.823  32.417  29.452  0.00  0.00    +0.119 C 
BRANCH  19  20
ATOM     20  N   UNL     1      51.361  31.022  29.187  0.00  0.00    -0.302 NA
ATOM     21  C   UNL     1      51.242  30.732  27.688  0.00  0.00    +0.066 C 
ATOM     22  C   UNL     1      50.780  29.261  27.428  0.00  0.00    -0.064 C 
ATOM     23  N   UNL     1      49.445  29.016  28.136  0.00  0.00    +0.379 N 
ATOM     24  C   UNL     1      48.980  27.652  27.846  0.00  0.00    -0.096 C 
ATOM     25  H   UNL     1      48.701  29.726  27.707  0.00  0.00    -0.082 HD
ATOM     26  C   UNL     1      49.555  29.305  29.626  0.00  0.00    -0.064 C 
ATOM     27  C   UNL     1      50.043  30.760  29.872  0.00  0.00    +0.066 C 
ENDBRANCH  19  20
ENDBRANCH  18  19
ENDBRANCH  14  15
ENDBRANCH  12  13
TORSDOF 6
ENDMDL
MODEL 2
REMARK VINA RESULT:      -9.3      5.657     15.312
REMARK  Name = C:\Users\Docking\Desktop\test protocol\1iep_ligandH.pdb
REMARK  8 active torsions:
REMARK  status: ('A' for Active; 'I' for Inactive)
REMARK    1  A    between atoms: _5  and  _11
REMARK    2  A    between atoms: _19  and  _21
REMARK    3  A    between atoms: _22  and  _66
REMARK    4  A    between atoms: _27  and  _30
REMARK    5  A    between atoms: _32  and  _33
REMARK    6  A    between atoms: _38  and  _43
REMARK    7  A    between atoms: _43  and  _46
REMARK    8  A    between atoms: _53  and  _55
REMARK                            x       y       z     vdW  Elec       q    Type
REMARK                         _______ _______ _______ _____ _____    ______ ____
ROOT
ATOM     10  C   UNL     1      64.109  36.222  32.113  0.00  0.00    +0.038 A 
ATOM     11  C   UNL     1      65.263  35.414  31.949  0.00  0.00    +0.047 A 
ATOM     12  C   UNL     1      66.592  36.004  31.890  0.00  0.00    +0.035 A 
ATOM     32  C   UNL     1      66.708  37.420  32.004  0.00  0.00    +0.024 A 
ATOM     33  C   UNL     1      65.546  38.256  32.170  0.00  0.00    +0.007 A 
ATOM     34  C   UNL     1      64.232  37.680  32.226  0.00  0.00    -0.029 A 
ATOM     35  C   UNL     1      63.021  38.625  32.399  0.00  0.00    +0.045 C 
ENDROOT
BRANCH  10   9
ATOM      4  C   UNL     1      60.013  34.784  30.064  0.00  0.00    +0.077 A 
ATOM      5  C   UNL     1      60.386  35.336  28.793  0.00  0.00    +0.048 A 
ATOM      6  C   UNL     1      61.637  35.988  28.711  0.00  0.00    +0.116 A 
ATOM      7  N   UNL     1      62.447  36.075  29.823  0.00  0.00    -0.223 NA
ATOM      8  C   UNL     1      62.056  35.534  31.034  0.00  0.00    +0.220 A 
ATOM      9  N   UNL     1      62.858  35.603  32.162  0.00  0.00    -0.283 N 
ATOM     36  H   UNL     1      62.531  35.197  33.039  0.00  0.00    +0.155 HD
ATOM     37  N   UNL     1      60.866  34.907  31.139  0.00  0.00    -0.214 NA
BRANCH   4   3
ATOM      1  C   UNL     1      57.120  32.156  29.917  0.00  0.00    +0.020 A 
ATOM      2  C   UNL     1      58.377  32.813  29.644  0.00  0.00    +0.013 A 
ATOM      3  C   UNL     1      58.725  34.062  30.309  0.00  0.00    +0.019 A 
ATOM     38  C   UNL     1      57.771  34.624  31.253  0.00  0.00    +0.120 A 
ATOM     39  N   UNL     1      56.567  33.970  31.495  0.00  0.00    -0.263 NA
ATOM     40  C   UNL     1      56.221  32.768  30.859  0.00  0.00    +0.111 A 
ENDBRANCH   4   3
ENDBRANCH  10   9
BRANCH  12  13
ATOM     13  N   UNL     1      67.799  35.235  31.717  0.00  0.00    -0.281 N 
ATOM     14  C   UNL     1      68.321  34.721  30.541  0.00  0.00    +0.248 C 
ATOM     30  O   UNL     1      67.713  34.663  29.483  0.00  0.00    -0.270 OA
ATOM     31  H   UNL     1      68.335  35.046  32.565  0.00  0.00    +0.155 HD
BRANCH  14  15
ATOM     15  C   UNL     1      69.715  34.181  30.544  0.00  0.00    +0.037 A 
ATOM     16  C   UNL     1      70.864  35.047  30.821  0.00  0.00    +0.013 A 
ATOM     17  C   UNL     1      72.199  34.504  30.801  0.00  0.00    +0.005 A 
ATOM     18  C   UNL     1      72.392  33.086  30.504  0.00  0.00    -0.033 A 
ATOM     28  C   UNL     1      71.233  32.249  30.239  0.00  0.00    +0.005 A 
ATOM     29  C   UNL     1      69.923  32.778  30.256  0.00  0.00    +0.013 A 
BRANCH  18  19
ATOM     19  C   UNL     1      73.782  32.426  30.441  0.00  0.00    +0.119 C 
BRANCH  19  20
ATOM     20  N   UNL     1      74.956  33.324  30.229  0.00  0.00    -0.302 NA
ATOM     21  C   UNL     1      75.170  33.650  28.748  0.00  0.00    +0.066 C 
ATOM     22  C   UNL     1      76.389  34.608  28.547  0.00  0.00    -0.064 C 
ATOM     23  N   UNL     1      77.642  33.968  29.147  0.00  0.00    +0.379 N 
ATOM     24  C   UNL     1      78.801  34.841  28.908  0.00  0.00    -0.096 C 
ATOM     25  H   UNL     1      77.823  33.010  28.607  0.00  0.00    -0.082 HD
ATOM     26  C   UNL     1      77.437  33.638  30.618  0.00  0.00    -0.064 C 
ATOM     27  C   UNL     1      76.206  32.709  30.810  0.00  0.00    +0.066 C 
ENDBRANCH  19  20
ENDBRANCH  18  19
ENDBRANCH  14  15
ENDBRANCH  12  13
TORSDOF 6
ENDMDL
MODEL 3
REMARK VINA RESULT:      -9.1      7.709     16.374
REMARK  Name = C:\Users\Docking\Desktop\test protocol\1iep_ligandH.pdb
REMARK  8 active torsions:
REMARK  status: ('A' for Active; 'I' for Inactive)
REMARK    1  A    between atoms: _5  and  _11
REMARK    2  A    between atoms: _19  and  _21
REMARK    3  A    between atoms: _22  and  _66
REMARK    4  A    between atoms: _27  and  _30
REMARK    5  A    between atoms: _32  and  _33
REMARK    6  A    between atoms: _38  and  _43
REMARK    7  A    between atoms: _43  and  _46
REMARK    8  A    between atoms: _53  and  _55
REMARK                            x       y       z     vdW  Elec       q    Type
REMARK                         _______ _______ _______ _____ _____    ______ ____
ROOT
ATOM     10  C   UNL     1      65.210  35.002  30.353  0.00  0.00    +0.038 A 
ATOM     11  C   UNL     1      66.606  34.817  30.184  0.00  0.00    +0.047 A 
ATOM     12  C   UNL     1      67.495  34.712  31.330  0.00  0.00    +0.035 A 
ATOM     32  C   UNL     1      66.929  34.798  32.635  0.00  0.00    +0.024 A 
ATOM     33  C   UNL     1      65.512  34.987  32.825  0.00  0.00    +0.007 A 
ATOM     34  C   UNL     1      64.630  35.093  31.699  0.00  0.00    -0.029 A 
ATOM     35  C   UNL     1      63.121  35.302  31.963  0.00  0.00    +0.045 C 
ENDROOT
BRANCH  10   9
ATOM      4  C   UNL     1      62.856  37.546  27.032  0.00  0.00    +0.077 A 
ATOM      5  C   UNL     1      63.247  38.792  27.624  0.00  0.00    +0.048 A 
ATOM      6  C   UNL     1      64.048  38.735  28.787  0.00  0.00    +0.116 A 
ATOM      7  N   UNL     1      64.424  37.517  29.309  0.00  0.00    -0.223 NA
ATOM      8  C   UNL     1      64.029  36.333  28.714  0.00  0.00    +0.220 A 
ATOM      9  N   UNL     1      64.402  35.096  29.218  0.00  0.00    -0.283 N 
ATOM     36  H   UNL     1      64.083  34.246  28.754  0.00  0.00    +0.155 HD
ATOM     37  N   UNL     1      63.262  36.361  27.604  0.00  0.00    -0.214 NA
BRANCH   4   3
ATOM      1  C   UNL     1      60.908  36.127  23.951  0.00  0.00    +0.020 A 
ATOM      2  C   UNL     1      61.728  36.173  25.139  0.00  0.00    +0.013 A 
ATOM      3  C   UNL     1      62.013  37.441  25.799  0.00  0.00    +0.019 A 
ATOM     38  C   UNL     1      61.448  38.654  25.227  0.00  0.00    +0.120 A 
ATOM     39  N   UNL     1      60.662  38.579  24.081  0.00  0.00    -0.263 NA
ATOM     40  C   UNL     1      60.383  37.365  23.436  0.00  0.00    +0.111 A 
ENDBRANCH   4   3
ENDBRANCH  10   9
BRANCH  12  13
ATOM     13  N   UNL     1      68.922  34.532  31.219  0.00  0.00    -0.281 N 
ATOM     14  C   UNL     1      69.629  33.342  31.172  0.00  0.00    +0.248 C 
ATOM     30  O   UNL     1      69.155  32.246  31.433  0.00  0.00    -0.270 OA
ATOM     31  H   UNL     1      69.478  35.386  31.170  0.00  0.00    +0.155 HD
BRANCH  14  15
ATOM     15  C   UNL     1      71.074  33.375  30.793  0.00  0.00    +0.037 A 
ATOM     16  C   UNL     1      71.835  34.627  30.808  0.00  0.00    +0.013 A 
ATOM     17  C   UNL     1      73.224  34.634  30.422  0.00  0.00    +0.005 A 
ATOM     18  C   UNL     1      73.861  33.383  30.017  0.00  0.00    -0.033 A 
ATOM     28  C   UNL     1      73.084  32.154  30.016  0.00  0.00    +0.005 A 
ATOM     29  C   UNL     1      71.722  32.144  30.393  0.00  0.00    +0.013 A 
BRANCH  18  19
ATOM     19  C   UNL     1      75.332  33.300  29.569  0.00  0.00    +0.119 C 
BRANCH  19  20
ATOM     20  N   UNL     1      76.376  33.614  30.589  0.00  0.00    -0.302 NA
ATOM     21  C   UNL     1      77.527  34.434  30.000  0.00  0.00    +0.066 C 
ATOM     22  C   UNL     1      78.600  34.773  31.086  0.00  0.00    -0.064 C 
ATOM     23  N   UNL     1      79.121  33.476  31.706  0.00  0.00    +0.379 N 
ATOM     24  C   UNL     1      80.171  33.788  32.687  0.00  0.00    -0.096 C 
ATOM     25  H   UNL     1      79.587  32.875  30.891  0.00  0.00    -0.082 HD
ATOM     26  C   UNL     1      77.983  32.653  32.293  0.00  0.00    -0.064 C 
ATOM     27  C   UNL     1      76.908  32.347  31.212  0.00  0.00    +0.066 C 
ENDBRANCH  19  20
ENDBRANCH  18  19
ENDBRANCH  14  15
ENDBRANCH  12  13
TORSDOF 6
ENDMDL
MODEL 4
REMARK VINA RESULT:      -9.1      7.767     15.889
REMARK  Name = C:\Users\Docking\Desktop\test protocol\1iep_ligandH.pdb
REMARK  8 active torsions:
REMARK  status: ('A' for Active; 'I' for Inactive)
REMARK    1  A    between atoms: _5  and  _11
REMARK    2  A    between atoms: _19  and  _21
REMARK    3  A    between atoms: _22  and  _66
REMARK    4  A    between atoms: _27  and  _30
REMARK    5  A    between atoms: _32  and  _33
REMARK    6  A    between atoms: _38  and  _43
REMARK    7  A    between atoms: _43  and  _46
REMARK    8  A    between atoms: _53  and  _55
REMARK                            x       y       z     vdW  Elec       q    Type
REMARK                         _______ _______ _______ _____ _____    ______ ____
ROOT
ATOM     10  C   UNL     1      65.071  35.050  30.293  0.00  0.00    +0.038 A 
ATOM     11  C   UNL     1      66.469  34.859  30.148  0.00  0.00    +0.047 A 
ATOM     12  C   UNL     1      67.338  34.749  31.310  0.00  0.00    +0.035 A 
ATOM     32  C   UNL     1      66.749  34.834  32.605  0.00  0.00    +0.024 A 
ATOM     33  C   UNL     1      65.330  35.028  32.770  0.00  0.00    +0.007 A 
ATOM     34  C   UNL     1      64.468  35.140  31.628  0.00  0.00    -0.029 A 
ATOM     35  C   UNL     1      62.955  35.354  31.865  0.00  0.00    +0.045 C 
ENDROOT
BRANCH  10   9
ATOM      4  C   UNL     1      62.798  37.609  26.929  0.00  0.00    +0.077 A 
ATOM      5  C   UNL     1      63.189  38.853  27.527  0.00  0.00    +0.048 A 
ATOM      6  C   UNL     1      63.969  38.790  28.704  0.00  0.00    +0.116 A 
ATOM      7  N   UNL     1      64.325  37.569  29.233  0.00  0.00    -0.223 NA
ATOM      8  C   UNL     1      63.930  36.388  28.633  0.00  0.00    +0.220 A 
ATOM      9  N   UNL     1      64.284  35.149  29.144  0.00  0.00    -0.283 N 
ATOM     36  H   UNL     1      63.967  34.301  28.675  0.00  0.00    +0.155 HD
ATOM     37  N   UNL     1      63.184  36.421  27.509  0.00  0.00    -0.214 NA
BRANCH   4   3
ATOM      1  C   UNL     1      60.937  36.210  23.785  0.00  0.00    +0.020 A 
ATOM      2  C   UNL     1      61.739  36.251  24.987  0.00  0.00    +0.013 A 
ATOM      3  C   UNL     1      61.976  37.510  25.681  0.00  0.00    +0.019 A 
ATOM     38  C   UNL     1      61.382  38.719  25.131  0.00  0.00    +0.120 A 
ATOM     39  N   UNL     1      60.615  38.649  23.972  0.00  0.00    -0.263 NA
ATOM     40  C   UNL     1      60.382  37.444  23.294  0.00  0.00    +0.111 A 
ENDBRANCH   4   3
ENDBRANCH  10   9
BRANCH  12  13
ATOM     13  N   UNL     1      68.765  34.563  31.224  0.00  0.00    -0.281 N 
ATOM     14  C   UNL     1      69.467  33.370  31.171  0.00  0.00    +0.248 C 
ATOM     30  O   UNL     1      68.983  32.272  31.404  0.00  0.00    -0.270 OA
ATOM     31  H   UNL     1      69.327  35.414  31.201  0.00  0.00    +0.155 HD
BRANCH  14  15
ATOM     15  C   UNL     1      70.920  33.402  30.821  0.00  0.00    +0.037 A 
ATOM     16  C   UNL     1      71.623  32.193  30.382  0.00  0.00    +0.013 A 
ATOM     17  C   UNL     1      73.028  32.248  30.067  0.00  0.00    +0.005 A 
ATOM     18  C   UNL     1      73.741  33.518  30.189  0.00  0.00    -0.033 A 
ATOM     28  C   UNL     1      73.018  34.702  30.622  0.00  0.00    +0.005 A 
ATOM     29  C   UNL     1      71.640  34.652  30.933  0.00  0.00    +0.013 A 
BRANCH  18  19
ATOM     19  C   UNL     1      75.245  33.665  29.894  0.00  0.00    +0.119 C 
BRANCH  19  20
ATOM     20  N   UNL     1      75.631  34.416  28.663  0.00  0.00    -0.302 NA
ATOM     21  C   UNL     1      75.311  33.630  27.387  0.00  0.00    +0.066 C 
ATOM     22  C   UNL     1      75.700  34.440  26.108  0.00  0.00    -0.064 C 
ATOM     23  N   UNL     1      77.186  34.797  26.166  0.00  0.00    +0.379 N 
ATOM     24  C   UNL     1      77.568  35.509  24.937  0.00  0.00    -0.096 C 
ATOM     25  H   UNL     1      77.762  33.843  26.198  0.00  0.00    -0.082 HD
ATOM     26  C   UNL     1      77.513  35.576  27.432  0.00  0.00    -0.064 C 
ATOM     27  C   UNL     1      77.096  34.775  28.697  0.00  0.00    +0.066 C 
ENDBRANCH  19  20
ENDBRANCH  18  19
ENDBRANCH  14  15
ENDBRANCH  12  13
TORSDOF 6
ENDMDL
MODEL 5
REMARK VINA RESULT:      -9.0      6.847     15.629
REMARK  Name = C:\Users\Docking\Desktop\test protocol\1iep_ligandH.pdb
REMARK  8 active torsions:
REMARK  status: ('A' for Active; 'I' for Inactive)
REMARK    1  A    between atoms: _5  and  _11
REMARK    2  A    between atoms: _19  and  _21
REMARK    3  A    between atoms: _22  and  _66
REMARK    4  A    between atoms: _27  and  _30
REMARK    5  A    between atoms: _32  and  _33
REMARK    6  A    between atoms: _38  and  _43
REMARK    7  A    between atoms: _43  and  _46
REMARK    8  A    between atoms: _53  and  _55
REMARK                            x       y       z     vdW  Elec       q    Type
REMARK                         _______ _______ _______ _____ _____    ______ ____
ROOT
ATOM     10  C   UNL     1      64.834  37.107  30.318  0.00  0.00    +0.038 A 
ATOM     11  C   UNL     1      66.113  36.497  30.249  0.00  0.00    +0.047 A 
ATOM     12  C   UNL     1      66.837  36.129  31.456  0.00  0.00    +0.035 A 
ATOM     32  C   UNL     1      66.228  36.395  32.717  0.00  0.00    +0.024 A 
ATOM     33  C   UNL     1      64.930  37.016  32.805  0.00  0.00    +0.007 A 
ATOM     34  C   UNL     1      64.212  37.383  31.619  0.00  0.00    -0.029 A 
ATOM     35  C   UNL     1      62.826  38.052  31.774  0.00  0.00    +0.045 C 
ENDROOT
BRANCH  10   9
ATOM      4  C   UNL     1      61.577  36.259  26.896  0.00  0.00    +0.077 A 
ATOM      5  C   UNL     1      61.155  35.037  27.518  0.00  0.00    +0.048 A 
ATOM      6  C   UNL     1      61.807  34.659  28.714  0.00  0.00    +0.116 A 
ATOM      7  N   UNL     1      62.804  35.451  29.239  0.00  0.00    -0.223 NA
ATOM      8  C   UNL     1      63.188  36.623  28.613  0.00  0.00    +0.220 A 
ATOM      9  N   UNL     1      64.183  37.439  29.128  0.00  0.00    -0.283 N 
ATOM     36  H   UNL     1      64.443  38.292  28.632  0.00  0.00    +0.155 HD
ATOM     37  N   UNL     1      62.582  37.005  27.470  0.00  0.00    -0.214 NA
BRANCH   4   3
ATOM      1  C   UNL     1      61.002  37.172  23.137  0.00  0.00    +0.020 A 
ATOM      2  C   UNL     1      61.618  36.637  24.329  0.00  0.00    +0.013 A 
ATOM      3  C   UNL     1      60.983  36.794  25.631  0.00  0.00    +0.019 A 
ATOM     38  C   UNL     1      59.714  37.503  25.693  0.00  0.00    +0.120 A 
ATOM     39  N   UNL     1      59.144  38.010  24.529  0.00  0.00    -0.263 NA
ATOM     40  C   UNL     1      59.747  37.866  23.270  0.00  0.00    +0.111 A 
ENDBRANCH   4   3
ENDBRANCH  10   9
BRANCH  12  13
ATOM     13  N   UNL     1      68.141  35.514  31.448  0.00  0.00    -0.281 N 
ATOM     14  C   UNL     1      68.481  34.243  31.016  0.00  0.00    +0.248 C 
ATOM     30  O   UNL     1      67.674  33.359  30.767  0.00  0.00    -0.270 OA
ATOM     31  H   UNL     1      68.907  36.086  31.804  0.00  0.00    +0.155 HD
BRANCH  14  15
ATOM     15  C   UNL     1      69.926  33.898  30.849  0.00  0.00    +0.037 A 
ATOM     16  C   UNL     1      70.970  34.917  30.982  0.00  0.00    +0.013 A 
ATOM     17  C   UNL     1      72.355  34.561  30.800  0.00  0.00    +0.005 A 
ATOM     18  C   UNL     1      72.703  33.178  30.485  0.00  0.00    -0.033 A 
ATOM     28  C   UNL     1      71.648  32.186  30.364  0.00  0.00    +0.005 A 
ATOM     29  C   UNL     1      70.289  32.532  30.541  0.00  0.00    +0.013 A 
BRANCH  18  19
ATOM     19  C   UNL     1      74.153  32.713  30.253  0.00  0.00    +0.119 C 
BRANCH  19  20
ATOM     20  N   UNL     1      75.104  33.704  29.667  0.00  0.00    -0.302 NA
ATOM     21  C   UNL     1      75.263  33.524  28.155  0.00  0.00    +0.066 C 
ATOM     22  C   UNL     1      76.243  34.583  27.555  0.00  0.00    -0.064 C 
ATOM     23  N   UNL     1      77.598  34.477  28.258  0.00  0.00    +0.379 N 
ATOM     24  C   UNL     1      78.539  35.432  27.656  0.00  0.00    -0.096 C 
ATOM     25  H   UNL     1      77.994  33.451  28.075  0.00  0.00    -0.082 HD
ATOM     26  C   UNL     1      77.449  34.653  29.762  0.00  0.00    -0.064 C 
ATOM     27  C   UNL     1      76.450  33.614  30.344  0.00  0.00    +0.066 C 
ENDBRANCH  19  20
ENDBRANCH  18  19
ENDBRANCH  14  15
ENDBRANCH  12  13
TORSDOF 6
ENDMDL
