MODEL 1
REMARK VINA RESULT:      -8.2      0.000      0.000
REMARK  Name = C:\Users\Docking\Desktop\test protocol\1iep_ligandH.pdb
REMARK  8 active torsions:
REMARK  status: ('A' for Active; 'I' for Inactive)
REMARK    1  A    between atoms: _5  and  _11
REMARK    2  A    between atoms: _19  and  _21
REMARK    3  A    between atoms: _22  and  _66
REMARK    4  A    between atoms: _27  and  _30
REMARK    5  A    between atoms: _32  and  _33
REMARK    6  A    between atoms: _38  and  _43
REMARK    7  A    between atoms: _43  and  _46
REMARK    8  A    between atoms: _53  and  _55
REMARK                            x       y       z     vdW  Elec       q    Type
REMARK                         _______ _______ _______ _____ _____    ______ ____
ROOT
ATOM     10  C   UNL     1      57.151  70.926 104.951  0.00  0.00    +0.038 A 
ATOM     11  C   UNL     1      58.071  70.523 103.950  0.00  0.00    +0.047 A 
ATOM     12  C   UNL     1      57.612  69.975 102.683  0.00  0.00    +0.035 A 
ATOM     32  C   UNL     1      56.208  69.855 102.468  0.00  0.00    +0.024 A 
ATOM     33  C   UNL     1      55.259  70.258 103.475  0.00  0.00    +0.007 A 
ATOM     34  C   UNL     1      55.706  70.797 104.728  0.00  0.00    -0.029 A 
ATOM     35  C   UNL     1      54.643  71.207 105.774  0.00  0.00    +0.045 C 
ENDROOT
BRANCH  10   9
ATOM      4  C   UNL     1      58.714  70.415 109.460  0.00  0.00    +0.077 A 
ATOM      5  C   UNL     1      58.500  68.997 109.436  0.00  0.00    +0.048 A 
ATOM      6  C   UNL     1      57.979  68.439 108.247  0.00  0.00    +0.116 A 
ATOM      7  N   UNL     1      57.698  69.249 107.168  0.00  0.00    -0.223 NA
ATOM      8  C   UNL     1      57.915  70.613 107.225  0.00  0.00    +0.220 A 
ATOM      9  N   UNL     1      57.646  71.445 106.149  0.00  0.00    -0.283 N 
ATOM     36  H   UNL     1      57.813  72.448 106.233  0.00  0.00    +0.155 HD
ATOM     37  N   UNL     1      58.410  71.170 108.350  0.00  0.00    -0.214 NA
BRANCH   4   3
ATOM      1  C   UNL     1      59.660  73.254 111.979  0.00  0.00    +0.020 A 
ATOM      2  C   UNL     1      59.113  72.591 110.818  0.00  0.00    +0.013 A 
ATOM      3  C   UNL     1      59.262  71.152 110.643  0.00  0.00    +0.019 A 
ATOM     38  C   UNL     1      59.975  70.407 111.669  0.00  0.00    +0.120 A 
ATOM     39  N   UNL     1      60.493  71.072 112.776  0.00  0.00    -0.263 NA
ATOM     40  C   UNL     1      60.357  72.457 112.954  0.00  0.00    +0.111 A 
ENDBRANCH   4   3
ENDBRANCH  10   9
BRANCH  12  13
ATOM     13  N   UNL     1      58.499  69.542 101.632  0.00  0.00    -0.281 N 
ATOM     14  C   UNL     1      58.687  68.256 101.152  0.00  0.00    +0.248 C 
ATOM     30  O   UNL     1      58.274  67.246 101.703  0.00  0.00    -0.270 OA
ATOM     31  H   UNL     1      59.056  70.272 101.188  0.00  0.00    +0.155 HD
BRANCH  14  15
ATOM     15  C   UNL     1      59.457  68.063  99.886  0.00  0.00    +0.037 A 
ATOM     16  C   UNL     1      60.789  68.648  99.710  0.00  0.00    +0.013 A 
ATOM     17  C   UNL     1      61.503  68.460  98.472  0.00  0.00    +0.005 A 
ATOM     18  C   UNL     1      60.887  67.682  97.400  0.00  0.00    -0.033 A 
ATOM     28  C   UNL     1      59.567  67.109  97.604  0.00  0.00    +0.005 A 
ATOM     29  C   UNL     1      58.863  67.291  98.815  0.00  0.00    +0.013 A 
BRANCH  18  19
ATOM     19  C   UNL     1      61.567  67.449  96.038  0.00  0.00    +0.119 C 
BRANCH  19  20
ATOM     20  N   UNL     1      61.992  66.054  95.716  0.00  0.00    -0.302 NA
ATOM     21  C   UNL     1      63.393  65.743  96.249  0.00  0.00    +0.066 C 
ATOM     22  C   UNL     1      63.813  64.273  95.923  0.00  0.00    -0.064 C 
ATOM     23  N   UNL     1      63.746  64.050  94.411  0.00  0.00    +0.379 N 
ATOM     24  C   UNL     1      64.196  62.686  94.096  0.00  0.00    -0.096 C 
ATOM     25  H   UNL     1      64.460  64.760  93.933  0.00  0.00    -0.082 HD
ATOM     26  C   UNL     1      62.357  64.360  93.872  0.00  0.00    -0.064 C 
ATOM     27  C   UNL     1      61.938  65.814  94.227  0.00  0.00    +0.066 C 
ENDBRANCH  19  20
ENDBRANCH  18  19
ENDBRANCH  14  15
ENDBRANCH  12  13
TORSDOF 6
ENDMDL
MODEL 2
REMARK VINA RESULT:      -7.6      3.588      4.940
REMARK  Name = C:\Users\Docking\Desktop\test protocol\1iep_ligandH.pdb
REMARK  8 active torsions:
REMARK  status: ('A' for Active; 'I' for Inactive)
REMARK    1  A    between atoms: _5  and  _11
REMARK    2  A    between atoms: _19  and  _21
REMARK    3  A    between atoms: _22  and  _66
REMARK    4  A    between atoms: _27  and  _30
REMARK    5  A    between atoms: _32  and  _33
REMARK    6  A    between atoms: _38  and  _43
REMARK    7  A    between atoms: _43  and  _46
REMARK    8  A    between atoms: _53  and  _55
REMARK                            x       y       z     vdW  Elec       q    Type
REMARK                         _______ _______ _______ _____ _____    ______ ____
ROOT
ATOM     10  C   UNL     1      57.545  71.496 106.416  0.00  0.00    +0.038 A 
ATOM     11  C   UNL     1      58.055  71.055 105.168  0.00  0.00    +0.047 A 
ATOM     12  C   UNL     1      58.445  69.669 104.963  0.00  0.00    +0.035 A 
ATOM     32  C   UNL     1      58.300  68.758 106.050  0.00  0.00    +0.024 A 
ATOM     33  C   UNL     1      57.783  69.190 107.325  0.00  0.00    +0.007 A 
ATOM     34  C   UNL     1      57.399  70.556 107.534  0.00  0.00    -0.029 A 
ATOM     35  C   UNL     1      56.858  70.965 108.924  0.00  0.00    +0.045 C 
ENDROOT
BRANCH  10   9
ATOM      4  C   UNL     1      58.548  76.048 107.560  0.00  0.00    +0.077 A 
ATOM      5  C   UNL     1      59.894  75.720 107.932  0.00  0.00    +0.048 A 
ATOM      6  C   UNL     1      60.287  74.367 107.821  0.00  0.00    +0.116 A 
ATOM      7  N   UNL     1      59.392  73.422 107.370  0.00  0.00    -0.223 NA
ATOM      8  C   UNL     1      58.100  73.772 107.021  0.00  0.00    +0.220 A 
ATOM      9  N   UNL     1      57.185  72.839 106.558  0.00  0.00    -0.283 N 
ATOM     36  H   UNL     1      56.240  73.135 106.317  0.00  0.00    +0.155 HD
ATOM     37  N   UNL     1      57.701  75.057 107.119  0.00  0.00    -0.214 NA
BRANCH   4   3
ATOM      1  C   UNL     1      57.310  79.522 108.863  0.00  0.00    +0.020 A 
ATOM      2  C   UNL     1      57.859  78.186 108.861  0.00  0.00    +0.013 A 
ATOM      3  C   UNL     1      57.986  77.435 107.618  0.00  0.00    +0.019 A 
ATOM     38  C   UNL     1      57.544  78.069 106.386  0.00  0.00    +0.120 A 
ATOM     39  N   UNL     1      57.017  79.356 106.418  0.00  0.00    -0.263 NA
ATOM     40  C   UNL     1      56.889  80.089 107.608  0.00  0.00    +0.111 A 
ENDBRANCH   4   3
ENDBRANCH  10   9
BRANCH  12  13
ATOM     13  N   UNL     1      58.978  69.165 103.721  0.00  0.00    -0.281 N 
ATOM     14  C   UNL     1      58.280  68.798 102.582  0.00  0.00    +0.248 C 
ATOM     30  O   UNL     1      57.068  68.646 102.533  0.00  0.00    -0.270 OA
ATOM     31  H   UNL     1      59.992  69.066 103.677  0.00  0.00    +0.155 HD
BRANCH  14  15
ATOM     15  C   UNL     1      59.039  68.550 101.319  0.00  0.00    +0.037 A 
ATOM     16  C   UNL     1      58.476  67.733 100.241  0.00  0.00    +0.013 A 
ATOM     17  C   UNL     1      59.236  67.496  99.040  0.00  0.00    +0.005 A 
ATOM     18  C   UNL     1      60.569  68.079  98.910  0.00  0.00    -0.033 A 
ATOM     28  C   UNL     1      61.102  68.890  99.992  0.00  0.00    +0.005 A 
ATOM     29  C   UNL     1      60.360  69.124 101.171  0.00  0.00    +0.013 A 
BRANCH  18  19
ATOM     19  C   UNL     1      61.460  67.862  97.672  0.00  0.00    +0.119 C 
BRANCH  19  20
ATOM     20  N   UNL     1      60.814  67.995  96.332  0.00  0.00    -0.302 NA
ATOM     21  C   UNL     1      60.459  66.634  95.728  0.00  0.00    +0.066 C 
ATOM     22  C   UNL     1      59.763  66.793  94.337  0.00  0.00    -0.064 C 
ATOM     23  N   UNL     1      60.680  67.579  93.398  0.00  0.00    +0.379 N 
ATOM     24  C   UNL     1      60.054  67.680  92.072  0.00  0.00    -0.096 C 
ATOM     25  H   UNL     1      61.624  66.998  93.283  0.00  0.00    -0.082 HD
ATOM     26  C   UNL     1      61.040  68.933  93.993  0.00  0.00    -0.064 C 
ATOM     27  C   UNL     1      61.704  68.765  95.388  0.00  0.00    +0.066 C 
ENDBRANCH  19  20
ENDBRANCH  18  19
ENDBRANCH  14  15
ENDBRANCH  12  13
TORSDOF 6
ENDMDL
MODEL 3
REMARK VINA RESULT:      -7.6     24.420     27.750
REMARK  Name = C:\Users\Docking\Desktop\test protocol\1iep_ligandH.pdb
REMARK  8 active torsions:
REMARK  status: ('A' for Active; 'I' for Inactive)
REMARK    1  A    between atoms: _5  and  _11
REMARK    2  A    between atoms: _19  and  _21
REMARK    3  A    between atoms: _22  and  _66
REMARK    4  A    between atoms: _27  and  _30
REMARK    5  A    between atoms: _32  and  _33
REMARK    6  A    between atoms: _38  and  _43
REMARK    7  A    between atoms: _43  and  _46
REMARK    8  A    between atoms: _53  and  _55
REMARK                            x       y       z     vdW  Elec       q    Type
REMARK                         _______ _______ _______ _____ _____    ______ ____
ROOT
ATOM     10  C   UNL     1      52.844  47.061  99.057  0.00  0.00    +0.038 A 
ATOM     11  C   UNL     1      52.127  45.864  98.803  0.00  0.00    +0.047 A 
ATOM     12  C   UNL     1      51.365  45.688  97.576  0.00  0.00    +0.035 A 
ATOM     32  C   UNL     1      51.359  46.752  96.627  0.00  0.00    +0.024 A 
ATOM     33  C   UNL     1      52.081  47.976  96.869  0.00  0.00    +0.007 A 
ATOM     34  C   UNL     1      52.832  48.156  98.079  0.00  0.00    -0.029 A 
ATOM     35  C   UNL     1      53.582  49.491  98.289  0.00  0.00    +0.045 C 
ENDROOT
BRANCH  10   9
ATOM      4  C   UNL     1      56.712  46.227 101.773  0.00  0.00    +0.077 A 
ATOM      5  C   UNL     1      57.354  45.477 100.732  0.00  0.00    +0.048 A 
ATOM      6  C   UNL     1      56.652  45.322  99.516  0.00  0.00    +0.116 A 
ATOM      7  N   UNL     1      55.402  45.881  99.363  0.00  0.00    -0.223 NA
ATOM      8  C   UNL     1      54.811  46.598 100.387  0.00  0.00    +0.220 A 
ATOM      9  N   UNL     1      53.558  47.175 100.252  0.00  0.00    -0.283 N 
ATOM     36  H   UNL     1      53.153  47.690 101.034  0.00  0.00    +0.155 HD
ATOM     37  N   UNL     1      55.460  46.758 101.559  0.00  0.00    -0.214 NA
BRANCH   4   3
ATOM      1  C   UNL     1      57.579  47.808 105.244  0.00  0.00    +0.020 A 
ATOM      2  C   UNL     1      56.954  47.609 103.957  0.00  0.00    +0.013 A 
ATOM      3  C   UNL     1      57.328  46.480 103.114  0.00  0.00    +0.019 A 
ATOM     38  C   UNL     1      58.345  45.564 103.607  0.00  0.00    +0.120 A 
ATOM     39  N   UNL     1      58.931  45.782 104.850  0.00  0.00    -0.263 NA
ATOM     40  C   UNL     1      58.580  46.865 105.669  0.00  0.00    +0.111 A 
ENDBRANCH   4   3
ENDBRANCH  10   9
BRANCH  12  13
ATOM     13  N   UNL     1      50.612  44.498  97.267  0.00  0.00    -0.281 N 
ATOM     14  C   UNL     1      51.083  43.301  96.753  0.00  0.00    +0.248 C 
ATOM     30  O   UNL     1      52.198  43.144  96.279  0.00  0.00    -0.270 OA
ATOM     31  H   UNL     1      49.609  44.544  97.450  0.00  0.00    +0.155 HD
BRANCH  14  15
ATOM     15  C   UNL     1      50.179  42.110  96.754  0.00  0.00    +0.037 A 
ATOM     16  C   UNL     1      48.851  42.163  96.137  0.00  0.00    +0.013 A 
ATOM     17  C   UNL     1      47.994  41.005  96.167  0.00  0.00    +0.005 A 
ATOM     18  C   UNL     1      48.463  39.783  96.815  0.00  0.00    -0.033 A 
ATOM     28  C   UNL     1      49.787  39.756  97.414  0.00  0.00    +0.005 A 
ATOM     29  C   UNL     1      50.630  40.889  97.388  0.00  0.00    +0.013 A 
BRANCH  18  19
ATOM     19  C   UNL     1      47.607  38.506  96.912  0.00  0.00    +0.119 C 
BRANCH  19  20
ATOM     20  N   UNL     1      47.758  37.673  98.142  0.00  0.00    -0.302 NA
ATOM     21  C   UNL     1      47.709  36.174  97.831  0.00  0.00    +0.066 C 
ATOM     22  C   UNL     1      47.892  35.318  99.126  0.00  0.00    -0.064 C 
ATOM     23  N   UNL     1      46.812  35.695 100.140  0.00  0.00    +0.379 N 
ATOM     24  C   UNL     1      46.946  34.851 101.337  0.00  0.00    -0.096 C 
ATOM     25  H   UNL     1      45.822  35.474  99.678  0.00  0.00    -0.082 HD
ATOM     26  C   UNL     1      46.852  37.184 100.454  0.00  0.00    -0.064 C 
ATOM     27  C   UNL     1      46.699  38.027  99.156  0.00  0.00    +0.066 C 
ENDBRANCH  19  20
ENDBRANCH  18  19
ENDBRANCH  14  15
ENDBRANCH  12  13
TORSDOF 6
ENDMDL
MODEL 4
REMARK VINA RESULT:      -7.5     39.855     43.395
REMARK  Name = C:\Users\Docking\Desktop\test protocol\1iep_ligandH.pdb
REMARK  8 active torsions:
REMARK  status: ('A' for Active; 'I' for Inactive)
REMARK    1  A    between atoms: _5  and  _11
REMARK    2  A    between atoms: _19  and  _21
REMARK    3  A    between atoms: _22  and  _66
REMARK    4  A    between atoms: _27  and  _30
REMARK    5  A    between atoms: _32  and  _33
REMARK    6  A    between atoms: _38  and  _43
REMARK    7  A    between atoms: _43  and  _46
REMARK    8  A    between atoms: _53  and  _55
REMARK                            x       y       z     vdW  Elec       q    Type
REMARK                         _______ _______ _______ _____ _____    ______ ____
ROOT
ATOM     10  C   UNL     1      28.267  42.780 102.948  0.00  0.00    +0.038 A 
ATOM     11  C   UNL     1      27.233  43.746 103.054  0.00  0.00    +0.047 A 
ATOM     12  C   UNL     1      26.845  44.295 104.344  0.00  0.00    +0.035 A 
ATOM     32  C   UNL     1      27.534  43.839 105.506  0.00  0.00    +0.024 A 
ATOM     33  C   UNL     1      28.586  42.857 105.417  0.00  0.00    +0.007 A 
ATOM     34  C   UNL     1      28.971  42.310 104.148  0.00  0.00    -0.029 A 
ATOM     35  C   UNL     1      30.101  41.256 104.112  0.00  0.00    +0.045 C 
ENDROOT
BRANCH  10   9
ATOM      4  C   UNL     1      27.598  39.769  99.271  0.00  0.00    +0.077 A 
ATOM      5  C   UNL     1      26.514  39.104  99.935  0.00  0.00    +0.048 A 
ATOM      6  C   UNL     1      26.164  39.563 101.225  0.00  0.00    +0.116 A 
ATOM      7  N   UNL     1      26.854  40.610 101.798  0.00  0.00    -0.223 NA
ATOM      8  C   UNL     1      27.896  41.227 101.130  0.00  0.00    +0.220 A 
ATOM      9  N   UNL     1      28.598  42.287 101.684  0.00  0.00    -0.283 N 
ATOM     36  H   UNL     1      29.365  42.711 101.163  0.00  0.00    +0.155 HD
ATOM     37  N   UNL     1      28.250  40.807  99.898  0.00  0.00    -0.214 NA
BRANCH   4   3
ATOM      1  C   UNL     1      28.028  39.581  95.387  0.00  0.00    +0.020 A 
ATOM      2  C   UNL     1      27.522  39.970  96.684  0.00  0.00    +0.013 A 
ATOM      3  C   UNL     1      28.083  39.401  97.903  0.00  0.00    +0.019 A 
ATOM     38  C   UNL     1      29.164  38.435  97.774  0.00  0.00    +0.120 A 
ATOM     39  N   UNL     1      29.629  38.078  96.512  0.00  0.00    -0.263 NA
ATOM     40  C   UNL     1      29.095  38.618  95.332  0.00  0.00    +0.111 A 
ENDBRANCH   4   3
ENDBRANCH  10   9
BRANCH  12  13
ATOM     13  N   UNL     1      25.798  45.271 104.514  0.00  0.00    -0.281 N 
ATOM     14  C   UNL     1      24.544  45.087 105.072  0.00  0.00    +0.248 C 
ATOM     30  O   UNL     1      24.050  43.996 105.317  0.00  0.00    -0.270 OA
ATOM     31  H   UNL     1      26.008  46.213 104.183  0.00  0.00    +0.155 HD
BRANCH  14  15
ATOM     15  C   UNL     1      23.712  46.287 105.391  0.00  0.00    +0.037 A 
ATOM     16  C   UNL     1      23.120  46.470 106.718  0.00  0.00    +0.013 A 
ATOM     17  C   UNL     1      22.307  47.628 106.994  0.00  0.00    +0.005 A 
ATOM     18  C   UNL     1      22.083  48.613 105.938  0.00  0.00    -0.033 A 
ATOM     28  C   UNL     1      22.686  48.409 104.632  0.00  0.00    +0.005 A 
ATOM     29  C   UNL     1      23.483  47.275 104.358  0.00  0.00    +0.013 A 
BRANCH  18  19
ATOM     19  C   UNL     1      21.212  49.868 106.137  0.00  0.00    +0.119 C 
BRANCH  19  20
ATOM     20  N   UNL     1      21.830  51.188 105.810  0.00  0.00    -0.302 NA
ATOM     21  C   UNL     1      22.544  51.803 107.017  0.00  0.00    +0.066 C 
ATOM     22  C   UNL     1      23.204  53.172 106.651  0.00  0.00    -0.064 C 
ATOM     23  N   UNL     1      22.133  54.123 106.112  0.00  0.00    +0.379 N 
ATOM     24  C   UNL     1      22.740  55.431 105.822  0.00  0.00    -0.096 C 
ATOM     25  H   UNL     1      21.378  54.272 106.918  0.00  0.00    -0.082 HD
ATOM     26  C   UNL     1      21.416  53.518 104.914  0.00  0.00    -0.064 C 
ATOM     27  C   UNL     1      20.789  52.144 105.280  0.00  0.00    +0.066 C 
ENDBRANCH  19  20
ENDBRANCH  18  19
ENDBRANCH  14  15
ENDBRANCH  12  13
TORSDOF 6
ENDMDL
MODEL 5
REMARK VINA RESULT:      -7.5     15.080     19.980
REMARK  Name = C:\Users\Docking\Desktop\test protocol\1iep_ligandH.pdb
REMARK  8 active torsions:
REMARK  status: ('A' for Active; 'I' for Inactive)
REMARK    1  A    between atoms: _5  and  _11
REMARK    2  A    between atoms: _19  and  _21
REMARK    3  A    between atoms: _22  and  _66
REMARK    4  A    between atoms: _27  and  _30
REMARK    5  A    between atoms: _32  and  _33
REMARK    6  A    between atoms: _38  and  _43
REMARK    7  A    between atoms: _43  and  _46
REMARK    8  A    between atoms: _53  and  _55
REMARK                            x       y       z     vdW  Elec       q    Type
REMARK                         _______ _______ _______ _____ _____    ______ ____
ROOT
ATOM     10  C   UNL     1      44.506  68.610 118.686  0.00  0.00    +0.038 A 
ATOM     11  C   UNL     1      45.863  68.427 118.318  0.00  0.00    +0.047 A 
ATOM     12  C   UNL     1      46.568  67.195 118.635  0.00  0.00    +0.035 A 
ATOM     32  C   UNL     1      45.860  66.168 119.325  0.00  0.00    +0.024 A 
ATOM     33  C   UNL     1      44.480  66.339 119.707  0.00  0.00    +0.007 A 
ATOM     34  C   UNL     1      43.780  67.553 119.400  0.00  0.00    -0.029 A 
ATOM     35  C   UNL     1      42.303  67.683 119.840  0.00  0.00    +0.045 C 
ENDROOT
BRANCH  10   9
ATOM      4  C   UNL     1      42.148  71.454 115.621  0.00  0.00    +0.077 A 
ATOM      5  C   UNL     1      42.196  70.470 114.579  0.00  0.00    +0.048 A 
ATOM      6  C   UNL     1      42.843  69.248 114.870  0.00  0.00    +0.116 A 
ATOM      7  N   UNL     1      43.396  69.036 116.114  0.00  0.00    -0.223 NA
ATOM      8  C   UNL     1      43.334  70.008 117.096  0.00  0.00    +0.220 A 
ATOM      9  N   UNL     1      43.877  69.813 118.357  0.00  0.00    -0.283 N 
ATOM     36  H   UNL     1      43.817  70.557 119.052  0.00  0.00    +0.155 HD
ATOM     37  N   UNL     1      42.724  71.184 116.843  0.00  0.00    -0.214 NA
BRANCH   4   3
ATOM      1  C   UNL     1      39.478  74.306 115.416  0.00  0.00    +0.020 A 
ATOM      2  C   UNL     1      40.057  72.991 115.571  0.00  0.00    +0.013 A 
ATOM      3  C   UNL     1      41.497  72.794 115.469  0.00  0.00    +0.019 A 
ATOM     38  C   UNL     1      42.331  73.957 115.207  0.00  0.00    +0.120 A 
ATOM     39  N   UNL     1      41.746  75.211 115.061  0.00  0.00    -0.263 NA
ATOM     40  C   UNL     1      40.361  75.413 115.155  0.00  0.00    +0.111 A 
ENDBRANCH   4   3
ENDBRANCH  10   9
BRANCH  12  13
ATOM     13  N   UNL     1      47.949  66.955 118.293  0.00  0.00    -0.281 N 
ATOM     14  C   UNL     1      48.449  66.130 117.299  0.00  0.00    +0.248 C 
ATOM     30  O   UNL     1      47.787  65.304 116.688  0.00  0.00    -0.270 OA
ATOM     31  H   UNL     1      48.641  67.453 118.853  0.00  0.00    +0.155 HD
BRANCH  14  15
ATOM     15  C   UNL     1      49.897  66.226 116.943  0.00  0.00    +0.037 A 
ATOM     16  C   UNL     1      50.344  66.143 115.550  0.00  0.00    +0.013 A 
ATOM     17  C   UNL     1      51.748  66.222 115.235  0.00  0.00    +0.005 A 
ATOM     18  C   UNL     1      52.717  66.386 116.316  0.00  0.00    -0.033 A 
ATOM     28  C   UNL     1      52.246  66.470 117.688  0.00  0.00    +0.005 A 
ATOM     29  C   UNL     1      50.870  66.393 118.001  0.00  0.00    +0.013 A 
BRANCH  18  19
ATOM     19  C   UNL     1      54.236  66.458 116.074  0.00  0.00    +0.119 C 
BRANCH  19  20
ATOM     20  N   UNL     1      54.932  67.720 116.464  0.00  0.00    -0.302 NA
ATOM     21  C   UNL     1      54.353  68.941 115.744  0.00  0.00    +0.066 C 
ATOM     22  C   UNL     1      55.077  70.256 116.181  0.00  0.00    -0.064 C 
ATOM     23  N   UNL     1      56.576  70.126 115.906  0.00  0.00    +0.379 N 
ATOM     24  C   UNL     1      57.251  71.382 116.262  0.00  0.00    -0.096 C 
ATOM     25  H   UNL     1      56.706  69.970 114.810  0.00  0.00    -0.082 HD
ATOM     26  C   UNL     1      57.159  68.912 116.616  0.00  0.00    -0.064 C 
ATOM     27  C   UNL     1      56.413  67.615 116.197  0.00  0.00    +0.066 C 
ENDBRANCH  19  20
ENDBRANCH  18  19
ENDBRANCH  14  15
ENDBRANCH  12  13
TORSDOF 6
ENDMDL
