MODEL 1
REMARK VINA RESULT:      -8.7      0.000      0.000
REMARK  Name = C:\Users\Docking\Desktop\test protocol\1iep_ligandH.pdb
REMARK  8 active torsions:
REMARK  status: ('A' for Active; 'I' for Inactive)
REMARK    1  A    between atoms: _5  and  _11
REMARK    2  A    between atoms: _19  and  _21
REMARK    3  A    between atoms: _22  and  _66
REMARK    4  A    between atoms: _27  and  _30
REMARK    5  A    between atoms: _32  and  _33
REMARK    6  A    between atoms: _38  and  _43
REMARK    7  A    between atoms: _43  and  _46
REMARK    8  A    between atoms: _53  and  _55
REMARK                            x       y       z     vdW  Elec       q    Type
REMARK                         _______ _______ _______ _____ _____    ______ ____
ROOT
ATOM     10  C   UNL     1      57.227  71.283 104.976  0.00  0.00    +0.038 A 
ATOM     11  C   UNL     1      58.121  70.854 103.961  0.00  0.00    +0.047 A 
ATOM     12  C   UNL     1      57.628  70.314 102.704  0.00  0.00    +0.035 A 
ATOM     32  C   UNL     1      56.218  70.227 102.512  0.00  0.00    +0.024 A 
ATOM     33  C   UNL     1      55.295  70.657 103.534  0.00  0.00    +0.007 A 
ATOM     34  C   UNL     1      55.776  71.189 104.777  0.00  0.00    -0.029 A 
ATOM     35  C   UNL     1      54.741  71.628 105.839  0.00  0.00    +0.045 C 
ENDROOT
BRANCH  10   9
ATOM      4  C   UNL     1      59.110  70.726 109.356  0.00  0.00    +0.077 A 
ATOM      5  C   UNL     1      59.008  69.297 109.282  0.00  0.00    +0.048 A 
ATOM      6  C   UNL     1      58.459  68.745 108.103  0.00  0.00    +0.116 A 
ATOM      7  N   UNL     1      58.046  69.570 107.080  0.00  0.00    -0.223 NA
ATOM      8  C   UNL     1      58.157  70.945 107.183  0.00  0.00    +0.220 A 
ATOM      9  N   UNL     1      57.755  71.794 106.164  0.00  0.00    -0.283 N 
ATOM     36  H   UNL     1      57.847  72.802 106.282  0.00  0.00    +0.155 HD
ATOM     37  N   UNL     1      58.677  71.496 108.300  0.00  0.00    -0.214 NA
BRANCH   4   3
ATOM      1  C   UNL     1      60.001  73.536 111.927  0.00  0.00    +0.020 A 
ATOM      2  C   UNL     1      59.436  72.876 110.772  0.00  0.00    +0.013 A 
ATOM      3  C   UNL     1      59.672  71.458 110.535  0.00  0.00    +0.019 A 
ATOM     38  C   UNL     1      60.489  70.729 111.493  0.00  0.00    +0.120 A 
ATOM     39  N   UNL     1      61.022  71.391 112.595  0.00  0.00    -0.263 NA
ATOM     40  C   UNL     1      60.803  72.757 112.832  0.00  0.00    +0.111 A 
ENDBRANCH   4   3
ENDBRANCH  10   9
BRANCH  12  13
ATOM     13  N   UNL     1      58.486  69.855 101.640  0.00  0.00    -0.281 N 
ATOM     14  C   UNL     1      58.655  68.559 101.181  0.00  0.00    +0.248 C 
ATOM     30  O   UNL     1      58.250  67.562 101.760  0.00  0.00    -0.270 OA
ATOM     31  H   UNL     1      59.037  70.573 101.169  0.00  0.00    +0.155 HD
BRANCH  14  15
ATOM     15  C   UNL     1      59.393  68.337  99.900  0.00  0.00    +0.037 A 
ATOM     16  C   UNL     1      58.864  67.450  98.861  0.00  0.00    +0.013 A 
ATOM     17  C   UNL     1      59.604  67.241  97.642  0.00  0.00    +0.005 A 
ATOM     18  C   UNL     1      60.883  67.922  97.455  0.00  0.00    -0.033 A 
ATOM     28  C   UNL     1      61.382  68.801  98.500  0.00  0.00    +0.005 A 
ATOM     29  C   UNL     1      60.660  69.008  99.696  0.00  0.00    +0.013 A 
BRANCH  18  19
ATOM     19  C   UNL     1      61.750  67.741  96.196  0.00  0.00    +0.119 C 
BRANCH  19  20
ATOM     20  N   UNL     1      61.057  67.314  94.944  0.00  0.00    -0.302 NA
ATOM     21  C   UNL     1      62.040  67.093  93.790  0.00  0.00    +0.066 C 
ATOM     22  C   UNL     1      61.300  66.625  92.494  0.00  0.00    -0.064 C 
ATOM     23  N   UNL     1      60.241  67.660  92.113  0.00  0.00    +0.379 N 
ATOM     24  C   UNL     1      59.584  67.252  90.863  0.00  0.00    -0.096 C 
ATOM     25  H   UNL     1      60.765  68.625  91.920  0.00  0.00    -0.082 HD
ATOM     26  C   UNL     1      59.261  67.888  93.256  0.00  0.00    -0.064 C 
ATOM     27  C   UNL     1      60.009  68.324  94.546  0.00  0.00    +0.066 C 
ENDBRANCH  19  20
ENDBRANCH  18  19
ENDBRANCH  14  15
ENDBRANCH  12  13
TORSDOF 6
ENDMDL
MODEL 2
REMARK VINA RESULT:      -8.5      2.057      2.726
REMARK  Name = C:\Users\Docking\Desktop\test protocol\1iep_ligandH.pdb
REMARK  8 active torsions:
REMARK  status: ('A' for Active; 'I' for Inactive)
REMARK    1  A    between atoms: _5  and  _11
REMARK    2  A    between atoms: _19  and  _21
REMARK    3  A    between atoms: _22  and  _66
REMARK    4  A    between atoms: _27  and  _30
REMARK    5  A    between atoms: _32  and  _33
REMARK    6  A    between atoms: _38  and  _43
REMARK    7  A    between atoms: _43  and  _46
REMARK    8  A    between atoms: _53  and  _55
REMARK                            x       y       z     vdW  Elec       q    Type
REMARK                         _______ _______ _______ _____ _____    ______ ____
ROOT
ATOM     10  C   UNL     1      57.149  71.430 105.083  0.00  0.00    +0.038 A 
ATOM     11  C   UNL     1      58.046  70.987 104.078  0.00  0.00    +0.047 A 
ATOM     12  C   UNL     1      57.559  70.385 102.847  0.00  0.00    +0.035 A 
ATOM     32  C   UNL     1      56.151  70.253 102.670  0.00  0.00    +0.024 A 
ATOM     33  C   UNL     1      55.225  70.697 103.682  0.00  0.00    +0.007 A 
ATOM     34  C   UNL     1      55.699  71.289 104.900  0.00  0.00    -0.029 A 
ATOM     35  C   UNL     1      54.661  71.741 105.953  0.00  0.00    +0.045 C 
ENDROOT
BRANCH  10   9
ATOM      4  C   UNL     1      58.752  75.188 107.603  0.00  0.00    +0.077 A 
ATOM      5  C   UNL     1      58.557  76.085 106.500  0.00  0.00    +0.048 A 
ATOM      6  C   UNL     1      58.050  75.539 105.300  0.00  0.00    +0.116 A 
ATOM      7  N   UNL     1      57.761  74.193 105.220  0.00  0.00    -0.223 NA
ATOM      8  C   UNL     1      57.962  73.355 106.302  0.00  0.00    +0.220 A 
ATOM      9  N   UNL     1      57.671  72.001 106.246  0.00  0.00    -0.283 N 
ATOM     36  H   UNL     1      57.841  71.415 107.063  0.00  0.00    +0.155 HD
ATOM     37  N   UNL     1      58.447  73.853 107.458  0.00  0.00    -0.214 NA
BRANCH   4   3
ATOM      1  C   UNL     1      60.129  77.356 110.552  0.00  0.00    +0.020 A 
ATOM      2  C   UNL     1      59.625  76.996 109.247  0.00  0.00    +0.013 A 
ATOM      3  C   UNL     1      59.278  75.615 108.937  0.00  0.00    +0.019 A 
ATOM     38  C   UNL     1      59.454  74.614 109.979  0.00  0.00    +0.120 A 
ATOM     39  N   UNL     1      59.943  74.990 111.227  0.00  0.00    -0.263 NA
ATOM     40  C   UNL     1      60.281  76.316 111.535  0.00  0.00    +0.111 A 
ENDBRANCH   4   3
ENDBRANCH  10   9
BRANCH  12  13
ATOM     13  N   UNL     1      58.423  69.909 101.794  0.00  0.00    -0.281 N 
ATOM     14  C   UNL     1      58.566  68.612 101.332  0.00  0.00    +0.248 C 
ATOM     30  O   UNL     1      58.127  67.623 101.901  0.00  0.00    -0.270 OA
ATOM     31  H   UNL     1      58.998  70.615 101.335  0.00  0.00    +0.155 HD
BRANCH  14  15
ATOM     15  C   UNL     1      59.318  68.377 100.062  0.00  0.00    +0.037 A 
ATOM     16  C   UNL     1      58.821  67.445  99.046  0.00  0.00    +0.013 A 
ATOM     17  C   UNL     1      59.575  67.224  97.837  0.00  0.00    +0.005 A 
ATOM     18  C   UNL     1      60.834  67.938  97.637  0.00  0.00    -0.033 A 
ATOM     28  C   UNL     1      61.301  68.860  98.659  0.00  0.00    +0.005 A 
ATOM     29  C   UNL     1      60.565  69.078  99.846  0.00  0.00    +0.013 A 
BRANCH  18  19
ATOM     19  C   UNL     1      61.714  67.748  96.388  0.00  0.00    +0.119 C 
BRANCH  19  20
ATOM     20  N   UNL     1      61.031  67.329  95.128  0.00  0.00    -0.302 NA
ATOM     21  C   UNL     1      62.024  67.099  93.985  0.00  0.00    +0.066 C 
ATOM     22  C   UNL     1      61.294  66.639  92.681  0.00  0.00    -0.064 C 
ATOM     23  N   UNL     1      60.250  67.686  92.288  0.00  0.00    +0.379 N 
ATOM     24  C   UNL     1      59.602  67.285  91.030  0.00  0.00    -0.096 C 
ATOM     25  H   UNL     1      60.786  68.645  92.102  0.00  0.00    -0.082 HD
ATOM     26  C   UNL     1      59.260  67.923  93.420  0.00  0.00    -0.064 C 
ATOM     27  C   UNL     1      59.998  68.350  94.719  0.00  0.00    +0.066 C 
ENDBRANCH  19  20
ENDBRANCH  18  19
ENDBRANCH  14  15
ENDBRANCH  12  13
TORSDOF 6
ENDMDL
MODEL 3
REMARK VINA RESULT:      -8.1      6.766     15.301
REMARK  Name = C:\Users\Docking\Desktop\test protocol\1iep_ligandH.pdb
REMARK  8 active torsions:
REMARK  status: ('A' for Active; 'I' for Inactive)
REMARK    1  A    between atoms: _5  and  _11
REMARK    2  A    between atoms: _19  and  _21
REMARK    3  A    between atoms: _22  and  _66
REMARK    4  A    between atoms: _27  and  _30
REMARK    5  A    between atoms: _32  and  _33
REMARK    6  A    between atoms: _38  and  _43
REMARK    7  A    between atoms: _43  and  _46
REMARK    8  A    between atoms: _53  and  _55
REMARK                            x       y       z     vdW  Elec       q    Type
REMARK                         _______ _______ _______ _____ _____    ______ ____
ROOT
ATOM     10  C   UNL     1      58.342  72.053 108.829  0.00  0.00    +0.038 A 
ATOM     11  C   UNL     1      57.760  71.343 109.910  0.00  0.00    +0.047 A 
ATOM     12  C   UNL     1      57.398  72.019 111.146  0.00  0.00    +0.035 A 
ATOM     32  C   UNL     1      57.640  73.420 111.246  0.00  0.00    +0.024 A 
ATOM     33  C   UNL     1      58.232  74.157 110.158  0.00  0.00    +0.007 A 
ATOM     34  C   UNL     1      58.594  73.495 108.937  0.00  0.00    -0.029 A 
ATOM     35  C   UNL     1      59.232  74.334 107.805  0.00  0.00    +0.045 C 
ENDROOT
BRANCH  10   9
ATOM      4  C   UNL     1      57.305  70.424 104.435  0.00  0.00    +0.077 A 
ATOM      5  C   UNL     1      55.987  70.990 104.472  0.00  0.00    +0.048 A 
ATOM      6  C   UNL     1      55.613  71.687 105.643  0.00  0.00    +0.116 A 
ATOM      7  N   UNL     1      56.498  71.803 106.692  0.00  0.00    -0.223 NA
ATOM      8  C   UNL     1      57.761  71.243 106.625  0.00  0.00    +0.220 A 
ATOM      9  N   UNL     1      58.671  71.354 107.665  0.00  0.00    -0.283 N 
ATOM     36  H   UNL     1      59.589  70.920 107.580  0.00  0.00    +0.155 HD
ATOM     37  N   UNL     1      58.142  70.571 105.519  0.00  0.00    -0.214 NA
BRANCH   4   3
ATOM      1  C   UNL     1      57.944  67.632 101.771  0.00  0.00    +0.020 A 
ATOM      2  C   UNL     1      57.387  68.325 102.910  0.00  0.00    +0.013 A 
ATOM      3  C   UNL     1      57.848  69.661 103.267  0.00  0.00    +0.019 A 
ATOM     38  C   UNL     1      58.880  70.273 102.444  0.00  0.00    +0.120 A 
ATOM     39  N   UNL     1      59.399  69.581 101.354  0.00  0.00    -0.263 NA
ATOM     40  C   UNL     1      58.965  68.294 101.002  0.00  0.00    +0.111 A 
ENDBRANCH   4   3
ENDBRANCH  10   9
BRANCH  12  13
ATOM     13  N   UNL     1      56.811  71.349 112.280  0.00  0.00    -0.281 N 
ATOM     14  C   UNL     1      55.743  71.767 113.057  0.00  0.00    +0.248 C 
ATOM     30  O   UNL     1      55.263  72.890 113.026  0.00  0.00    -0.270 OA
ATOM     31  H   UNL     1      57.234  70.459 112.542  0.00  0.00    +0.155 HD
BRANCH  14  15
ATOM     15  C   UNL     1      55.128  70.802 114.018  0.00  0.00    +0.037 A 
ATOM     16  C   UNL     1      55.931  70.143 115.052  0.00  0.00    +0.013 A 
ATOM     17  C   UNL     1      55.316  69.203 115.955  0.00  0.00    +0.005 A 
ATOM     18  C   UNL     1      53.889  68.917 115.830  0.00  0.00    -0.033 A 
ATOM     28  C   UNL     1      53.115  69.589 114.799  0.00  0.00    +0.005 A 
ATOM     29  C   UNL     1      53.714  70.510 113.911  0.00  0.00    +0.013 A 
BRANCH  18  19
ATOM     19  C   UNL     1      53.154  67.913 116.737  0.00  0.00    +0.119 C 
BRANCH  19  20
ATOM     20  N   UNL     1      51.690  67.728 116.507  0.00  0.00    -0.302 NA
ATOM     21  C   UNL     1      50.848  68.403 117.594  0.00  0.00    +0.066 C 
ATOM     22  C   UNL     1      49.319  68.219 117.326  0.00  0.00    -0.064 C 
ATOM     23  N   UNL     1      48.995  66.727 117.239  0.00  0.00    +0.379 N 
ATOM     24  C   UNL     1      47.548  66.550 117.045  0.00  0.00    -0.096 C 
ATOM     25  H   UNL     1      49.264  66.265 118.217  0.00  0.00    -0.082 HD
ATOM     26  C   UNL     1      49.829  66.047 116.163  0.00  0.00    -0.064 C 
ATOM     27  C   UNL     1      51.347  66.261 116.422  0.00  0.00    +0.066 C 
ENDBRANCH  19  20
ENDBRANCH  18  19
ENDBRANCH  14  15
ENDBRANCH  12  13
TORSDOF 6
ENDMDL
MODEL 4
REMARK VINA RESULT:      -7.8     25.409     27.842
REMARK  Name = C:\Users\Docking\Desktop\test protocol\1iep_ligandH.pdb
REMARK  8 active torsions:
REMARK  status: ('A' for Active; 'I' for Inactive)
REMARK    1  A    between atoms: _5  and  _11
REMARK    2  A    between atoms: _19  and  _21
REMARK    3  A    between atoms: _22  and  _66
REMARK    4  A    between atoms: _27  and  _30
REMARK    5  A    between atoms: _32  and  _33
REMARK    6  A    between atoms: _38  and  _43
REMARK    7  A    between atoms: _43  and  _46
REMARK    8  A    between atoms: _53  and  _55
REMARK                            x       y       z     vdW  Elec       q    Type
REMARK                         _______ _______ _______ _____ _____    ______ ____
ROOT
ATOM     10  C   UNL     1      53.347  47.511  98.760  0.00  0.00    +0.038 A 
ATOM     11  C   UNL     1      52.597  46.332  98.517  0.00  0.00    +0.047 A 
ATOM     12  C   UNL     1      51.830  46.167  97.293  0.00  0.00    +0.035 A 
ATOM     32  C   UNL     1      51.851  47.222  96.335  0.00  0.00    +0.024 A 
ATOM     33  C   UNL     1      52.608  48.428  96.565  0.00  0.00    +0.007 A 
ATOM     34  C   UNL     1      53.365  48.597  97.773  0.00  0.00    -0.029 A 
ATOM     35  C   UNL     1      54.152  49.913  97.970  0.00  0.00    +0.045 C 
ENDROOT
BRANCH  10   9
ATOM      4  C   UNL     1      57.187  46.578 101.485  0.00  0.00    +0.077 A 
ATOM      5  C   UNL     1      57.802  45.793 100.454  0.00  0.00    +0.048 A 
ATOM      6  C   UNL     1      57.094  45.647  99.240  0.00  0.00    +0.116 A 
ATOM      7  N   UNL     1      55.864  46.247  99.080  0.00  0.00    -0.223 NA
ATOM      8  C   UNL     1      55.298  46.997 100.095  0.00  0.00    +0.220 A 
ATOM      9  N   UNL     1      54.066  47.616  99.953  0.00  0.00    -0.283 N 
ATOM     36  H   UNL     1      53.680  48.154 100.728  0.00  0.00    +0.155 HD
ATOM     37  N   UNL     1      55.954  47.150 101.264  0.00  0.00    -0.214 NA
BRANCH   4   3
ATOM      1  C   UNL     1      57.942  48.016 105.043  0.00  0.00    +0.020 A 
ATOM      2  C   UNL     1      57.302  47.816 103.764  0.00  0.00    +0.013 A 
ATOM      3  C   UNL     1      57.812  46.827 102.822  0.00  0.00    +0.019 A 
ATOM     38  C   UNL     1      58.981  46.051 103.209  0.00  0.00    +0.120 A 
ATOM     39  N   UNL     1      59.578  46.268 104.448  0.00  0.00    -0.263 NA
ATOM     40  C   UNL     1      59.097  47.217 105.361  0.00  0.00    +0.111 A 
ENDBRANCH   4   3
ENDBRANCH  10   9
BRANCH  12  13
ATOM     13  N   UNL     1      51.043  44.996  96.995  0.00  0.00    -0.281 N 
ATOM     14  C   UNL     1      51.413  43.887  96.253  0.00  0.00    +0.248 C 
ATOM     30  O   UNL     1      52.411  43.828  95.549  0.00  0.00    -0.270 OA
ATOM     31  H   UNL     1      50.097  44.984  97.378  0.00  0.00    +0.155 HD
BRANCH  14  15
ATOM     15  C   UNL     1      50.543  42.672  96.286  0.00  0.00    +0.037 A 
ATOM     16  C   UNL     1      49.164  42.712  95.790  0.00  0.00    +0.013 A 
ATOM     17  C   UNL     1      48.341  41.530  95.849  0.00  0.00    +0.005 A 
ATOM     18  C   UNL     1      48.894  40.298  96.405  0.00  0.00    -0.033 A 
ATOM     28  C   UNL     1      50.267  40.285  96.884  0.00  0.00    +0.005 A 
ATOM     29  C   UNL     1      51.077  41.442  96.829  0.00  0.00    +0.013 A 
BRANCH  18  19
ATOM     19  C   UNL     1      48.081  38.996  96.526  0.00  0.00    +0.119 C 
BRANCH  19  20
ATOM     20  N   UNL     1      48.254  38.195  97.775  0.00  0.00    -0.302 NA
ATOM     21  C   UNL     1      48.425  36.702  97.481  0.00  0.00    +0.066 C 
ATOM     22  C   UNL     1      48.628  35.883  98.797  0.00  0.00    -0.064 C 
ATOM     23  N   UNL     1      47.438  36.118  99.729  0.00  0.00    +0.379 N 
ATOM     24  C   UNL     1      47.597  35.304 100.943  0.00  0.00    -0.096 C 
ATOM     25  H   UNL     1      46.521  35.765  99.203  0.00  0.00    -0.082 HD
ATOM     26  C   UNL     1      47.259  37.601 100.024  0.00  0.00    -0.064 C 
ATOM     27  C   UNL     1      47.088  38.410  98.708  0.00  0.00    +0.066 C 
ENDBRANCH  19  20
ENDBRANCH  18  19
ENDBRANCH  14  15
ENDBRANCH  12  13
TORSDOF 6
ENDMDL
MODEL 5
REMARK VINA RESULT:      -7.7      6.535     10.227
REMARK  Name = C:\Users\Docking\Desktop\test protocol\1iep_ligandH.pdb
REMARK  8 active torsions:
REMARK  status: ('A' for Active; 'I' for Inactive)
REMARK    1  A    between atoms: _5  and  _11
REMARK    2  A    between atoms: _19  and  _21
REMARK    3  A    between atoms: _22  and  _66
REMARK    4  A    between atoms: _27  and  _30
REMARK    5  A    between atoms: _32  and  _33
REMARK    6  A    between atoms: _38  and  _43
REMARK    7  A    between atoms: _43  and  _46
REMARK    8  A    between atoms: _53  and  _55
REMARK                            x       y       z     vdW  Elec       q    Type
REMARK                         _______ _______ _______ _____ _____    ______ ____
ROOT
ATOM     10  C   UNL     1      55.142  71.395 114.323  0.00  0.00    +0.038 A 
ATOM     11  C   UNL     1      55.517  71.387 112.955  0.00  0.00    +0.047 A 
ATOM     12  C   UNL     1      56.627  72.195 112.474  0.00  0.00    +0.035 A 
ATOM     32  C   UNL     1      57.334  72.999 113.415  0.00  0.00    +0.024 A 
ATOM     33  C   UNL     1      56.965  73.021 114.809  0.00  0.00    +0.007 A 
ATOM     34  C   UNL     1      55.870  72.227 115.289  0.00  0.00    -0.029 A 
ATOM     35  C   UNL     1      55.515  72.294 116.792  0.00  0.00    +0.045 C 
ENDROOT
BRANCH  10   9
ATOM      4  C   UNL     1      53.324  67.307 116.061  0.00  0.00    +0.077 A 
ATOM      5  C   UNL     1      54.620  66.696 116.140  0.00  0.00    +0.048 A 
ATOM      6  C   UNL     1      55.727  67.464 115.717  0.00  0.00    +0.116 A 
ATOM      7  N   UNL     1      55.541  68.748 115.252  0.00  0.00    -0.223 NA
ATOM      8  C   UNL     1      54.278  69.307 115.187  0.00  0.00    +0.220 A 
ATOM      9  N   UNL     1      54.069  70.599 114.730  0.00  0.00    -0.283 N 
ATOM     36  H   UNL     1      53.121  70.973 114.691  0.00  0.00    +0.155 HD
ATOM     37  N   UNL     1      53.204  68.593 115.584  0.00  0.00    -0.214 NA
BRANCH   4   3
ATOM      1  C   UNL     1      49.676  65.897 116.073  0.00  0.00    +0.020 A 
ATOM      2  C   UNL     1      50.874  66.570 115.626  0.00  0.00    +0.013 A 
ATOM      3  C   UNL     1      52.058  66.624 116.475  0.00  0.00    +0.019 A 
ATOM     38  C   UNL     1      51.996  65.982 117.779  0.00  0.00    +0.120 A 
ATOM     39  N   UNL     1      50.828  65.342 118.182  0.00  0.00    -0.263 NA
ATOM     40  C   UNL     1      49.682  65.285 117.375  0.00  0.00    +0.111 A 
ENDBRANCH   4   3
ENDBRANCH  10   9
BRANCH  12  13
ATOM     13  N   UNL     1      57.048  72.234 111.096  0.00  0.00    -0.281 N 
ATOM     14  C   UNL     1      57.842  71.320 110.423  0.00  0.00    +0.248 C 
ATOM     30  O   UNL     1      58.490  70.436 110.964  0.00  0.00    -0.270 OA
ATOM     31  H   UNL     1      56.721  73.031 110.551  0.00  0.00    +0.155 HD
BRANCH  14  15
ATOM     15  C   UNL     1      57.943  71.409 108.934  0.00  0.00    +0.037 A 
ATOM     16  C   UNL     1      58.242  70.228 108.120  0.00  0.00    +0.013 A 
ATOM     17  C   UNL     1      58.350  70.346 106.688  0.00  0.00    +0.005 A 
ATOM     18  C   UNL     1      58.157  71.651 106.060  0.00  0.00    -0.033 A 
ATOM     28  C   UNL     1      57.856  72.805 106.890  0.00  0.00    +0.005 A 
ATOM     29  C   UNL     1      57.750  72.694 108.295  0.00  0.00    +0.013 A 
BRANCH  18  19
ATOM     19  C   UNL     1      58.274  71.873 104.540  0.00  0.00    +0.119 C 
BRANCH  19  20
ATOM     20  N   UNL     1      58.517  70.669 103.690  0.00  0.00    -0.302 NA
ATOM     21  C   UNL     1      59.532  70.947 102.577  0.00  0.00    +0.066 C 
ATOM     22  C   UNL     1      59.791  69.672 101.711  0.00  0.00    -0.064 C 
ATOM     23  N   UNL     1      58.467  69.179 101.126  0.00  0.00    +0.379 N 
ATOM     24  C   UNL     1      58.715  68.013 100.264  0.00  0.00    -0.096 C 
ATOM     25  H   UNL     1      58.057  69.993 100.484  0.00  0.00    -0.082 HD
ATOM     26  C   UNL     1      57.451  68.902 102.225  0.00  0.00    -0.064 C 
ATOM     27  C   UNL     1      57.223  70.168 103.098  0.00  0.00    +0.066 C 
ENDBRANCH  19  20
ENDBRANCH  18  19
ENDBRANCH  14  15
ENDBRANCH  12  13
TORSDOF 6
ENDMDL
