MODEL 1
REMARK VINA RESULT:      -7.9      0.000      0.000
REMARK  Name = C:\Users\Docking\Desktop\test protocol\1iep_ligandH.pdb
REMARK  8 active torsions:
REMARK  status: ('A' for Active; 'I' for Inactive)
REMARK    1  A    between atoms: _5  and  _11
REMARK    2  A    between atoms: _19  and  _21
REMARK    3  A    between atoms: _22  and  _66
REMARK    4  A    between atoms: _27  and  _30
REMARK    5  A    between atoms: _32  and  _33
REMARK    6  A    between atoms: _38  and  _43
REMARK    7  A    between atoms: _43  and  _46
REMARK    8  A    between atoms: _53  and  _55
REMARK                            x       y       z     vdW  Elec       q    Type
REMARK                         _______ _______ _______ _____ _____    ______ ____
ROOT
ATOM     10  C   UNL     1      44.853  70.057 117.010  0.00  0.00    +0.038 A 
ATOM     11  C   UNL     1      46.197  69.984 116.563  0.00  0.00    +0.047 A 
ATOM     12  C   UNL     1      47.000  68.792 116.786  0.00  0.00    +0.035 A 
ATOM     32  C   UNL     1      46.402  67.692 117.466  0.00  0.00    +0.024 A 
ATOM     33  C   UNL     1      45.038  67.749 117.928  0.00  0.00    +0.007 A 
ATOM     34  C   UNL     1      44.241  68.923 117.713  0.00  0.00    -0.029 A 
ATOM     35  C   UNL     1      42.786  68.931 118.237  0.00  0.00    +0.045 C 
ENDROOT
BRANCH  10   9
ATOM      4  C   UNL     1      42.226  72.898 114.169  0.00  0.00    +0.077 A 
ATOM      5  C   UNL     1      42.332  71.990 113.064  0.00  0.00    +0.048 A 
ATOM      6  C   UNL     1      43.076  70.806 113.265  0.00  0.00    +0.116 A 
ATOM      7  N   UNL     1      43.667  70.559 114.486  0.00  0.00    -0.223 NA
ATOM      8  C   UNL     1      43.548  71.457 115.530  0.00  0.00    +0.220 A 
ATOM      9  N   UNL     1      44.127  71.226 116.769  0.00  0.00    -0.283 N 
ATOM     36  H   UNL     1      44.022  71.916 117.511  0.00  0.00    +0.155 HD
ATOM     37  N   UNL     1      42.843  72.595 115.363  0.00  0.00    -0.214 NA
BRANCH   4   3
ATOM      1  C   UNL     1      41.303  76.694 114.357  0.00  0.00    +0.020 A 
ATOM      2  C   UNL     1      42.077  75.477 114.427  0.00  0.00    +0.013 A 
ATOM      3  C   UNL     1      41.471  74.189 114.113  0.00  0.00    +0.019 A 
ATOM     38  C   UNL     1      40.068  74.168 113.728  0.00  0.00    +0.120 A 
ATOM     39  N   UNL     1      39.347  75.357 113.670  0.00  0.00    -0.263 NA
ATOM     40  C   UNL     1      39.919  76.602 113.972  0.00  0.00    +0.111 A 
ENDBRANCH   4   3
ENDBRANCH  10   9
BRANCH  12  13
ATOM     13  N   UNL     1      48.372  68.664 116.362  0.00  0.00    -0.281 N 
ATOM     14  C   UNL     1      48.890  67.811 115.401  0.00  0.00    +0.248 C 
ATOM     30  O   UNL     1      48.281  66.873 114.908  0.00  0.00    -0.270 OA
ATOM     31  H   UNL     1      49.043  69.276 116.826  0.00  0.00    +0.155 HD
BRANCH  14  15
ATOM     15  C   UNL     1      50.293  68.021 114.929  0.00  0.00    +0.037 A 
ATOM     16  C   UNL     1      50.732  67.545 113.615  0.00  0.00    +0.013 A 
ATOM     17  C   UNL     1      52.096  67.745 113.192  0.00  0.00    +0.005 A 
ATOM     18  C   UNL     1      53.030  68.428 114.084  0.00  0.00    -0.033 A 
ATOM     28  C   UNL     1      52.566  68.895 115.380  0.00  0.00    +0.005 A 
ATOM     29  C   UNL     1      51.230  68.699 115.799  0.00  0.00    +0.013 A 
BRANCH  18  19
ATOM     19  C   UNL     1      54.508  68.667 113.724  0.00  0.00    +0.119 C 
BRANCH  19  20
ATOM     20  N   UNL     1      54.923  70.072 113.435  0.00  0.00    -0.302 NA
ATOM     21  C   UNL     1      53.987  70.752 112.431  0.00  0.00    +0.066 C 
ATOM     22  C   UNL     1      54.423  72.228 112.158  0.00  0.00    -0.064 C 
ATOM     23  N   UNL     1      55.866  72.246 111.651  0.00  0.00    +0.379 N 
ATOM     24  C   UNL     1      56.259  73.627 111.337  0.00  0.00    -0.096 C 
ATOM     25  H   UNL     1      55.898  71.661 110.702  0.00  0.00    -0.082 HD
ATOM     26  C   UNL     1      56.803  71.569 112.641  0.00  0.00    -0.064 C 
ATOM     27  C   UNL     1      56.344  70.112 112.929  0.00  0.00    +0.066 C 
ENDBRANCH  19  20
ENDBRANCH  18  19
ENDBRANCH  14  15
ENDBRANCH  12  13
TORSDOF 6
ENDMDL
MODEL 2
REMARK VINA RESULT:      -7.8     24.593     28.030
REMARK  Name = C:\Users\Docking\Desktop\test protocol\1iep_ligandH.pdb
REMARK  8 active torsions:
REMARK  status: ('A' for Active; 'I' for Inactive)
REMARK    1  A    between atoms: _5  and  _11
REMARK    2  A    between atoms: _19  and  _21
REMARK    3  A    between atoms: _22  and  _66
REMARK    4  A    between atoms: _27  and  _30
REMARK    5  A    between atoms: _32  and  _33
REMARK    6  A    between atoms: _38  and  _43
REMARK    7  A    between atoms: _43  and  _46
REMARK    8  A    between atoms: _53  and  _55
REMARK                            x       y       z     vdW  Elec       q    Type
REMARK                         _______ _______ _______ _____ _____    ______ ____
ROOT
ATOM     10  C   UNL     1      27.665  51.321 113.981  0.00  0.00    +0.038 A 
ATOM     11  C   UNL     1      27.519  52.580 113.344  0.00  0.00    +0.047 A 
ATOM     12  C   UNL     1      26.373  53.433 113.616  0.00  0.00    +0.035 A 
ATOM     32  C   UNL     1      25.394  52.974 114.545  0.00  0.00    +0.024 A 
ATOM     33  C   UNL     1      25.526  51.696 115.201  0.00  0.00    +0.007 A 
ATOM     34  C   UNL     1      26.653  50.849 114.934  0.00  0.00    -0.029 A 
ATOM     35  C   UNL     1      26.739  49.487 115.661  0.00  0.00    +0.045 C 
ENDROOT
BRANCH  10   9
ATOM      4  C   UNL     1      32.180  49.914 114.798  0.00  0.00    +0.077 A 
ATOM      5  C   UNL     1      32.328  50.825 115.895  0.00  0.00    +0.048 A 
ATOM      6  C   UNL     1      31.221  51.644 116.213  0.00  0.00    +0.116 A 
ATOM      7  N   UNL     1      30.058  51.549 115.481  0.00  0.00    -0.223 NA
ATOM      8  C   UNL     1      29.949  50.660 114.427  0.00  0.00    +0.220 A 
ATOM      9  N   UNL     1      28.785  50.543 113.682  0.00  0.00    -0.283 N 
ATOM     36  H   UNL     1      28.747  49.880 112.908  0.00  0.00    +0.155 HD
ATOM     37  N   UNL     1      30.992  49.869 114.103  0.00  0.00    -0.214 NA
BRANCH   4   3
ATOM      1  C   UNL     1      34.066  46.774 113.426  0.00  0.00    +0.020 A 
ATOM      2  C   UNL     1      32.988  47.635 113.854  0.00  0.00    +0.013 A 
ATOM      3  C   UNL     1      33.259  48.981 114.343  0.00  0.00    +0.019 A 
ATOM     38  C   UNL     1      34.643  49.429 114.385  0.00  0.00    +0.120 A 
ATOM     39  N   UNL     1      35.661  48.577 113.968  0.00  0.00    -0.263 NA
ATOM     40  C   UNL     1      35.412  47.279 113.497  0.00  0.00    +0.111 A 
ENDBRANCH   4   3
ENDBRANCH  10   9
BRANCH  12  13
ATOM     13  N   UNL     1      26.168  54.717 112.994  0.00  0.00    -0.281 N 
ATOM     14  C   UNL     1      26.905  55.877 113.170  0.00  0.00    +0.248 C 
ATOM     30  O   UNL     1      27.729  56.044 114.057  0.00  0.00    -0.270 OA
ATOM     31  H   UNL     1      25.383  54.780 112.345  0.00  0.00    +0.155 HD
BRANCH  14  15
ATOM     15  C   UNL     1      26.686  57.021 112.235  0.00  0.00    +0.037 A 
ATOM     16  C   UNL     1      26.113  58.286 112.702  0.00  0.00    +0.013 A 
ATOM     17  C   UNL     1      25.896  59.368 111.775  0.00  0.00    +0.005 A 
ATOM     18  C   UNL     1      26.254  59.191 110.370  0.00  0.00    -0.033 A 
ATOM     28  C   UNL     1      26.826  57.927 109.934  0.00  0.00    +0.005 A 
ATOM     29  C   UNL     1      27.039  56.864 110.840  0.00  0.00    +0.013 A 
BRANCH  18  19
ATOM     19  C   UNL     1      26.038  60.284 109.307  0.00  0.00    +0.119 C 
BRANCH  19  20
ATOM     20  N   UNL     1      25.041  60.004 108.231  0.00  0.00    -0.302 NA
ATOM     21  C   UNL     1      24.064  58.894 108.628  0.00  0.00    +0.066 C 
ATOM     22  C   UNL     1      23.014  58.629 107.500  0.00  0.00    -0.064 C 
ATOM     23  N   UNL     1      23.743  58.271 106.203  0.00  0.00    +0.379 N 
ATOM     24  C   UNL     1      22.758  57.965 105.156  0.00  0.00    -0.096 C 
ATOM     25  H   UNL     1      24.334  57.345 106.393  0.00  0.00    -0.082 HD
ATOM     26  C   UNL     1      24.719  59.368 105.803  0.00  0.00    -0.064 C 
ATOM     27  C   UNL     1      25.739  59.643 106.942  0.00  0.00    +0.066 C 
ENDBRANCH  19  20
ENDBRANCH  18  19
ENDBRANCH  14  15
ENDBRANCH  12  13
TORSDOF 6
ENDMDL
MODEL 3
REMARK VINA RESULT:      -7.8     28.961     33.419
REMARK  Name = C:\Users\Docking\Desktop\test protocol\1iep_ligandH.pdb
REMARK  8 active torsions:
REMARK  status: ('A' for Active; 'I' for Inactive)
REMARK    1  A    between atoms: _5  and  _11
REMARK    2  A    between atoms: _19  and  _21
REMARK    3  A    between atoms: _22  and  _66
REMARK    4  A    between atoms: _27  and  _30
REMARK    5  A    between atoms: _32  and  _33
REMARK    6  A    between atoms: _38  and  _43
REMARK    7  A    between atoms: _43  and  _46
REMARK    8  A    between atoms: _53  and  _55
REMARK                            x       y       z     vdW  Elec       q    Type
REMARK                         _______ _______ _______ _____ _____    ______ ____
ROOT
ATOM     10  C   UNL     1      52.889  48.151  97.511  0.00  0.00    +0.038 A 
ATOM     11  C   UNL     1      52.179  46.945  97.279  0.00  0.00    +0.047 A 
ATOM     12  C   UNL     1      51.380  46.760  96.078  0.00  0.00    +0.035 A 
ATOM     32  C   UNL     1      51.329  47.825  95.131  0.00  0.00    +0.024 A 
ATOM     33  C   UNL     1      52.043  49.058  95.351  0.00  0.00    +0.007 A 
ATOM     34  C   UNL     1      52.830  49.246  96.536  0.00  0.00    -0.029 A 
ATOM     35  C   UNL     1      53.570  50.592  96.722  0.00  0.00    +0.045 C 
ENDROOT
BRANCH  10   9
ATOM      4  C   UNL     1      56.735  47.137 100.197  0.00  0.00    +0.077 A 
ATOM      5  C   UNL     1      57.280  46.268  99.194  0.00  0.00    +0.048 A 
ATOM      6  C   UNL     1      56.536  46.103  98.004  0.00  0.00    +0.116 A 
ATOM      7  N   UNL     1      55.338  46.764  97.840  0.00  0.00    -0.223 NA
ATOM      8  C   UNL     1      54.840  47.593  98.828  0.00  0.00    +0.220 A 
ATOM      9  N   UNL     1      53.641  48.274  98.681  0.00  0.00    -0.283 N 
ATOM     36  H   UNL     1      53.304  48.870  99.437  0.00  0.00    +0.155 HD
ATOM     37  N   UNL     1      55.531  47.766  99.974  0.00  0.00    -0.214 NA
BRANCH   4   3
ATOM      1  C   UNL     1      57.707  48.753 103.624  0.00  0.00    +0.020 A 
ATOM      2  C   UNL     1      57.028  48.528 102.369  0.00  0.00    +0.013 A 
ATOM      3  C   UNL     1      57.405  47.415 101.507  0.00  0.00    +0.019 A 
ATOM     38  C   UNL     1      58.481  46.541 101.948  0.00  0.00    +0.120 A 
ATOM     39  N   UNL     1      59.118  46.783 103.161  0.00  0.00    -0.263 NA
ATOM     40  C   UNL     1      58.765  47.852 103.998  0.00  0.00    +0.111 A 
ENDBRANCH   4   3
ENDBRANCH  10   9
BRANCH  12  13
ATOM     13  N   UNL     1      50.632  45.561  95.792  0.00  0.00    -0.281 N 
ATOM     14  C   UNL     1      51.104  44.365  95.277  0.00  0.00    +0.248 C 
ATOM     30  O   UNL     1      52.211  44.215  94.781  0.00  0.00    -0.270 OA
ATOM     31  H   UNL     1      49.633  45.599  95.995  0.00  0.00    +0.155 HD
BRANCH  14  15
ATOM     15  C   UNL     1      50.213  43.166  95.304  0.00  0.00    +0.037 A 
ATOM     16  C   UNL     1      48.833  43.233  94.816  0.00  0.00    +0.013 A 
ATOM     17  C   UNL     1      47.990  42.065  94.869  0.00  0.00    +0.005 A 
ATOM     18  C   UNL     1      48.525  40.819  95.412  0.00  0.00    -0.033 A 
ATOM     28  C   UNL     1      49.899  40.779  95.885  0.00  0.00    +0.005 A 
ATOM     29  C   UNL     1      50.728  41.922  95.835  0.00  0.00    +0.013 A 
BRANCH  18  19
ATOM     19  C   UNL     1      47.690  39.530  95.527  0.00  0.00    +0.119 C 
BRANCH  19  20
ATOM     20  N   UNL     1      47.853  38.718  96.770  0.00  0.00    -0.302 NA
ATOM     21  C   UNL     1      47.906  37.217  96.473  0.00  0.00    +0.066 C 
ATOM     22  C   UNL     1      48.099  36.384  97.782  0.00  0.00    -0.064 C 
ATOM     23  N   UNL     1      46.965  36.703  98.758  0.00  0.00    +0.379 N 
ATOM     24  C   UNL     1      47.112  35.879  99.966  0.00  0.00    -0.096 C 
ATOM     25  H   UNL     1      46.007  36.416  98.267  0.00  0.00    -0.082 HD
ATOM     26  C   UNL     1      46.903  38.194  99.056  0.00  0.00    -0.064 C 
ATOM     27  C   UNL     1      46.741  39.014  97.746  0.00  0.00    +0.066 C 
ENDBRANCH  19  20
ENDBRANCH  18  19
ENDBRANCH  14  15
ENDBRANCH  12  13
TORSDOF 6
ENDMDL
MODEL 4
REMARK VINA RESULT:      -7.6     14.257     17.861
REMARK  Name = C:\Users\Docking\Desktop\test protocol\1iep_ligandH.pdb
REMARK  8 active torsions:
REMARK  status: ('A' for Active; 'I' for Inactive)
REMARK    1  A    between atoms: _5  and  _11
REMARK    2  A    between atoms: _19  and  _21
REMARK    3  A    between atoms: _22  and  _66
REMARK    4  A    between atoms: _27  and  _30
REMARK    5  A    between atoms: _32  and  _33
REMARK    6  A    between atoms: _38  and  _43
REMARK    7  A    between atoms: _43  and  _46
REMARK    8  A    between atoms: _53  and  _55
REMARK                            x       y       z     vdW  Elec       q    Type
REMARK                         _______ _______ _______ _____ _____    ______ ____
ROOT
ATOM     10  C   UNL     1      57.563  74.572 105.917  0.00  0.00    +0.038 A 
ATOM     11  C   UNL     1      57.693  73.709 104.799  0.00  0.00    +0.047 A 
ATOM     12  C   UNL     1      58.061  72.311 104.966  0.00  0.00    +0.035 A 
ATOM     32  C   UNL     1      58.286  71.825 106.286  0.00  0.00    +0.024 A 
ATOM     33  C   UNL     1      58.159  72.688 107.434  0.00  0.00    +0.007 A 
ATOM     34  C   UNL     1      57.799  74.068 107.275  0.00  0.00    -0.029 A 
ATOM     35  C   UNL     1      57.683  74.950 108.541  0.00  0.00    +0.045 C 
ENDROOT
BRANCH  10   9
ATOM      4  C   UNL     1      58.667  79.207 105.343  0.00  0.00    +0.077 A 
ATOM      5  C   UNL     1      60.068  78.956 105.519  0.00  0.00    +0.048 A 
ATOM      6  C   UNL     1      60.463  77.622 105.763  0.00  0.00    +0.116 A 
ATOM      7  N   UNL     1      59.518  76.621 105.823  0.00  0.00    -0.223 NA
ATOM      8  C   UNL     1      58.174  76.897 105.650  0.00  0.00    +0.220 A 
ATOM      9  N   UNL     1      57.207  75.905 105.699  0.00  0.00    -0.283 N 
ATOM     36  H   UNL     1      56.225  76.150 105.574  0.00  0.00    +0.155 HD
ATOM     37  N   UNL     1      57.771  78.164 105.418  0.00  0.00    -0.214 NA
BRANCH   4   3
ATOM      1  C   UNL     1      56.477  82.442 105.549  0.00  0.00    +0.020 A 
ATOM      2  C   UNL     1      56.993  81.126 105.848  0.00  0.00    +0.013 A 
ATOM      3  C   UNL     1      58.094  80.564 105.075  0.00  0.00    +0.019 A 
ATOM     38  C   UNL     1      58.655  81.367 103.999  0.00  0.00    +0.120 A 
ATOM     39  N   UNL     1      58.137  82.630 103.733  0.00  0.00    -0.263 NA
ATOM     40  C   UNL     1      57.077  83.181 104.468  0.00  0.00    +0.111 A 
ENDBRANCH   4   3
ENDBRANCH  10   9
BRANCH  12  13
ATOM     13  N   UNL     1      58.216  71.390 103.867  0.00  0.00    -0.281 N 
ATOM     14  C   UNL     1      57.230  70.875 103.042  0.00  0.00    +0.248 C 
ATOM     30  O   UNL     1      56.031  70.964 103.259  0.00  0.00    -0.270 OA
ATOM     31  H   UNL     1      59.169  71.080 103.675  0.00  0.00    +0.155 HD
BRANCH  14  15
ATOM     15  C   UNL     1      57.635  70.143 101.803  0.00  0.00    +0.037 A 
ATOM     16  C   UNL     1      57.004  68.875 101.430  0.00  0.00    +0.013 A 
ATOM     17  C   UNL     1      57.426  68.181 100.238  0.00  0.00    +0.005 A 
ATOM     18  C   UNL     1      58.483  68.756  99.411  0.00  0.00    -0.033 A 
ATOM     28  C   UNL     1      59.088  70.018  99.802  0.00  0.00    +0.005 A 
ATOM     29  C   UNL     1      58.679  70.701 100.969  0.00  0.00    +0.013 A 
BRANCH  18  19
ATOM     19  C   UNL     1      59.011  68.074  98.134  0.00  0.00    +0.119 C 
BRANCH  19  20
ATOM     20  N   UNL     1      59.585  68.956  97.075  0.00  0.00    -0.302 NA
ATOM     21  C   UNL     1      59.098  68.566  95.677  0.00  0.00    +0.066 C 
ATOM     22  C   UNL     1      59.691  69.513  94.583  0.00  0.00    -0.064 C 
ATOM     23  N   UNL     1      61.219  69.477  94.655  0.00  0.00    +0.379 N 
ATOM     24  C   UNL     1      61.780  70.322  93.590  0.00  0.00    -0.096 C 
ATOM     25  H   UNL     1      61.541  68.428  94.460  0.00  0.00    -0.082 HD
ATOM     26  C   UNL     1      61.711  69.861  96.043  0.00  0.00    -0.064 C 
ATOM     27  C   UNL     1      61.093  68.932  97.125  0.00  0.00    +0.066 C 
ENDBRANCH  19  20
ENDBRANCH  18  19
ENDBRANCH  14  15
ENDBRANCH  12  13
TORSDOF 6
ENDMDL
MODEL 5
REMARK VINA RESULT:      -7.6      1.581      2.465
REMARK  Name = C:\Users\Docking\Desktop\test protocol\1iep_ligandH.pdb
REMARK  8 active torsions:
REMARK  status: ('A' for Active; 'I' for Inactive)
REMARK    1  A    between atoms: _5  and  _11
REMARK    2  A    between atoms: _19  and  _21
REMARK    3  A    between atoms: _22  and  _66
REMARK    4  A    between atoms: _27  and  _30
REMARK    5  A    between atoms: _32  and  _33
REMARK    6  A    between atoms: _38  and  _43
REMARK    7  A    between atoms: _43  and  _46
REMARK    8  A    between atoms: _53  and  _55
REMARK                            x       y       z     vdW  Elec       q    Type
REMARK                         _______ _______ _______ _____ _____    ______ ____
ROOT
ATOM     10  C   UNL     1      44.902  70.150 116.941  0.00  0.00    +0.038 A 
ATOM     11  C   UNL     1      46.242  70.100 116.479  0.00  0.00    +0.047 A 
ATOM     12  C   UNL     1      47.067  68.920 116.691  0.00  0.00    +0.035 A 
ATOM     32  C   UNL     1      46.494  67.809 117.375  0.00  0.00    +0.024 A 
ATOM     33  C   UNL     1      45.134  67.844 117.853  0.00  0.00    +0.007 A 
ATOM     34  C   UNL     1      44.316  69.005 117.649  0.00  0.00    -0.029 A 
ATOM     35  C   UNL     1      42.867  68.989 118.188  0.00  0.00    +0.045 C 
ENDROOT
BRANCH  10   9
ATOM      4  C   UNL     1      42.171  72.938 114.148  0.00  0.00    +0.077 A 
ATOM      5  C   UNL     1      42.262  72.025 113.046  0.00  0.00    +0.048 A 
ATOM      6  C   UNL     1      43.027  70.852 113.236  0.00  0.00    +0.116 A 
ATOM      7  N   UNL     1      43.650  70.621 114.443  0.00  0.00    -0.223 NA
ATOM      8  C   UNL     1      43.544  71.524 115.485  0.00  0.00    +0.220 A 
ATOM      9  N   UNL     1      44.155  71.308 116.711  0.00  0.00    -0.283 N 
ATOM     36  H   UNL     1      44.059  72.001 117.452  0.00  0.00    +0.155 HD
ATOM     37  N   UNL     1      42.820  72.652 115.328  0.00  0.00    -0.214 NA
BRANCH   4   3
ATOM      1  C   UNL     1      41.199  76.698 113.681  0.00  0.00    +0.020 A 
ATOM      2  C   UNL     1      41.991  75.490 113.709  0.00  0.00    +0.013 A 
ATOM      3  C   UNL     1      41.397  74.219 114.102  0.00  0.00    +0.019 A 
ATOM     38  C   UNL     1      39.987  74.204 114.463  0.00  0.00    +0.120 A 
ATOM     39  N   UNL     1      39.250  75.384 114.428  0.00  0.00    -0.263 NA
ATOM     40  C   UNL     1      39.812  76.613 114.053  0.00  0.00    +0.111 A 
ENDBRANCH   4   3
ENDBRANCH  10   9
BRANCH  12  13
ATOM     13  N   UNL     1      48.436  68.815 116.252  0.00  0.00    -0.281 N 
ATOM     14  C   UNL     1      48.959  67.965 115.290  0.00  0.00    +0.248 C 
ATOM     30  O   UNL     1      48.361  67.014 114.810  0.00  0.00    -0.270 OA
ATOM     31  H   UNL     1      49.101  69.442 116.705  0.00  0.00    +0.155 HD
BRANCH  14  15
ATOM     15  C   UNL     1      50.352  68.199 114.801  0.00  0.00    +0.037 A 
ATOM     16  C   UNL     1      50.950  67.342 113.774  0.00  0.00    +0.013 A 
ATOM     17  C   UNL     1      52.302  67.578 113.332  0.00  0.00    +0.005 A 
ATOM     18  C   UNL     1      53.064  68.678 113.917  0.00  0.00    -0.033 A 
ATOM     28  C   UNL     1      52.445  69.516 114.931  0.00  0.00    +0.005 A 
ATOM     29  C   UNL     1      51.120  69.286 115.367  0.00  0.00    +0.013 A 
BRANCH  18  19
ATOM     19  C   UNL     1      54.520  68.990 113.522  0.00  0.00    +0.119 C 
BRANCH  19  20
ATOM     20  N   UNL     1      55.578  68.064 114.023  0.00  0.00    -0.302 NA
ATOM     21  C   UNL     1      55.536  67.914 115.546  0.00  0.00    +0.066 C 
ATOM     22  C   UNL     1      56.636  66.924 116.051  0.00  0.00    -0.064 C 
ATOM     23  N   UNL     1      58.010  67.415 115.594  0.00  0.00    +0.379 N 
ATOM     24  C   UNL     1      59.051  66.518 116.116  0.00  0.00    -0.096 C 
ATOM     25  H   UNL     1      58.175  68.423 116.042  0.00  0.00    -0.082 HD
ATOM     26  C   UNL     1      58.060  67.570 114.080  0.00  0.00    -0.064 C 
ATOM     27  C   UNL     1      56.944  68.533 113.586  0.00  0.00    +0.066 C 
ENDBRANCH  19  20
ENDBRANCH  18  19
ENDBRANCH  14  15
ENDBRANCH  12  13
TORSDOF 6
ENDMDL
