MODEL 1
REMARK VINA RESULT:      -7.8      0.000      0.000
REMARK  Name = C:\Users\Docking\Desktop\test protocol\1iep_ligandH.pdb
REMARK  8 active torsions:
REMARK  status: ('A' for Active; 'I' for Inactive)
REMARK    1  A    between atoms: _5  and  _11
REMARK    2  A    between atoms: _19  and  _21
REMARK    3  A    between atoms: _22  and  _66
REMARK    4  A    between atoms: _27  and  _30
REMARK    5  A    between atoms: _32  and  _33
REMARK    6  A    between atoms: _38  and  _43
REMARK    7  A    between atoms: _43  and  _46
REMARK    8  A    between atoms: _53  and  _55
REMARK                            x       y       z     vdW  Elec       q    Type
REMARK                         _______ _______ _______ _____ _____    ______ ____
ROOT
ATOM     10  C   UNL     1      58.549  72.440 107.922  0.00  0.00    +0.038 A 
ATOM     11  C   UNL     1      57.751  71.859 108.940  0.00  0.00    +0.047 A 
ATOM     12  C   UNL     1      57.401  72.603 110.139  0.00  0.00    +0.035 A 
ATOM     32  C   UNL     1      57.879  73.940 110.268  0.00  0.00    +0.024 A 
ATOM     33  C   UNL     1      58.693  74.546 109.244  0.00  0.00    +0.007 A 
ATOM     34  C   UNL     1      59.043  73.816 108.060  0.00  0.00    -0.029 A 
ATOM     35  C   UNL     1      59.924  74.514 106.997  0.00  0.00    +0.045 C 
ENDROOT
BRANCH  10   9
ATOM      4  C   UNL     1      57.459  70.646 103.606  0.00  0.00    +0.077 A 
ATOM      5  C   UNL     1      56.160  71.254 103.616  0.00  0.00    +0.048 A 
ATOM      6  C   UNL     1      55.808  72.014 104.754  0.00  0.00    +0.116 A 
ATOM      7  N   UNL     1      56.697  72.150 105.798  0.00  0.00    -0.223 NA
ATOM      8  C   UNL     1      57.942  71.549 105.757  0.00  0.00    +0.220 A 
ATOM      9  N   UNL     1      58.855  71.679 106.791  0.00  0.00    -0.283 N 
ATOM     36  H   UNL     1      59.761  71.215 106.726  0.00  0.00    +0.155 HD
ATOM     37  N   UNL     1      58.301  70.817 104.682  0.00  0.00    -0.214 NA
BRANCH   4   3
ATOM      1  C   UNL     1      57.996  67.728 101.057  0.00  0.00    +0.020 A 
ATOM      2  C   UNL     1      57.461  68.489 102.163  0.00  0.00    +0.013 A 
ATOM      3  C   UNL     1      57.978  69.816 102.473  0.00  0.00    +0.019 A 
ATOM     38  C   UNL     1      59.044  70.348 101.639  0.00  0.00    +0.120 A 
ATOM     39  N   UNL     1      59.541  69.592 100.582  0.00  0.00    -0.263 NA
ATOM     40  C   UNL     1      59.053  68.313 100.275  0.00  0.00    +0.111 A 
ENDBRANCH   4   3
ENDBRANCH  10   9
BRANCH  12  13
ATOM     13  N   UNL     1      56.600  72.063 111.210  0.00  0.00    -0.281 N 
ATOM     14  C   UNL     1      57.000  71.751 112.499  0.00  0.00    +0.248 C 
ATOM     30  O   UNL     1      58.164  71.690 112.866  0.00  0.00    -0.270 OA
ATOM     31  H   UNL     1      55.619  71.888 110.990  0.00  0.00    +0.155 HD
BRANCH  14  15
ATOM     15  C   UNL     1      55.956  71.450 113.525  0.00  0.00    +0.037 A 
ATOM     16  C   UNL     1      56.322  70.997 114.870  0.00  0.00    +0.013 A 
ATOM     17  C   UNL     1      55.295  70.697 115.836  0.00  0.00    +0.005 A 
ATOM     18  C   UNL     1      53.891  70.849 115.460  0.00  0.00    -0.033 A 
ATOM     28  C   UNL     1      53.557  71.305 114.121  0.00  0.00    +0.005 A 
ATOM     29  C   UNL     1      54.561  71.599 113.171  0.00  0.00    +0.013 A 
BRANCH  18  19
ATOM     19  C   UNL     1      52.729  70.531 116.420  0.00  0.00    +0.119 C 
BRANCH  19  20
ATOM     20  N   UNL     1      51.763  69.475 115.997  0.00  0.00    -0.302 NA
ATOM     21  C   UNL     1      50.565  69.378 116.946  0.00  0.00    +0.066 C 
ATOM     22  C   UNL     1      49.553  68.283 116.476  0.00  0.00    -0.064 C 
ATOM     23  N   UNL     1      50.273  66.937 116.373  0.00  0.00    +0.379 N 
ATOM     24  C   UNL     1      49.311  65.894 115.987  0.00  0.00    -0.096 C 
ATOM     25  H   UNL     1      50.660  66.683 117.388  0.00  0.00    -0.082 HD
ATOM     26  C   UNL     1      51.467  67.025 115.433  0.00  0.00    -0.064 C 
ATOM     27  C   UNL     1      52.452  68.136 115.893  0.00  0.00    +0.066 C 
ENDBRANCH  19  20
ENDBRANCH  18  19
ENDBRANCH  14  15
ENDBRANCH  12  13
TORSDOF 6
ENDMDL
MODEL 2
REMARK VINA RESULT:      -7.7     39.202     41.442
REMARK  Name = C:\Users\Docking\Desktop\test protocol\1iep_ligandH.pdb
REMARK  8 active torsions:
REMARK  status: ('A' for Active; 'I' for Inactive)
REMARK    1  A    between atoms: _5  and  _11
REMARK    2  A    between atoms: _19  and  _21
REMARK    3  A    between atoms: _22  and  _66
REMARK    4  A    between atoms: _27  and  _30
REMARK    5  A    between atoms: _32  and  _33
REMARK    6  A    between atoms: _38  and  _43
REMARK    7  A    between atoms: _43  and  _46
REMARK    8  A    between atoms: _53  and  _55
REMARK                            x       y       z     vdW  Elec       q    Type
REMARK                         _______ _______ _______ _____ _____    ______ ____
ROOT
ATOM     10  C   UNL     1      28.784  43.021 102.491  0.00  0.00    +0.038 A 
ATOM     11  C   UNL     1      27.695  43.926 102.573  0.00  0.00    +0.047 A 
ATOM     12  C   UNL     1      27.293  44.507 103.845  0.00  0.00    +0.035 A 
ATOM     32  C   UNL     1      28.025  44.145 105.014  0.00  0.00    +0.024 A 
ATOM     33  C   UNL     1      29.133  43.225 104.949  0.00  0.00    +0.007 A 
ATOM     34  C   UNL     1      29.532  42.647 103.697  0.00  0.00    -0.029 A 
ATOM     35  C   UNL     1      30.724  41.662 103.688  0.00  0.00    +0.045 C 
ENDROOT
BRANCH  10   9
ATOM      4  C   UNL     1      28.327  39.749  99.008  0.00  0.00    +0.077 A 
ATOM      5  C   UNL     1      27.343  39.013  99.748  0.00  0.00    +0.048 A 
ATOM      6  C   UNL     1      26.986  39.506 101.023  0.00  0.00    +0.116 A 
ATOM      7  N   UNL     1      27.577  40.651 101.513  0.00  0.00    -0.223 NA
ATOM      8  C   UNL     1      28.525  41.336 100.775  0.00  0.00    +0.220 A 
ATOM      9  N   UNL     1      29.126  42.493 101.244  0.00  0.00    -0.283 N 
ATOM     36  H   UNL     1      29.826  42.965 100.672  0.00  0.00    +0.155 HD
ATOM     37  N   UNL     1      28.883  40.885  99.554  0.00  0.00    -0.214 NA
BRANCH   4   3
ATOM      1  C   UNL     1      28.890  39.635  95.139  0.00  0.00    +0.020 A 
ATOM      2  C   UNL     1      28.398  40.053  96.432  0.00  0.00    +0.013 A 
ATOM      3  C   UNL     1      28.806  39.357  97.645  0.00  0.00    +0.019 A 
ATOM     38  C   UNL     1      29.721  38.233  97.516  0.00  0.00    +0.120 A 
ATOM     39  N   UNL     1      30.177  37.851  96.258  0.00  0.00    -0.263 NA
ATOM     40  C   UNL     1      29.789  38.513  95.083  0.00  0.00    +0.111 A 
ENDBRANCH   4   3
ENDBRANCH  10   9
BRANCH  12  13
ATOM     13  N   UNL     1      26.192  45.425 103.991  0.00  0.00    -0.281 N 
ATOM     14  C   UNL     1      26.240  46.807 104.071  0.00  0.00    +0.248 C 
ATOM     30  O   UNL     1      27.262  47.454 104.243  0.00  0.00    -0.270 OA
ATOM     31  H   UNL     1      25.263  45.005 104.042  0.00  0.00    +0.155 HD
BRANCH  14  15
ATOM     15  C   UNL     1      24.967  47.582 103.956  0.00  0.00    +0.037 A 
ATOM     16  C   UNL     1      24.719  48.472 102.818  0.00  0.00    +0.013 A 
ATOM     17  C   UNL     1      23.489  49.221 102.741  0.00  0.00    +0.005 A 
ATOM     18  C   UNL     1      22.498  49.081 103.805  0.00  0.00    -0.033 A 
ATOM     28  C   UNL     1      22.768  48.188 104.919  0.00  0.00    +0.005 A 
ATOM     29  C   UNL     1      23.972  47.453 104.999  0.00  0.00    +0.013 A 
BRANCH  18  19
ATOM     19  C   UNL     1      21.168  49.858 103.815  0.00  0.00    +0.119 C 
BRANCH  19  20
ATOM     20  N   UNL     1      20.082  49.367 102.915  0.00  0.00    -0.302 NA
ATOM     21  C   UNL     1      20.171  47.856 102.678  0.00  0.00    +0.066 C 
ATOM     22  C   UNL     1      19.015  47.356 101.753  0.00  0.00    -0.064 C 
ATOM     23  N   UNL     1      19.063  48.115 100.426  0.00  0.00    +0.379 N 
ATOM     24  C   UNL     1      18.013  47.606  99.532  0.00  0.00    -0.096 C 
ATOM     25  H   UNL     1      20.047  47.901  99.949  0.00  0.00    -0.082 HD
ATOM     26  C   UNL     1      18.977  49.618 100.652  0.00  0.00    -0.064 C 
ATOM     27  C   UNL     1      20.113  50.100 101.597  0.00  0.00    +0.066 C 
ENDBRANCH  19  20
ENDBRANCH  18  19
ENDBRANCH  14  15
ENDBRANCH  12  13
TORSDOF 6
ENDMDL
MODEL 3
REMARK VINA RESULT:      -7.7     37.818     40.171
REMARK  Name = C:\Users\Docking\Desktop\test protocol\1iep_ligandH.pdb
REMARK  8 active torsions:
REMARK  status: ('A' for Active; 'I' for Inactive)
REMARK    1  A    between atoms: _5  and  _11
REMARK    2  A    between atoms: _19  and  _21
REMARK    3  A    between atoms: _22  and  _66
REMARK    4  A    between atoms: _27  and  _30
REMARK    5  A    between atoms: _32  and  _33
REMARK    6  A    between atoms: _38  and  _43
REMARK    7  A    between atoms: _43  and  _46
REMARK    8  A    between atoms: _53  and  _55
REMARK                            x       y       z     vdW  Elec       q    Type
REMARK                         _______ _______ _______ _____ _____    ______ ____
ROOT
ATOM     10  C   UNL     1      28.064  42.755 103.502  0.00  0.00    +0.038 A 
ATOM     11  C   UNL     1      28.572  42.149 104.680  0.00  0.00    +0.047 A 
ATOM     12  C   UNL     1      29.766  41.319 104.644  0.00  0.00    +0.035 A 
ATOM     32  C   UNL     1      30.419  41.128 103.392  0.00  0.00    +0.024 A 
ATOM     33  C   UNL     1      29.916  41.735 102.185  0.00  0.00    +0.007 A 
ATOM     34  C   UNL     1      28.737  42.553 102.214  0.00  0.00    -0.029 A 
ATOM     35  C   UNL     1      28.238  43.174 100.888  0.00  0.00    +0.045 C 
ENDROOT
BRANCH  10   9
ATOM      4  C   UNL     1      25.861  46.970 104.148  0.00  0.00    +0.077 A 
ATOM      5  C   UNL     1      27.105  47.657 104.345  0.00  0.00    +0.048 A 
ATOM      6  C   UNL     1      28.289  46.888 104.279  0.00  0.00    +0.116 A 
ATOM      7  N   UNL     1      28.221  45.533 104.034  0.00  0.00    -0.223 NA
ATOM      8  C   UNL     1      27.005  44.902 103.850  0.00  0.00    +0.220 A 
ATOM      9  N   UNL     1      26.914  43.542 103.594  0.00  0.00    -0.283 N 
ATOM     36  H   UNL     1      25.997  43.112 103.472  0.00  0.00    +0.155 HD
ATOM     37  N   UNL     1      25.860  45.614 103.909  0.00  0.00    -0.214 NA
BRANCH   4   3
ATOM      1  C   UNL     1      22.727  49.099 103.176  0.00  0.00    +0.020 A 
ATOM      2  C   UNL     1      24.024  48.469 103.091  0.00  0.00    +0.013 A 
ATOM      3  C   UNL     1      24.526  47.646 104.184  0.00  0.00    +0.019 A 
ATOM     38  C   UNL     1      23.682  47.478 105.358  0.00  0.00    +0.120 A 
ATOM     39  N   UNL     1      22.438  48.098 105.412  0.00  0.00    -0.263 NA
ATOM     40  C   UNL     1      21.946  48.894 104.367  0.00  0.00    +0.111 A 
ENDBRANCH   4   3
ENDBRANCH  10   9
BRANCH  12  13
ATOM     13  N   UNL     1      30.324  40.672 105.806  0.00  0.00    -0.281 N 
ATOM     14  C   UNL     1      30.200  39.345 106.184  0.00  0.00    +0.248 C 
ATOM     30  O   UNL     1      29.408  38.557 105.688  0.00  0.00    -0.270 OA
ATOM     31  H   UNL     1      30.877  41.264 106.425  0.00  0.00    +0.155 HD
BRANCH  14  15
ATOM     15  C   UNL     1      31.071  38.822 107.279  0.00  0.00    +0.037 A 
ATOM     16  C   UNL     1      32.188  37.917 106.996  0.00  0.00    +0.013 A 
ATOM     17  C   UNL     1      33.002  37.413 108.073  0.00  0.00    +0.005 A 
ATOM     18  C   UNL     1      32.703  37.815 109.445  0.00  0.00    -0.033 A 
ATOM     28  C   UNL     1      31.592  38.718 109.698  0.00  0.00    +0.005 A 
ATOM     29  C   UNL     1      30.791  39.213 108.645  0.00  0.00    +0.013 A 
BRANCH  18  19
ATOM     19  C   UNL     1      33.506  37.310 110.659  0.00  0.00    +0.119 C 
BRANCH  19  20
ATOM     20  N   UNL     1      34.979  37.145 110.483  0.00  0.00    -0.302 NA
ATOM     21  C   UNL     1      35.394  35.671 110.459  0.00  0.00    +0.066 C 
ATOM     22  C   UNL     1      36.935  35.516 110.252  0.00  0.00    -0.064 C 
ATOM     23  N   UNL     1      37.674  36.268 111.360  0.00  0.00    +0.379 N 
ATOM     24  C   UNL     1      39.123  36.077 111.201  0.00  0.00    -0.096 C 
ATOM     25  H   UNL     1      37.377  35.814 112.334  0.00  0.00    -0.082 HD
ATOM     26  C   UNL     1      37.266  37.735 111.392  0.00  0.00    -0.064 C 
ATOM     27  C   UNL     1      35.729  37.877 111.569  0.00  0.00    +0.066 C 
ENDBRANCH  19  20
ENDBRANCH  18  19
ENDBRANCH  14  15
ENDBRANCH  12  13
TORSDOF 6
ENDMDL
MODEL 4
REMARK VINA RESULT:      -7.6     26.037     30.498
REMARK  Name = C:\Users\Docking\Desktop\test protocol\1iep_ligandH.pdb
REMARK  8 active torsions:
REMARK  status: ('A' for Active; 'I' for Inactive)
REMARK    1  A    between atoms: _5  and  _11
REMARK    2  A    between atoms: _19  and  _21
REMARK    3  A    between atoms: _22  and  _66
REMARK    4  A    between atoms: _27  and  _30
REMARK    5  A    between atoms: _32  and  _33
REMARK    6  A    between atoms: _38  and  _43
REMARK    7  A    between atoms: _43  and  _46
REMARK    8  A    between atoms: _53  and  _55
REMARK                            x       y       z     vdW  Elec       q    Type
REMARK                         _______ _______ _______ _____ _____    ______ ____
ROOT
ATOM     10  C   UNL     1      53.239  47.535  98.299  0.00  0.00    +0.038 A 
ATOM     11  C   UNL     1      52.465  46.369  98.065  0.00  0.00    +0.047 A 
ATOM     12  C   UNL     1      51.682  46.217  96.849  0.00  0.00    +0.035 A 
ATOM     32  C   UNL     1      51.712  47.271  95.890  0.00  0.00    +0.024 A 
ATOM     33  C   UNL     1      52.492  48.463  96.112  0.00  0.00    +0.007 A 
ATOM     34  C   UNL     1      53.265  48.620  97.311  0.00  0.00    -0.029 A 
ATOM     35  C   UNL     1      54.078  49.922  97.499  0.00  0.00    +0.045 C 
ENDROOT
BRANCH  10   9
ATOM      4  C   UNL     1      57.159  46.671 100.930  0.00  0.00    +0.077 A 
ATOM      5  C   UNL     1      57.789  45.950  99.862  0.00  0.00    +0.048 A 
ATOM      6  C   UNL     1      57.068  45.818  98.654  0.00  0.00    +0.116 A 
ATOM      7  N   UNL     1      55.811  46.370  98.534  0.00  0.00    -0.223 NA
ATOM      8  C   UNL     1      55.232  47.058  99.585  0.00  0.00    +0.220 A 
ATOM      9  N   UNL     1      53.972  47.628  99.484  0.00  0.00    -0.283 N 
ATOM     36  H   UNL     1      53.576  48.121 100.284  0.00  0.00    +0.155 HD
ATOM     37  N   UNL     1      55.899  47.196 100.749  0.00  0.00    -0.214 NA
BRANCH   4   3
ATOM      1  C   UNL     1      57.831  47.888 104.586  0.00  0.00    +0.020 A 
ATOM      2  C   UNL     1      57.175  47.701 103.313  0.00  0.00    +0.013 A 
ATOM      3  C   UNL     1      57.795  46.898 102.266  0.00  0.00    +0.019 A 
ATOM     38  C   UNL     1      59.090  46.294 102.542  0.00  0.00    +0.120 A 
ATOM     39  N   UNL     1      59.699  46.494 103.777  0.00  0.00    -0.263 NA
ATOM     40  C   UNL     1      59.112  47.265 104.792  0.00  0.00    +0.111 A 
ENDBRANCH   4   3
ENDBRANCH  10   9
BRANCH  12  13
ATOM     13  N   UNL     1      50.871  45.060  96.561  0.00  0.00    -0.281 N 
ATOM     14  C   UNL     1      51.223  43.932  95.838  0.00  0.00    +0.248 C 
ATOM     30  O   UNL     1      52.225  43.841  95.144  0.00  0.00    -0.270 OA
ATOM     31  H   UNL     1      49.922  45.075  96.935  0.00  0.00    +0.155 HD
BRANCH  14  15
ATOM     15  C   UNL     1      50.324  42.739  95.879  0.00  0.00    +0.037 A 
ATOM     16  C   UNL     1      48.947  42.806  95.385  0.00  0.00    +0.013 A 
ATOM     17  C   UNL     1      48.096  41.645  95.452  0.00  0.00    +0.005 A 
ATOM     18  C   UNL     1      48.622  40.404  96.016  0.00  0.00    -0.033 A 
ATOM     28  C   UNL     1      49.994  40.363  96.495  0.00  0.00    +0.005 A 
ATOM     29  C   UNL     1      50.830  41.500  96.432  0.00  0.00    +0.013 A 
BRANCH  18  19
ATOM     19  C   UNL     1      47.779  39.122  96.148  0.00  0.00    +0.119 C 
BRANCH  19  20
ATOM     20  N   UNL     1      47.976  38.296  97.376  0.00  0.00    -0.302 NA
ATOM     21  C   UNL     1      48.251  36.827  97.043  0.00  0.00    +0.066 C 
ATOM     22  C   UNL     1      48.477  35.982  98.339  0.00  0.00    -0.064 C 
ATOM     23  N   UNL     1      47.255  36.112  99.250  0.00  0.00    +0.379 N 
ATOM     24  C   UNL     1      47.440  35.273 100.443  0.00  0.00    -0.096 C 
ATOM     25  H   UNL     1      46.374  35.717  98.691  0.00  0.00    -0.082 HD
ATOM     26  C   UNL     1      46.973  37.570  99.584  0.00  0.00    -0.064 C 
ATOM     27  C   UNL     1      46.779  38.407  98.288  0.00  0.00    +0.066 C 
ENDBRANCH  19  20
ENDBRANCH  18  19
ENDBRANCH  14  15
ENDBRANCH  12  13
TORSDOF 6
ENDMDL
MODEL 5
REMARK VINA RESULT:      -7.5     22.823     26.426
REMARK  Name = C:\Users\Docking\Desktop\test protocol\1iep_ligandH.pdb
REMARK  8 active torsions:
REMARK  status: ('A' for Active; 'I' for Inactive)
REMARK    1  A    between atoms: _5  and  _11
REMARK    2  A    between atoms: _19  and  _21
REMARK    3  A    between atoms: _22  and  _66
REMARK    4  A    between atoms: _27  and  _30
REMARK    5  A    between atoms: _32  and  _33
REMARK    6  A    between atoms: _38  and  _43
REMARK    7  A    between atoms: _43  and  _46
REMARK    8  A    between atoms: _53  and  _55
REMARK                            x       y       z     vdW  Elec       q    Type
REMARK                         _______ _______ _______ _____ _____    ______ ____
ROOT
ATOM     10  C   UNL     1      57.179  45.889 102.596  0.00  0.00    +0.038 A 
ATOM     11  C   UNL     1      56.405  46.837 101.880  0.00  0.00    +0.047 A 
ATOM     12  C   UNL     1      56.359  46.826 100.426  0.00  0.00    +0.035 A 
ATOM     32  C   UNL     1      57.112  45.834  99.733  0.00  0.00    +0.024 A 
ATOM     33  C   UNL     1      57.905  44.863 100.446  0.00  0.00    +0.007 A 
ATOM     34  C   UNL     1      57.957  44.871 101.880  0.00  0.00    -0.029 A 
ATOM     35  C   UNL     1      58.829  43.810 102.591  0.00  0.00    +0.045 C 
ENDROOT
BRANCH  10   9
ATOM      4  C   UNL     1      58.752  47.709 106.750  0.00  0.00    +0.077 A 
ATOM      5  C   UNL     1      59.654  48.604 106.084  0.00  0.00    +0.048 A 
ATOM      6  C   UNL     1      59.688  48.560 104.672  0.00  0.00    +0.116 A 
ATOM      7  N   UNL     1      58.876  47.682 103.988  0.00  0.00    -0.223 NA
ATOM      8  C   UNL     1      58.019  46.831 104.660  0.00  0.00    +0.220 A 
ATOM      9  N   UNL     1      57.187  45.945 103.992  0.00  0.00    -0.283 N 
ATOM     36  H   UNL     1      56.575  45.328 104.525  0.00  0.00    +0.155 HD
ATOM     37  N   UNL     1      57.969  46.853 106.009  0.00  0.00    -0.214 NA
BRANCH   4   3
ATOM      1  C   UNL     1      59.122  48.422 110.578  0.00  0.00    +0.020 A 
ATOM      2  C   UNL     1      59.305  48.531 109.149  0.00  0.00    +0.013 A 
ATOM      3  C   UNL     1      58.600  47.639 108.238  0.00  0.00    +0.019 A 
ATOM     38  C   UNL     1      57.709  46.640 108.809  0.00  0.00    +0.120 A 
ATOM     39  N   UNL     1      57.554  46.558 110.189  0.00  0.00    -0.263 NA
ATOM     40  C   UNL     1      58.228  47.410 111.076  0.00  0.00    +0.111 A 
ENDBRANCH   4   3
ENDBRANCH  10   9
BRANCH  12  13
ATOM     13  N   UNL     1      55.597  47.768  99.644  0.00  0.00    -0.281 N 
ATOM     14  C   UNL     1      54.334  47.599  99.100  0.00  0.00    +0.248 C 
ATOM     30  O   UNL     1      53.754  46.526  99.022  0.00  0.00    -0.270 OA
ATOM     31  H   UNL     1      56.042  48.669  99.471  0.00  0.00    +0.155 HD
BRANCH  14  15
ATOM     15  C   UNL     1      53.620  48.790  98.549  0.00  0.00    +0.037 A 
ATOM     16  C   UNL     1      52.189  48.998  98.792  0.00  0.00    +0.013 A 
ATOM     17  C   UNL     1      51.521  50.147  98.235  0.00  0.00    +0.005 A 
ATOM     18  C   UNL     1      52.283  51.099  97.430  0.00  0.00    -0.033 A 
ATOM     28  C   UNL     1      53.702  50.872  97.210  0.00  0.00    +0.005 A 
ATOM     29  C   UNL     1      54.360  49.746  97.754  0.00  0.00    +0.013 A 
BRANCH  18  19
ATOM     19  C   UNL     1      51.647  52.342  96.780  0.00  0.00    +0.119 C 
BRANCH  19  20
ATOM     20  N   UNL     1      50.908  52.139  95.498  0.00  0.00    -0.302 NA
ATOM     21  C   UNL     1      51.836  52.218  94.282  0.00  0.00    +0.066 C 
ATOM     22  C   UNL     1      51.050  51.982  92.951  0.00  0.00    -0.064 C 
ATOM     23  N   UNL     1      49.922  53.009  92.838  0.00  0.00    +0.379 N 
ATOM     24  C   UNL     1      49.218  52.826  91.560  0.00  0.00    -0.096 C 
ATOM     25  H   UNL     1      50.388  54.022  92.827  0.00  0.00    -0.082 HD
ATOM     26  C   UNL     1      48.997  52.940  94.045  0.00  0.00    -0.064 C 
ATOM     27  C   UNL     1      49.792  53.146  95.364  0.00  0.00    +0.066 C 
ENDBRANCH  19  20
ENDBRANCH  18  19
ENDBRANCH  14  15
ENDBRANCH  12  13
TORSDOF 6
ENDMDL
