MODEL 1
REMARK VINA RESULT:      -7.7      0.000      0.000
REMARK  Name = C:\Users\Docking\Desktop\test protocol\1iep_ligandH.pdb
REMARK  8 active torsions:
REMARK  status: ('A' for Active; 'I' for Inactive)
REMARK    1  A    between atoms: _5  and  _11
REMARK    2  A    between atoms: _19  and  _21
REMARK    3  A    between atoms: _22  and  _66
REMARK    4  A    between atoms: _27  and  _30
REMARK    5  A    between atoms: _32  and  _33
REMARK    6  A    between atoms: _38  and  _43
REMARK    7  A    between atoms: _43  and  _46
REMARK    8  A    between atoms: _53  and  _55
REMARK                            x       y       z     vdW  Elec       q    Type
REMARK                         _______ _______ _______ _____ _____    ______ ____
ROOT
ATOM     10  C   UNL     1      53.249  48.154  97.869  0.00  0.00    +0.038 A 
ATOM     11  C   UNL     1      52.504  46.975  97.611  0.00  0.00    +0.047 A 
ATOM     12  C   UNL     1      51.698  46.842  96.408  0.00  0.00    +0.035 A 
ATOM     32  C   UNL     1      51.675  47.929  95.486  0.00  0.00    +0.024 A 
ATOM     33  C   UNL     1      52.426  49.135  95.732  0.00  0.00    +0.007 A 
ATOM     34  C   UNL     1      53.220  49.273  96.919  0.00  0.00    -0.029 A 
ATOM     35  C   UNL     1      53.999  50.591  97.135  0.00  0.00    +0.045 C 
ENDROOT
BRANCH  10   9
ATOM      4  C   UNL     1      57.071  46.971 100.520  0.00  0.00    +0.077 A 
ATOM      5  C   UNL     1      57.590  46.112  99.495  0.00  0.00    +0.048 A 
ATOM      6  C   UNL     1      56.839  45.996  98.304  0.00  0.00    +0.116 A 
ATOM      7  N   UNL     1      55.659  46.693  98.159  0.00  0.00    -0.223 NA
ATOM      8  C   UNL     1      55.186  47.512  99.168  0.00  0.00    +0.220 A 
ATOM      9  N   UNL     1      54.006  48.228  99.040  0.00  0.00    -0.283 N 
ATOM     36  H   UNL     1      53.687  48.815  99.810  0.00  0.00    +0.155 HD
ATOM     37  N   UNL     1      55.883  47.638 100.316  0.00  0.00    -0.214 NA
BRANCH   4   3
ATOM      1  C   UNL     1      57.826  48.117 104.183  0.00  0.00    +0.020 A 
ATOM      2  C   UNL     1      57.126  47.925 102.934  0.00  0.00    +0.013 A 
ATOM      3  C   UNL     1      57.750  47.199 101.835  0.00  0.00    +0.019 A 
ATOM     38  C   UNL     1      59.094  46.676 102.034  0.00  0.00    +0.120 A 
ATOM     39  N   UNL     1      59.744  46.878 103.247  0.00  0.00    -0.263 NA
ATOM     40  C   UNL     1      59.154  47.576 104.312  0.00  0.00    +0.111 A 
ENDBRANCH   4   3
ENDBRANCH  10   9
BRANCH  12  13
ATOM     13  N   UNL     1      50.914  45.672  96.097  0.00  0.00    -0.281 N 
ATOM     14  C   UNL     1      51.278  44.586  95.317  0.00  0.00    +0.248 C 
ATOM     30  O   UNL     1      52.259  44.555  94.590  0.00  0.00    -0.270 OA
ATOM     31  H   UNL     1      49.978  45.640  96.501  0.00  0.00    +0.155 HD
BRANCH  14  15
ATOM     15  C   UNL     1      50.419  43.363  95.337  0.00  0.00    +0.037 A 
ATOM     16  C   UNL     1      49.011  43.416  94.933  0.00  0.00    +0.013 A 
ATOM     17  C   UNL     1      48.201  42.225  94.978  0.00  0.00    +0.005 A 
ATOM     18  C   UNL     1      48.797  40.969  95.427  0.00  0.00    -0.033 A 
ATOM     28  C   UNL     1      50.197  40.944  95.817  0.00  0.00    +0.005 A 
ATOM     29  C   UNL     1      50.994  42.110  95.775  0.00  0.00    +0.013 A 
BRANCH  18  19
ATOM     19  C   UNL     1      48.001  39.654  95.527  0.00  0.00    +0.119 C 
BRANCH  19  20
ATOM     20  N   UNL     1      48.152  38.858  96.781  0.00  0.00    -0.302 NA
ATOM     21  C   UNL     1      48.147  37.351  96.509  0.00  0.00    +0.066 C 
ATOM     22  C   UNL     1      48.328  36.533  97.829  0.00  0.00    -0.064 C 
ATOM     23  N   UNL     1      47.220  36.909  98.814  0.00  0.00    +0.379 N 
ATOM     24  C   UNL     1      47.353  36.099 100.034  0.00  0.00    -0.096 C 
ATOM     25  H   UNL     1      46.244  36.649  98.340  0.00  0.00    -0.082 HD
ATOM     26  C   UNL     1      47.215  38.406  99.088  0.00  0.00    -0.064 C 
ATOM     27  C   UNL     1      47.065  39.210  97.767  0.00  0.00    +0.066 C 
ENDBRANCH  19  20
ENDBRANCH  18  19
ENDBRANCH  14  15
ENDBRANCH  12  13
TORSDOF 6
ENDMDL
MODEL 2
REMARK VINA RESULT:      -7.4     37.377     40.635
REMARK  Name = C:\Users\Docking\Desktop\test protocol\1iep_ligandH.pdb
REMARK  8 active torsions:
REMARK  status: ('A' for Active; 'I' for Inactive)
REMARK    1  A    between atoms: _5  and  _11
REMARK    2  A    between atoms: _19  and  _21
REMARK    3  A    between atoms: _22  and  _66
REMARK    4  A    between atoms: _27  and  _30
REMARK    5  A    between atoms: _32  and  _33
REMARK    6  A    between atoms: _38  and  _43
REMARK    7  A    between atoms: _43  and  _46
REMARK    8  A    between atoms: _53  and  _55
REMARK                            x       y       z     vdW  Elec       q    Type
REMARK                         _______ _______ _______ _____ _____    ______ ____
ROOT
ATOM     10  C   UNL     1      53.340  83.279 103.635  0.00  0.00    +0.038 A 
ATOM     11  C   UNL     1      52.952  83.065 104.983  0.00  0.00    +0.047 A 
ATOM     12  C   UNL     1      53.937  83.036 106.053  0.00  0.00    +0.035 A 
ATOM     32  C   UNL     1      55.308  83.231 105.716  0.00  0.00    +0.024 A 
ATOM     33  C   UNL     1      55.719  83.449 104.351  0.00  0.00    +0.007 A 
ATOM     34  C   UNL     1      54.753  83.476 103.291  0.00  0.00    -0.029 A 
ATOM     35  C   UNL     1      55.252  83.707 101.845  0.00  0.00    +0.045 C 
ENDROOT
BRANCH  10   9
ATOM      4  C   UNL     1      50.245  85.590 100.785  0.00  0.00    +0.077 A 
ATOM      5  C   UNL     1      50.607  86.867 101.329  0.00  0.00    +0.048 A 
ATOM      6  C   UNL     1      51.588  86.885 102.346  0.00  0.00    +0.116 A 
ATOM      7  N   UNL     1      52.159  85.707 102.778  0.00  0.00    -0.223 NA
ATOM      8  C   UNL     1      51.786  84.492 102.234  0.00  0.00    +0.220 A 
ATOM      9  N   UNL     1      52.352  83.297 102.648  0.00  0.00    -0.283 N 
ATOM     36  H   UNL     1      52.045  82.420 102.226  0.00  0.00    +0.155 HD
ATOM     37  N   UNL     1      50.850  84.448 101.263  0.00  0.00    -0.214 NA
BRANCH   4   3
ATOM      1  C   UNL     1      46.883  85.580  98.787  0.00  0.00    +0.020 A 
ATOM      2  C   UNL     1      47.826  85.776  99.863  0.00  0.00    +0.013 A 
ATOM      3  C   UNL     1      49.227  85.407  99.703  0.00  0.00    +0.019 A 
ATOM     38  C   UNL     1      49.644  84.837  98.431  0.00  0.00    +0.120 A 
ATOM     39  N   UNL     1      48.713  84.657  97.413  0.00  0.00    -0.263 NA
ATOM     40  C   UNL     1      47.362  85.008  97.556  0.00  0.00    +0.111 A 
ENDBRANCH   4   3
ENDBRANCH  10   9
BRANCH  12  13
ATOM     13  N   UNL     1      53.604  82.815 107.439  0.00  0.00    -0.281 N 
ATOM     14  C   UNL     1      52.913  83.658 108.294  0.00  0.00    +0.248 C 
ATOM     30  O   UNL     1      52.660  84.829 108.054  0.00  0.00    -0.270 OA
ATOM     31  H   UNL     1      53.916  81.929 107.838  0.00  0.00    +0.155 HD
BRANCH  14  15
ATOM     15  C   UNL     1      52.448  83.127 109.611  0.00  0.00    +0.037 A 
ATOM     16  C   UNL     1      51.300  82.221 109.703  0.00  0.00    +0.013 A 
ATOM     17  C   UNL     1      50.862  81.737 110.988  0.00  0.00    +0.005 A 
ATOM     18  C   UNL     1      51.573  82.158 112.193  0.00  0.00    -0.033 A 
ATOM     28  C   UNL     1      52.712  83.054 112.072  0.00  0.00    +0.005 A 
ATOM     29  C   UNL     1      53.144  83.531 110.814  0.00  0.00    +0.013 A 
BRANCH  18  19
ATOM     19  C   UNL     1      51.162  81.708 113.607  0.00  0.00    +0.119 C 
BRANCH  19  20
ATOM     20  N   UNL     1      50.315  80.483 113.716  0.00  0.00    -0.302 NA
ATOM     21  C   UNL     1      49.692  80.337 115.107  0.00  0.00    +0.066 C 
ATOM     22  C   UNL     1      48.791  79.062 115.196  0.00  0.00    -0.064 C 
ATOM     23  N   UNL     1      49.623  77.828 114.843  0.00  0.00    +0.379 N 
ATOM     24  C   UNL     1      48.794  76.622 114.982  0.00  0.00    -0.096 C 
ATOM     25  H   UNL     1      50.452  77.756 115.584  0.00  0.00    -0.082 HD
ATOM     26  C   UNL     1      50.248  77.966 113.462  0.00  0.00    -0.064 C 
ATOM     27  C   UNL     1      51.118  79.252 113.375  0.00  0.00    +0.066 C 
ENDBRANCH  19  20
ENDBRANCH  18  19
ENDBRANCH  14  15
ENDBRANCH  12  13
TORSDOF 6
ENDMDL
MODEL 3
REMARK VINA RESULT:      -7.4      6.778      9.616
REMARK  Name = C:\Users\Docking\Desktop\test protocol\1iep_ligandH.pdb
REMARK  8 active torsions:
REMARK  status: ('A' for Active; 'I' for Inactive)
REMARK    1  A    between atoms: _5  and  _11
REMARK    2  A    between atoms: _19  and  _21
REMARK    3  A    between atoms: _22  and  _66
REMARK    4  A    between atoms: _27  and  _30
REMARK    5  A    between atoms: _32  and  _33
REMARK    6  A    between atoms: _38  and  _43
REMARK    7  A    between atoms: _43  and  _46
REMARK    8  A    between atoms: _53  and  _55
REMARK                            x       y       z     vdW  Elec       q    Type
REMARK                         _______ _______ _______ _____ _____    ______ ____
ROOT
ATOM     10  C   UNL     1      57.312  46.327 102.676  0.00  0.00    +0.038 A 
ATOM     11  C   UNL     1      56.470  47.119 101.854  0.00  0.00    +0.047 A 
ATOM     12  C   UNL     1      56.430  46.928 100.413  0.00  0.00    +0.035 A 
ATOM     32  C   UNL     1      57.259  45.919  99.841  0.00  0.00    +0.024 A 
ATOM     33  C   UNL     1      58.122  45.106 100.661  0.00  0.00    +0.007 A 
ATOM     34  C   UNL     1      58.168  45.291 102.083  0.00  0.00    -0.029 A 
ATOM     35  C   UNL     1      59.116  44.395 102.913  0.00  0.00    +0.045 C 
ENDROOT
BRANCH  10   9
ATOM      4  C   UNL     1      58.859  48.639 106.587  0.00  0.00    +0.077 A 
ATOM      5  C   UNL     1      59.765  49.448 105.823  0.00  0.00    +0.048 A 
ATOM      6  C   UNL     1      59.808  49.232 104.427  0.00  0.00    +0.116 A 
ATOM      7  N   UNL     1      59.000  48.277 103.849  0.00  0.00    -0.223 NA
ATOM      8  C   UNL     1      58.138  47.513 104.615  0.00  0.00    +0.220 A 
ATOM      9  N   UNL     1      57.311  46.553 104.054  0.00  0.00    -0.283 N 
ATOM     36  H   UNL     1      56.695  46.005 104.654  0.00  0.00    +0.155 HD
ATOM     37  N   UNL     1      58.080  47.699 105.950  0.00  0.00    -0.214 NA
BRANCH   4   3
ATOM      1  C   UNL     1      57.388  48.448 110.207  0.00  0.00    +0.020 A 
ATOM      2  C   UNL     1      57.494  48.318 108.772  0.00  0.00    +0.013 A 
ATOM      3  C   UNL     1      58.697  48.751 108.071  0.00  0.00    +0.019 A 
ATOM     38  C   UNL     1      59.783  49.315 108.858  0.00  0.00    +0.120 A 
ATOM     39  N   UNL     1      59.652  49.429 110.239  0.00  0.00    -0.263 NA
ATOM     40  C   UNL     1      58.499  49.017 110.924  0.00  0.00    +0.111 A 
ENDBRANCH   4   3
ENDBRANCH  10   9
BRANCH  12  13
ATOM     13  N   UNL     1      55.600  47.707  99.527  0.00  0.00    -0.281 N 
ATOM     14  C   UNL     1      54.249  47.551  99.268  0.00  0.00    +0.248 C 
ATOM     30  O   UNL     1      53.590  46.576  99.599  0.00  0.00    -0.270 OA
ATOM     31  H   UNL     1      56.067  48.467  99.031  0.00  0.00    +0.155 HD
BRANCH  14  15
ATOM     15  C   UNL     1      53.527  48.625  98.521  0.00  0.00    +0.037 A 
ATOM     16  C   UNL     1      52.081  48.811  98.664  0.00  0.00    +0.013 A 
ATOM     17  C   UNL     1      51.407  49.844  97.918  0.00  0.00    +0.005 A 
ATOM     18  C   UNL     1      52.180  50.702  97.023  0.00  0.00    -0.033 A 
ATOM     28  C   UNL     1      53.615  50.499  96.904  0.00  0.00    +0.005 A 
ATOM     29  C   UNL     1      54.279  49.487  97.633  0.00  0.00    +0.013 A 
BRANCH  18  19
ATOM     19  C   UNL     1      51.541  51.816  96.173  0.00  0.00    +0.119 C 
BRANCH  19  20
ATOM     20  N   UNL     1      51.784  51.776  94.700  0.00  0.00    -0.302 NA
ATOM     21  C   UNL     1      50.919  52.791  93.948  0.00  0.00    +0.066 C 
ATOM     22  C   UNL     1      51.201  52.752  92.411  0.00  0.00    -0.064 C 
ATOM     23  N   UNL     1      50.955  51.337  91.886  0.00  0.00    +0.379 N 
ATOM     24  C   UNL     1      51.164  51.310  90.431  0.00  0.00    -0.096 C 
ATOM     25  H   UNL     1      49.886  51.086  92.079  0.00  0.00    -0.082 HD
ATOM     26  C   UNL     1      51.809  50.320  92.630  0.00  0.00    -0.064 C 
ATOM     27  C   UNL     1      51.542  50.388  94.160  0.00  0.00    +0.066 C 
ENDBRANCH  19  20
ENDBRANCH  18  19
ENDBRANCH  14  15
ENDBRANCH  12  13
TORSDOF 6
ENDMDL
MODEL 4
REMARK VINA RESULT:      -7.4     28.152     32.107
REMARK  Name = C:\Users\Docking\Desktop\test protocol\1iep_ligandH.pdb
REMARK  8 active torsions:
REMARK  status: ('A' for Active; 'I' for Inactive)
REMARK    1  A    between atoms: _5  and  _11
REMARK    2  A    between atoms: _19  and  _21
REMARK    3  A    between atoms: _22  and  _66
REMARK    4  A    between atoms: _27  and  _30
REMARK    5  A    between atoms: _32  and  _33
REMARK    6  A    between atoms: _38  and  _43
REMARK    7  A    between atoms: _43  and  _46
REMARK    8  A    between atoms: _53  and  _55
REMARK                            x       y       z     vdW  Elec       q    Type
REMARK                         _______ _______ _______ _____ _____    ______ ____
ROOT
ATOM     10  C   UNL     1      22.409  48.945 102.893  0.00  0.00    +0.038 A 
ATOM     11  C   UNL     1      22.541  50.325 103.192  0.00  0.00    +0.047 A 
ATOM     12  C   UNL     1      21.373  51.173 103.366  0.00  0.00    +0.035 A 
ATOM     32  C   UNL     1      20.083  50.582 103.231  0.00  0.00    +0.024 A 
ATOM     33  C   UNL     1      19.929  49.181 102.927  0.00  0.00    +0.007 A 
ATOM     34  C   UNL     1      21.079  48.340 102.752  0.00  0.00    -0.029 A 
ATOM     35  C   UNL     1      20.855  46.846 102.420  0.00  0.00    +0.045 C 
ENDROOT
BRANCH  10   9
ATOM      4  C   UNL     1      25.811  46.021 104.599  0.00  0.00    +0.077 A 
ATOM      5  C   UNL     1      25.254  46.046 105.921  0.00  0.00    +0.048 A 
ATOM      6  C   UNL     1      24.095  46.830 106.121  0.00  0.00    +0.116 A 
ATOM      7  N   UNL     1      23.543  47.531 105.071  0.00  0.00    -0.223 NA
ATOM      8  C   UNL     1      24.107  47.487 103.809  0.00  0.00    +0.220 A 
ATOM      9  N   UNL     1      23.565  48.178 102.737  0.00  0.00    -0.283 N 
ATOM     36  H   UNL     1      24.015  48.125 101.823  0.00  0.00    +0.155 HD
ATOM     37  N   UNL     1      25.215  46.747 103.592  0.00  0.00    -0.214 NA
BRANCH   4   3
ATOM      1  C   UNL     1      29.037  44.780 102.768  0.00  0.00    +0.020 A 
ATOM      2  C   UNL     1      27.868  45.569 103.082  0.00  0.00    +0.013 A 
ATOM      3  C   UNL     1      27.032  45.238 104.228  0.00  0.00    +0.019 A 
ATOM     38  C   UNL     1      27.410  44.093 105.044  0.00  0.00    +0.120 A 
ATOM     39  N   UNL     1      28.540  43.351 104.716  0.00  0.00    -0.263 NA
ATOM     40  C   UNL     1      29.351  43.659 103.614  0.00  0.00    +0.111 A 
ENDBRANCH   4   3
ENDBRANCH  10   9
BRANCH  12  13
ATOM     13  N   UNL     1      21.445  52.583 103.662  0.00  0.00    -0.281 N 
ATOM     14  C   UNL     1      21.809  53.185 104.856  0.00  0.00    +0.248 C 
ATOM     30  O   UNL     1      21.922  52.595 105.920  0.00  0.00    -0.270 OA
ATOM     31  H   UNL     1      21.199  53.213 102.899  0.00  0.00    +0.155 HD
BRANCH  14  15
ATOM     15  C   UNL     1      22.071  54.656 104.872  0.00  0.00    +0.037 A 
ATOM     16  C   UNL     1      23.246  55.226 104.207  0.00  0.00    +0.013 A 
ATOM     17  C   UNL     1      23.484  56.647 104.252  0.00  0.00    +0.005 A 
ATOM     18  C   UNL     1      22.544  57.508 104.965  0.00  0.00    -0.033 A 
ATOM     28  C   UNL     1      21.384  56.917 105.612  0.00  0.00    +0.005 A 
ATOM     29  C   UNL     1      21.148  55.524 105.570  0.00  0.00    +0.013 A 
BRANCH  18  19
ATOM     19  C   UNL     1      22.730  59.033 105.083  0.00  0.00    +0.119 C 
BRANCH  19  20
ATOM     20  N   UNL     1      23.559  59.534 106.220  0.00  0.00    -0.302 NA
ATOM     21  C   UNL     1      25.034  59.150 106.069  0.00  0.00    +0.066 C 
ATOM     22  C   UNL     1      25.890  59.702 107.255  0.00  0.00    -0.064 C 
ATOM     23  N   UNL     1      25.326  59.176 108.576  0.00  0.00    +0.379 N 
ATOM     24  C   UNL     1      26.163  59.646 109.689  0.00  0.00    -0.096 C 
ATOM     25  H   UNL     1      25.390  58.063 108.551  0.00  0.00    -0.082 HD
ATOM     26  C   UNL     1      23.859  59.550 108.733  0.00  0.00    -0.064 C 
ATOM     27  C   UNL     1      23.022  59.022 107.534  0.00  0.00    +0.066 C 
ENDBRANCH  19  20
ENDBRANCH  18  19
ENDBRANCH  14  15
ENDBRANCH  12  13
TORSDOF 6
ENDMDL
MODEL 5
REMARK VINA RESULT:      -7.4     28.936     33.172
REMARK  Name = C:\Users\Docking\Desktop\test protocol\1iep_ligandH.pdb
REMARK  8 active torsions:
REMARK  status: ('A' for Active; 'I' for Inactive)
REMARK    1  A    between atoms: _5  and  _11
REMARK    2  A    between atoms: _19  and  _21
REMARK    3  A    between atoms: _22  and  _66
REMARK    4  A    between atoms: _27  and  _30
REMARK    5  A    between atoms: _32  and  _33
REMARK    6  A    between atoms: _38  and  _43
REMARK    7  A    between atoms: _43  and  _46
REMARK    8  A    between atoms: _53  and  _55
REMARK                            x       y       z     vdW  Elec       q    Type
REMARK                         _______ _______ _______ _____ _____    ______ ____
ROOT
ATOM     10  C   UNL     1      46.780  68.020 118.581  0.00  0.00    +0.038 A 
ATOM     11  C   UNL     1      46.066  69.042 117.904  0.00  0.00    +0.047 A 
ATOM     12  C   UNL     1      44.616  69.122 117.978  0.00  0.00    +0.035 A 
ATOM     32  C   UNL     1      43.924  68.146 118.753  0.00  0.00    +0.024 A 
ATOM     33  C   UNL     1      44.634  67.099 119.446  0.00  0.00    +0.007 A 
ATOM     34  C   UNL     1      46.064  67.014 119.374  0.00  0.00    -0.029 A 
ATOM     35  C   UNL     1      46.772  65.867 120.133  0.00  0.00    +0.045 C 
ENDROOT
BRANCH  10   9
ATOM      4  C   UNL     1      50.825  66.963 116.223  0.00  0.00    +0.077 A 
ATOM      5  C   UNL     1      50.104  66.397 115.120  0.00  0.00    +0.048 A 
ATOM      6  C   UNL     1      48.694  66.391 115.201  0.00  0.00    +0.116 A 
ATOM      7  N   UNL     1      48.062  66.915 116.308  0.00  0.00    -0.223 NA
ATOM      8  C   UNL     1      48.787  67.451 117.356  0.00  0.00    +0.220 A 
ATOM      9  N   UNL     1      48.173  67.991 118.475  0.00  0.00    -0.283 N 
ATOM     36  H   UNL     1      48.743  68.370 119.230  0.00  0.00    +0.155 HD
ATOM     37  N   UNL     1      50.136  67.468 117.303  0.00  0.00    -0.214 NA
BRANCH   4   3
ATOM      1  C   UNL     1      54.570  67.591 115.285  0.00  0.00    +0.020 A 
ATOM      2  C   UNL     1      53.131  67.531 115.175  0.00  0.00    +0.013 A 
ATOM      3  C   UNL     1      52.319  67.045 116.283  0.00  0.00    +0.019 A 
ATOM     38  C   UNL     1      53.000  66.626 117.499  0.00  0.00    +0.120 A 
ATOM     39  N   UNL     1      54.387  66.693 117.575  0.00  0.00    -0.263 NA
ATOM     40  C   UNL     1      55.179  67.157 116.514  0.00  0.00    +0.111 A 
ENDBRANCH   4   3
ENDBRANCH  10   9
BRANCH  12  13
ATOM     13  N   UNL     1      43.837  70.132 117.306  0.00  0.00    -0.281 N 
ATOM     14  C   UNL     1      43.818  70.434 115.954  0.00  0.00    +0.248 C 
ATOM     30  O   UNL     1      44.633  70.021 115.143  0.00  0.00    -0.270 OA
ATOM     31  H   UNL     1      43.224  70.692 117.899  0.00  0.00    +0.155 HD
BRANCH  14  15
ATOM     15  C   UNL     1      42.748  71.337 115.431  0.00  0.00    +0.037 A 
ATOM     16  C   UNL     1      41.698  71.860 116.309  0.00  0.00    +0.013 A 
ATOM     17  C   UNL     1      40.668  72.716 115.775  0.00  0.00    +0.005 A 
ATOM     18  C   UNL     1      40.685  73.055 114.354  0.00  0.00    -0.033 A 
ATOM     28  C   UNL     1      41.741  72.527 113.507  0.00  0.00    +0.005 A 
ATOM     29  C   UNL     1      42.752  71.687 114.027  0.00  0.00    +0.013 A 
BRANCH  18  19
ATOM     19  C   UNL     1      39.614  73.944 113.694  0.00  0.00    +0.119 C 
BRANCH  19  20
ATOM     20  N   UNL     1      38.400  74.267 114.502  0.00  0.00    -0.302 NA
ATOM     21  C   UNL     1      37.353  73.151 114.437  0.00  0.00    +0.066 C 
ATOM     22  C   UNL     1      36.100  73.496 115.306  0.00  0.00    -0.064 C 
ATOM     23  N   UNL     1      35.506  74.824 114.836  0.00  0.00    +0.379 N 
ATOM     24  C   UNL     1      34.294  75.122 115.612  0.00  0.00    -0.096 C 
ATOM     25  H   UNL     1      35.203  74.701 113.770  0.00  0.00    -0.082 HD
ATOM     26  C   UNL     1      36.542  75.939 114.895  0.00  0.00    -0.064 C 
ATOM     27  C   UNL     1      37.795  75.573 114.052  0.00  0.00    +0.066 C 
ENDBRANCH  19  20
ENDBRANCH  18  19
ENDBRANCH  14  15
ENDBRANCH  12  13
TORSDOF 6
ENDMDL
