MODEL 1
REMARK VINA RESULT:      -8.0      0.000      0.000
REMARK  Name = C:\Users\Docking\Desktop\test protocol\1iep_ligandH.pdb
REMARK  8 active torsions:
REMARK  status: ('A' for Active; 'I' for Inactive)
REMARK    1  A    between atoms: _5  and  _11
REMARK    2  A    between atoms: _19  and  _21
REMARK    3  A    between atoms: _22  and  _66
REMARK    4  A    between atoms: _27  and  _30
REMARK    5  A    between atoms: _32  and  _33
REMARK    6  A    between atoms: _38  and  _43
REMARK    7  A    between atoms: _43  and  _46
REMARK    8  A    between atoms: _53  and  _55
REMARK                            x       y       z     vdW  Elec       q    Type
REMARK                         _______ _______ _______ _____ _____    ______ ____
ROOT
ATOM     10  C   UNL     1      58.069  70.205 100.400  0.00  0.00    +0.038 A 
ATOM     11  C   UNL     1      58.448  71.515 100.788  0.00  0.00    +0.047 A 
ATOM     12  C   UNL     1      58.456  71.913 102.187  0.00  0.00    +0.035 A 
ATOM     32  C   UNL     1      58.075  70.949 103.166  0.00  0.00    +0.024 A 
ATOM     33  C   UNL     1      57.686  69.613 102.789  0.00  0.00    +0.007 A 
ATOM     34  C   UNL     1      57.673  69.216 101.410  0.00  0.00    -0.029 A 
ATOM     35  C   UNL     1      57.241  67.772 101.064  0.00  0.00    +0.045 C 
ENDROOT
BRANCH  10   9
ATOM      4  C   UNL     1      60.338  68.880  96.383  0.00  0.00    +0.077 A 
ATOM      5  C   UNL     1      61.614  68.865  97.038  0.00  0.00    +0.048 A 
ATOM      6  C   UNL     1      61.644  69.212  98.408  0.00  0.00    +0.116 A 
ATOM      7  N   UNL     1      60.479  69.546  99.063  0.00  0.00    -0.223 NA
ATOM      8  C   UNL     1      59.265  69.552  98.401  0.00  0.00    +0.220 A 
ATOM      9  N   UNL     1      58.080  69.877  99.043  0.00  0.00    -0.283 N 
ATOM     36  H   UNL     1      57.206  69.876  98.517  0.00  0.00    +0.155 HD
ATOM     37  N   UNL     1      59.210  69.226  97.093  0.00  0.00    -0.214 NA
BRANCH   4   3
ATOM      1  C   UNL     1      58.783  68.493  92.815  0.00  0.00    +0.020 A 
ATOM      2  C   UNL     1      58.921  68.849  94.208  0.00  0.00    +0.013 A 
ATOM      3  C   UNL     1      60.142  68.534  94.940  0.00  0.00    +0.019 A 
ATOM     38  C   UNL     1      61.213  67.854  94.227  0.00  0.00    +0.120 A 
ATOM     39  N   UNL     1      61.051  67.522  92.885  0.00  0.00    -0.263 NA
ATOM     40  C   UNL     1      59.880  67.819  92.171  0.00  0.00    +0.111 A 
ENDBRANCH   4   3
ENDBRANCH  10   9
BRANCH  12  13
ATOM     13  N   UNL     1      58.824  73.232 102.641  0.00  0.00    -0.281 N 
ATOM     14  C   UNL     1      59.298  74.291 101.884  0.00  0.00    +0.248 C 
ATOM     30  O   UNL     1      59.681  74.197 100.727  0.00  0.00    -0.270 OA
ATOM     31  H   UNL     1      58.723  73.405 103.641  0.00  0.00    +0.155 HD
BRANCH  14  15
ATOM     15  C   UNL     1      59.369  75.648 102.506  0.00  0.00    +0.037 A 
ATOM     16  C   UNL     1      60.364  76.632 102.072  0.00  0.00    +0.013 A 
ATOM     17  C   UNL     1      60.422  77.928 102.701  0.00  0.00    +0.005 A 
ATOM     18  C   UNL     1      59.480  78.247 103.771  0.00  0.00    -0.033 A 
ATOM     28  C   UNL     1      58.500  77.254 104.179  0.00  0.00    +0.005 A 
ATOM     29  C   UNL     1      58.440  75.983 103.565  0.00  0.00    +0.013 A 
BRANCH  18  19
ATOM     19  C   UNL     1      59.483  79.597 104.513  0.00  0.00    +0.119 C 
BRANCH  19  20
ATOM     20  N   UNL     1      58.459  80.604 104.104  0.00  0.00    -0.302 NA
ATOM     21  C   UNL     1      59.096  81.924 103.659  0.00  0.00    +0.066 C 
ATOM     22  C   UNL     1      58.012  82.958 103.214  0.00  0.00    -0.064 C 
ATOM     23  N   UNL     1      57.030  83.191 104.364  0.00  0.00    +0.379 N 
ATOM     24  C   UNL     1      56.043  84.206 103.968  0.00  0.00    -0.096 C 
ATOM     25  H   UNL     1      57.609  83.599 105.225  0.00  0.00    -0.082 HD
ATOM     26  C   UNL     1      56.394  81.883 104.814  0.00  0.00    -0.064 C 
ATOM     27  C   UNL     1      57.482  80.853 105.226  0.00  0.00    +0.066 C 
ENDBRANCH  19  20
ENDBRANCH  18  19
ENDBRANCH  14  15
ENDBRANCH  12  13
TORSDOF 6
ENDMDL
MODEL 2
REMARK VINA RESULT:      -7.9     37.150     39.166
REMARK  Name = C:\Users\Docking\Desktop\test protocol\1iep_ligandH.pdb
REMARK  8 active torsions:
REMARK  status: ('A' for Active; 'I' for Inactive)
REMARK    1  A    between atoms: _5  and  _11
REMARK    2  A    between atoms: _19  and  _21
REMARK    3  A    between atoms: _22  and  _66
REMARK    4  A    between atoms: _27  and  _30
REMARK    5  A    between atoms: _32  and  _33
REMARK    6  A    between atoms: _38  and  _43
REMARK    7  A    between atoms: _43  and  _46
REMARK    8  A    between atoms: _53  and  _55
REMARK                            x       y       z     vdW  Elec       q    Type
REMARK                         _______ _______ _______ _____ _____    ______ ____
ROOT
ATOM     10  C   UNL     1      27.657  51.136 114.243  0.00  0.00    +0.038 A 
ATOM     11  C   UNL     1      27.497  52.367 113.557  0.00  0.00    +0.047 A 
ATOM     12  C   UNL     1      26.398  53.266 113.871  0.00  0.00    +0.035 A 
ATOM     32  C   UNL     1      25.480  52.881 114.892  0.00  0.00    +0.024 A 
ATOM     33  C   UNL     1      25.627  51.632 115.599  0.00  0.00    +0.007 A 
ATOM     34  C   UNL     1      26.708  50.740 115.292  0.00  0.00    -0.029 A 
ATOM     35  C   UNL     1      26.813  49.412 116.077  0.00  0.00    +0.045 C 
ENDROOT
BRANCH  10   9
ATOM      4  C   UNL     1      32.226  49.733 114.688  0.00  0.00    +0.077 A 
ATOM      5  C   UNL     1      32.504  50.746 115.664  0.00  0.00    +0.048 A 
ATOM      6  C   UNL     1      31.446  51.613 116.019  0.00  0.00    +0.116 A 
ATOM      7  N   UNL     1      30.206  51.467 115.435  0.00  0.00    -0.223 NA
ATOM      8  C   UNL     1      29.972  50.480 114.496  0.00  0.00    +0.220 A 
ATOM      9  N   UNL     1      28.731  50.311 113.901  0.00  0.00    -0.283 N 
ATOM     36  H   UNL     1      28.601  49.575 113.207  0.00  0.00    +0.155 HD
ATOM     37  N   UNL     1      30.966  49.641 114.138  0.00  0.00    -0.214 NA
BRANCH   4   3
ATOM      1  C   UNL     1      33.899  46.487 113.285  0.00  0.00    +0.020 A 
ATOM      2  C   UNL     1      32.881  47.409 113.734  0.00  0.00    +0.013 A 
ATOM      3  C   UNL     1      33.239  48.739 114.211  0.00  0.00    +0.019 A 
ATOM     38  C   UNL     1      34.647  49.108 114.219  0.00  0.00    +0.120 A 
ATOM     39  N   UNL     1      35.605  48.199 113.782  0.00  0.00    -0.263 NA
ATOM     40  C   UNL     1      35.272  46.916 113.322  0.00  0.00    +0.111 A 
ENDBRANCH   4   3
ENDBRANCH  10   9
BRANCH  12  13
ATOM     13  N   UNL     1      26.180  54.525 113.203  0.00  0.00    -0.281 N 
ATOM     14  C   UNL     1      26.882  55.708 113.365  0.00  0.00    +0.248 C 
ATOM     30  O   UNL     1      27.673  55.923 114.271  0.00  0.00    -0.270 OA
ATOM     31  H   UNL     1      25.415  54.546 112.528  0.00  0.00    +0.155 HD
BRANCH  14  15
ATOM     15  C   UNL     1      26.664  56.817 112.387  0.00  0.00    +0.037 A 
ATOM     16  C   UNL     1      26.926  58.212 112.750  0.00  0.00    +0.013 A 
ATOM     17  C   UNL     1      26.690  59.264 111.793  0.00  0.00    +0.005 A 
ATOM     18  C   UNL     1      26.191  58.925 110.463  0.00  0.00    -0.033 A 
ATOM     28  C   UNL     1      25.944  57.532 110.128  0.00  0.00    +0.005 A 
ATOM     29  C   UNL     1      26.172  56.498 111.064  0.00  0.00    +0.013 A 
BRANCH  18  19
ATOM     19  C   UNL     1      25.891  59.984 109.387  0.00  0.00    +0.119 C 
BRANCH  19  20
ATOM     20  N   UNL     1      24.826  59.664 108.389  0.00  0.00    -0.302 NA
ATOM     21  C   UNL     1      25.324  59.814 106.949  0.00  0.00    +0.066 C 
ATOM     22  C   UNL     1      24.205  59.453 105.919  0.00  0.00    -0.064 C 
ATOM     23  N   UNL     1      22.984  60.341 106.165  0.00  0.00    +0.379 N 
ATOM     24  C   UNL     1      21.951  60.044 105.162  0.00  0.00    -0.096 C 
ATOM     25  H   UNL     1      23.301  61.400 106.022  0.00  0.00    -0.082 HD
ATOM     26  C   UNL     1      22.484  60.199 107.596  0.00  0.00    -0.064 C 
ATOM     27  C   UNL     1      23.612  60.532 108.612  0.00  0.00    +0.066 C 
ENDBRANCH  19  20
ENDBRANCH  18  19
ENDBRANCH  14  15
ENDBRANCH  12  13
TORSDOF 6
ENDMDL
MODEL 3
REMARK VINA RESULT:      -7.9     25.753     32.543
REMARK  Name = C:\Users\Docking\Desktop\test protocol\1iep_ligandH.pdb
REMARK  8 active torsions:
REMARK  status: ('A' for Active; 'I' for Inactive)
REMARK    1  A    between atoms: _5  and  _11
REMARK    2  A    between atoms: _19  and  _21
REMARK    3  A    between atoms: _22  and  _66
REMARK    4  A    between atoms: _27  and  _30
REMARK    5  A    between atoms: _32  and  _33
REMARK    6  A    between atoms: _38  and  _43
REMARK    7  A    between atoms: _43  and  _46
REMARK    8  A    between atoms: _53  and  _55
REMARK                            x       y       z     vdW  Elec       q    Type
REMARK                         _______ _______ _______ _____ _____    ______ ____
ROOT
ATOM     10  C   UNL     1      52.705  47.856  97.551  0.00  0.00    +0.038 A 
ATOM     11  C   UNL     1      51.937  46.692  97.294  0.00  0.00    +0.047 A 
ATOM     12  C   UNL     1      51.148  46.564  96.079  0.00  0.00    +0.035 A 
ATOM     32  C   UNL     1      51.165  47.642  95.146  0.00  0.00    +0.024 A 
ATOM     33  C   UNL     1      51.938  48.833  95.392  0.00  0.00    +0.007 A 
ATOM     34  C   UNL     1      52.717  48.966  96.590  0.00  0.00    -0.029 A 
ATOM     35  C   UNL     1      53.522  50.268  96.805  0.00  0.00    +0.045 C 
ENDROOT
BRANCH  10   9
ATOM      4  C   UNL     1      56.611  46.879 100.164  0.00  0.00    +0.077 A 
ATOM      5  C   UNL     1      57.218  46.146  99.090  0.00  0.00    +0.048 A 
ATOM      6  C   UNL     1      56.489  46.038  97.885  0.00  0.00    +0.116 A 
ATOM      7  N   UNL     1      55.246  46.623  97.772  0.00  0.00    -0.223 NA
ATOM      8  C   UNL     1      54.689  47.322  98.828  0.00  0.00    +0.220 A 
ATOM      9  N   UNL     1      53.444  47.925  98.734  0.00  0.00    -0.283 N 
ATOM     36  H   UNL     1      53.065  48.425  99.538  0.00  0.00    +0.155 HD
ATOM     37  N   UNL     1      55.364  47.438  99.990  0.00  0.00    -0.214 NA
BRANCH   4   3
ATOM      1  C   UNL     1      57.440  48.219 103.744  0.00  0.00    +0.020 A 
ATOM      2  C   UNL     1      56.780  48.061 102.469  0.00  0.00    +0.013 A 
ATOM      3  C   UNL     1      57.258  47.084 101.498  0.00  0.00    +0.019 A 
ATOM     38  C   UNL     1      58.415  46.276 101.853  0.00  0.00    +0.120 A 
ATOM     39  N   UNL     1      59.031  46.451 103.088  0.00  0.00    -0.263 NA
ATOM     40  C   UNL     1      58.581  47.389 104.029  0.00  0.00    +0.111 A 
ENDBRANCH   4   3
ENDBRANCH  10   9
BRANCH  12  13
ATOM     13  N   UNL     1      50.343  45.409  95.767  0.00  0.00    -0.281 N 
ATOM     14  C   UNL     1      50.707  44.289  95.038  0.00  0.00    +0.248 C 
ATOM     30  O   UNL     1      51.719  44.206  94.359  0.00  0.00    -0.270 OA
ATOM     31  H   UNL     1      49.388  45.419  96.127  0.00  0.00    +0.155 HD
BRANCH  14  15
ATOM     15  C   UNL     1      49.810  43.094  95.055  0.00  0.00    +0.037 A 
ATOM     16  C   UNL     1      48.420  43.180  94.599  0.00  0.00    +0.013 A 
ATOM     17  C   UNL     1      47.571  42.016  94.642  0.00  0.00    +0.005 A 
ATOM     18  C   UNL     1      48.111  40.754  95.141  0.00  0.00    -0.033 A 
ATOM     28  C   UNL     1      49.495  40.695  95.582  0.00  0.00    +0.005 A 
ATOM     29  C   UNL     1      50.330  41.834  95.542  0.00  0.00    +0.013 A 
BRANCH  18  19
ATOM     19  C   UNL     1      47.272  39.466  95.242  0.00  0.00    +0.119 C 
BRANCH  19  20
ATOM     20  N   UNL     1      47.486  38.602  96.440  0.00  0.00    -0.302 NA
ATOM     21  C   UNL     1      47.255  37.121  96.129  0.00  0.00    +0.066 C 
ATOM     22  C   UNL     1      47.506  36.229  97.389  0.00  0.00    -0.064 C 
ATOM     23  N   UNL     1      46.596  36.692  98.528  0.00  0.00    +0.379 N 
ATOM     24  C   UNL     1      46.787  35.819  99.695  0.00  0.00    -0.096 C 
ATOM     25  H   UNL     1      45.541  36.575  98.187  0.00  0.00    -0.082 HD
ATOM     26  C   UNL     1      46.818  38.165  98.842  0.00  0.00    -0.064 C 
ATOM     27  C   UNL     1      46.595  39.039  97.576  0.00  0.00    +0.066 C 
ENDBRANCH  19  20
ENDBRANCH  18  19
ENDBRANCH  14  15
ENDBRANCH  12  13
TORSDOF 6
ENDMDL
MODEL 4
REMARK VINA RESULT:      -7.8     16.887     21.132
REMARK  Name = C:\Users\Docking\Desktop\test protocol\1iep_ligandH.pdb
REMARK  8 active torsions:
REMARK  status: ('A' for Active; 'I' for Inactive)
REMARK    1  A    between atoms: _5  and  _11
REMARK    2  A    between atoms: _19  and  _21
REMARK    3  A    between atoms: _22  and  _66
REMARK    4  A    between atoms: _27  and  _30
REMARK    5  A    between atoms: _32  and  _33
REMARK    6  A    between atoms: _38  and  _43
REMARK    7  A    between atoms: _43  and  _46
REMARK    8  A    between atoms: _53  and  _55
REMARK                            x       y       z     vdW  Elec       q    Type
REMARK                         _______ _______ _______ _____ _____    ______ ____
ROOT
ATOM     10  C   UNL     1      44.560  69.968 116.942  0.00  0.00    +0.038 A 
ATOM     11  C   UNL     1      45.908  69.878 116.511  0.00  0.00    +0.047 A 
ATOM     12  C   UNL     1      46.690  68.672 116.734  0.00  0.00    +0.035 A 
ATOM     32  C   UNL     1      46.066  67.575 117.397  0.00  0.00    +0.024 A 
ATOM     33  C   UNL     1      44.697  67.650 117.842  0.00  0.00    +0.007 A 
ATOM     34  C   UNL     1      43.921  68.838 117.627  0.00  0.00    -0.029 A 
ATOM     35  C   UNL     1      42.459  68.865 118.131  0.00  0.00    +0.045 C 
ENDROOT
BRANCH  10   9
ATOM      4  C   UNL     1      41.963  72.847 114.112  0.00  0.00    +0.077 A 
ATOM      5  C   UNL     1      42.038  71.931 113.011  0.00  0.00    +0.048 A 
ATOM      6  C   UNL     1      42.761  70.733 113.211  0.00  0.00    +0.116 A 
ATOM      7  N   UNL     1      43.359  70.481 114.427  0.00  0.00    -0.223 NA
ATOM      8  C   UNL     1      43.268  71.387 115.468  0.00  0.00    +0.220 A 
ATOM      9  N   UNL     1      43.855  71.150 116.701  0.00  0.00    -0.283 N 
ATOM     36  H   UNL     1      43.772  71.847 117.441  0.00  0.00    +0.155 HD
ATOM     37  N   UNL     1      42.585  72.539 115.301  0.00  0.00    -0.214 NA
BRANCH   4   3
ATOM      1  C   UNL     1      41.163  76.672 113.940  0.00  0.00    +0.020 A 
ATOM      2  C   UNL     1      41.915  75.440 113.993  0.00  0.00    +0.013 A 
ATOM      3  C   UNL     1      41.233  74.153 114.056  0.00  0.00    +0.019 A 
ATOM     38  C   UNL     1      39.778  74.148 114.064  0.00  0.00    +0.120 A 
ATOM     39  N   UNL     1      39.080  75.351 114.013  0.00  0.00    -0.263 NA
ATOM     40  C   UNL     1      39.726  76.596 113.954  0.00  0.00    +0.111 A 
ENDBRANCH   4   3
ENDBRANCH  10   9
BRANCH  12  13
ATOM     13  N   UNL     1      48.065  68.526 116.327  0.00  0.00    -0.281 N 
ATOM     14  C   UNL     1      48.584  67.666 115.372  0.00  0.00    +0.248 C 
ATOM     30  O   UNL     1      47.968  66.737 114.872  0.00  0.00    -0.270 OA
ATOM     31  H   UNL     1      48.739  69.129 116.800  0.00  0.00    +0.155 HD
BRANCH  14  15
ATOM     15  C   UNL     1      49.995  67.858 114.918  0.00  0.00    +0.037 A 
ATOM     16  C   UNL     1      50.558  67.057 113.828  0.00  0.00    +0.013 A 
ATOM     17  C   UNL     1      51.927  67.251 113.421  0.00  0.00    +0.005 A 
ATOM     18  C   UNL     1      52.743  68.252 114.105  0.00  0.00    -0.033 A 
ATOM     28  C   UNL     1      52.157  69.036 115.179  0.00  0.00    +0.005 A 
ATOM     29  C   UNL     1      50.816  68.849 115.582  0.00  0.00    +0.013 A 
BRANCH  18  19
ATOM     19  C   UNL     1      54.219  68.511 113.751  0.00  0.00    +0.119 C 
BRANCH  19  20
ATOM     20  N   UNL     1      54.615  69.921 113.457  0.00  0.00    -0.302 NA
ATOM     21  C   UNL     1      53.829  70.504 112.279  0.00  0.00    +0.066 C 
ATOM     22  C   UNL     1      54.239  71.986 111.999  0.00  0.00    -0.064 C 
ATOM     23  N   UNL     1      55.743  72.055 111.733  0.00  0.00    +0.379 N 
ATOM     24  C   UNL     1      56.122  73.438 111.412  0.00  0.00    -0.096 C 
ATOM     25  H   UNL     1      55.956  71.429 110.835  0.00  0.00    -0.082 HD
ATOM     26  C   UNL     1      56.533  71.474 112.898  0.00  0.00    -0.064 C 
ATOM     27  C   UNL     1      56.097  70.011 113.186  0.00  0.00    +0.066 C 
ENDBRANCH  19  20
ENDBRANCH  18  19
ENDBRANCH  14  15
ENDBRANCH  12  13
TORSDOF 6
ENDMDL
MODEL 5
REMARK VINA RESULT:      -7.7     12.984     17.414
REMARK  Name = C:\Users\Docking\Desktop\test protocol\1iep_ligandH.pdb
REMARK  8 active torsions:
REMARK  status: ('A' for Active; 'I' for Inactive)
REMARK    1  A    between atoms: _5  and  _11
REMARK    2  A    between atoms: _19  and  _21
REMARK    3  A    between atoms: _22  and  _66
REMARK    4  A    between atoms: _27  and  _30
REMARK    5  A    between atoms: _32  and  _33
REMARK    6  A    between atoms: _38  and  _43
REMARK    7  A    between atoms: _43  and  _46
REMARK    8  A    between atoms: _53  and  _55
REMARK                            x       y       z     vdW  Elec       q    Type
REMARK                         _______ _______ _______ _____ _____    ______ ____
ROOT
ATOM     10  C   UNL     1      52.913  82.635 104.694  0.00  0.00    +0.038 A 
ATOM     11  C   UNL     1      51.889  82.892 103.746  0.00  0.00    +0.047 A 
ATOM     12  C   UNL     1      52.192  83.489 102.455  0.00  0.00    +0.035 A 
ATOM     32  C   UNL     1      53.549  83.810 102.160  0.00  0.00    +0.024 A 
ATOM     33  C   UNL     1      54.602  83.556 103.111  0.00  0.00    +0.007 A 
ATOM     34  C   UNL     1      54.309  82.970 104.388  0.00  0.00    -0.029 A 
ATOM     35  C   UNL     1      55.478  82.727 105.371  0.00  0.00    +0.045 C 
ENDROOT
BRANCH  10   9
ATOM      4  C   UNL     1      51.895  82.938 109.374  0.00  0.00    +0.077 A 
ATOM      5  C   UNL     1      52.096  84.358 109.387  0.00  0.00    +0.048 A 
ATOM      6  C   UNL     1      52.469  84.972 108.169  0.00  0.00    +0.116 A 
ATOM      7  N   UNL     1      52.624  84.211 107.031  0.00  0.00    -0.223 NA
ATOM      8  C   UNL     1      52.423  82.843 107.053  0.00  0.00    +0.220 A 
ATOM      9  N   UNL     1      52.567  82.060 105.918  0.00  0.00    -0.283 N 
ATOM     36  H   UNL     1      52.417  81.054 105.978  0.00  0.00    +0.155 HD
ATOM     37  N   UNL     1      52.069  82.234 108.204  0.00  0.00    -0.214 NA
BRANCH   4   3
ATOM      1  C   UNL     1      50.463  80.130 111.690  0.00  0.00    +0.020 A 
ATOM      2  C   UNL     1      50.827  80.854 110.494  0.00  0.00    +0.013 A 
ATOM      3  C   UNL     1      51.496  82.146 110.581  0.00  0.00    +0.019 A 
ATOM     38  C   UNL     1      51.786  82.681 111.902  0.00  0.00    +0.120 A 
ATOM     39  N   UNL     1      51.423  81.961 113.037  0.00  0.00    -0.263 NA
ATOM     40  C   UNL     1      50.777  80.718 112.966  0.00  0.00    +0.111 A 
ENDBRANCH   4   3
ENDBRANCH  10   9
BRANCH  12  13
ATOM     13  N   UNL     1      51.193  83.781 101.457  0.00  0.00    -0.281 N 
ATOM     14  C   UNL     1      50.709  85.021 101.073  0.00  0.00    +0.248 C 
ATOM     30  O   UNL     1      50.910  86.060 101.683  0.00  0.00    -0.270 OA
ATOM     31  H   UNL     1      50.794  82.975 100.975  0.00  0.00    +0.155 HD
BRANCH  14  15
ATOM     15  C   UNL     1      49.869  85.118  99.840  0.00  0.00    +0.037 A 
ATOM     16  C   UNL     1      50.447  84.915  98.509  0.00  0.00    +0.013 A 
ATOM     17  C   UNL     1      49.618  85.031  97.335  0.00  0.00    +0.005 A 
ATOM     18  C   UNL     1      48.201  85.351  97.488  0.00  0.00    -0.033 A 
ATOM     28  C   UNL     1      47.653  85.543  98.821  0.00  0.00    +0.005 A 
ATOM     29  C   UNL     1      48.462  85.431  99.973  0.00  0.00    +0.013 A 
BRANCH  18  19
ATOM     19  C   UNL     1      47.247  85.516  96.291  0.00  0.00    +0.119 C 
BRANCH  19  20
ATOM     20  N   UNL     1      46.718  84.269  95.661  0.00  0.00    -0.302 NA
ATOM     21  C   UNL     1      46.853  84.293  94.136  0.00  0.00    +0.066 C 
ATOM     22  C   UNL     1      46.316  82.972  93.496  0.00  0.00    -0.064 C 
ATOM     23  N   UNL     1      44.858  82.766  93.907  0.00  0.00    +0.379 N 
ATOM     24  C   UNL     1      44.332  81.555  93.260  0.00  0.00    -0.096 C 
ATOM     25  H   UNL     1      44.273  83.634  93.525  0.00  0.00    -0.082 HD
ATOM     26  C   UNL     1      44.714  82.743  95.422  0.00  0.00    -0.064 C 
ATOM     27  C   UNL     1      45.277  84.048  96.051  0.00  0.00    +0.066 C 
ENDBRANCH  19  20
ENDBRANCH  18  19
ENDBRANCH  14  15
ENDBRANCH  12  13
TORSDOF 6
ENDMDL
