MODEL 1
REMARK VINA RESULT:     -11.6      0.000      0.000
REMARK  Name = C:\Users\Docking\Desktop\test protocol\1iep_ligandH.pdb
REMARK  8 active torsions:
REMARK  status: ('A' for Active; 'I' for Inactive)
REMARK    1  A    between atoms: _5  and  _11
REMARK    2  A    between atoms: _19  and  _21
REMARK    3  A    between atoms: _22  and  _66
REMARK    4  A    between atoms: _27  and  _30
REMARK    5  A    between atoms: _32  and  _33
REMARK    6  A    between atoms: _38  and  _43
REMARK    7  A    between atoms: _43  and  _46
REMARK    8  A    between atoms: _53  and  _55
REMARK                            x       y       z     vdW  Elec       q    Type
REMARK                         _______ _______ _______ _____ _____    ______ ____
ROOT
ATOM     10  C   UNL     1      50.456  87.119  39.206  0.00  0.00    +0.038 A 
ATOM     11  C   UNL     1      49.975  88.130  38.336  0.00  0.00    +0.047 A 
ATOM     12  C   UNL     1      49.897  89.518  38.766  0.00  0.00    +0.035 A 
ATOM     32  C   UNL     1      50.319  89.841  40.088  0.00  0.00    +0.024 A 
ATOM     33  C   UNL     1      50.810  88.825  40.986  0.00  0.00    +0.007 A 
ATOM     34  C   UNL     1      50.887  87.454  40.569  0.00  0.00    -0.029 A 
ATOM     35  C   UNL     1      51.415  86.406  41.576  0.00  0.00    +0.045 C 
ENDROOT
BRANCH  10   9
ATOM      4  C   UNL     1      52.778  83.434  37.190  0.00  0.00    +0.077 A 
ATOM      5  C   UNL     1      53.977  84.204  37.023  0.00  0.00    +0.048 A 
ATOM      6  C   UNL     1      53.952  85.546  37.463  0.00  0.00    +0.116 A 
ATOM      7  N   UNL     1      52.809  86.069  38.027  0.00  0.00    -0.223 NA
ATOM      8  C   UNL     1      51.669  85.300  38.171  0.00  0.00    +0.220 A 
ATOM      9  N   UNL     1      50.510  85.803  38.742  0.00  0.00    -0.283 N 
ATOM     36  H   UNL     1      49.687  85.205  38.823  0.00  0.00    +0.155 HD
ATOM     37  N   UNL     1      51.666  84.016  37.757  0.00  0.00    -0.214 NA
BRANCH   4   3
ATOM      1  C   UNL     1      51.711  79.673  37.043  0.00  0.00    +0.020 A 
ATOM      2  C   UNL     1      51.802  81.047  37.483  0.00  0.00    +0.013 A 
ATOM      3  C   UNL     1      52.648  82.001  36.777  0.00  0.00    +0.019 A 
ATOM     38  C   UNL     1      53.395  81.529  35.621  0.00  0.00    +0.120 A 
ATOM     39  N   UNL     1      53.290  80.201  35.222  0.00  0.00    -0.263 NA
ATOM     40  C   UNL     1      52.480  79.273  35.894  0.00  0.00    +0.111 A 
ENDBRANCH   4   3
ENDBRANCH  10   9
BRANCH  12  13
ATOM     13  N   UNL     1      49.409  90.587  37.930  0.00  0.00    -0.281 N 
ATOM     14  C   UNL     1      48.095  90.889  37.614  0.00  0.00    +0.248 C 
ATOM     30  O   UNL     1      47.144  90.153  37.834  0.00  0.00    -0.270 OA
ATOM     31  H   UNL     1      50.119  91.193  37.520  0.00  0.00    +0.155 HD
BRANCH  14  15
ATOM     15  C   UNL     1      47.794  92.192  36.946  0.00  0.00    +0.037 A 
ATOM     16  C   UNL     1      46.874  92.268  35.809  0.00  0.00    +0.013 A 
ATOM     17  C   UNL     1      46.615  93.535  35.171  0.00  0.00    +0.005 A 
ATOM     18  C   UNL     1      47.276  94.737  35.672  0.00  0.00    -0.033 A 
ATOM     28  C   UNL     1      48.181  94.634  36.806  0.00  0.00    +0.005 A 
ATOM     29  C   UNL     1      48.438  93.394  37.432  0.00  0.00    +0.013 A 
BRANCH  18  19
ATOM     19  C   UNL     1      47.075  96.127  35.040  0.00  0.00    +0.119 C 
BRANCH  19  20
ATOM     20  N   UNL     1      48.301  96.929  34.747  0.00  0.00    -0.302 NA
ATOM     21  C   UNL     1      47.973  98.399  34.470  0.00  0.00    +0.066 C 
ATOM     22  C   UNL     1      49.268  99.227  34.187  0.00  0.00    -0.064 C 
ATOM     23  N   UNL     1      50.020  98.608  33.008  0.00  0.00    +0.379 N 
ATOM     24  C   UNL     1      51.208  99.419  32.703  0.00  0.00    -0.096 C 
ATOM     25  H   UNL     1      49.346  98.647  32.120  0.00  0.00    -0.082 HD
ATOM     26  C   UNL     1      50.347  97.146  33.275  0.00  0.00    -0.064 C 
ATOM     27  C   UNL     1      49.056  96.337  33.583  0.00  0.00    +0.066 C 
ENDBRANCH  19  20
ENDBRANCH  18  19
ENDBRANCH  14  15
ENDBRANCH  12  13
TORSDOF 6
ENDMDL
MODEL 2
REMARK VINA RESULT:     -11.1      1.502      1.927
REMARK  Name = C:\Users\Docking\Desktop\test protocol\1iep_ligandH.pdb
REMARK  8 active torsions:
REMARK  status: ('A' for Active; 'I' for Inactive)
REMARK    1  A    between atoms: _5  and  _11
REMARK    2  A    between atoms: _19  and  _21
REMARK    3  A    between atoms: _22  and  _66
REMARK    4  A    between atoms: _27  and  _30
REMARK    5  A    between atoms: _32  and  _33
REMARK    6  A    between atoms: _38  and  _43
REMARK    7  A    between atoms: _43  and  _46
REMARK    8  A    between atoms: _53  and  _55
REMARK                            x       y       z     vdW  Elec       q    Type
REMARK                         _______ _______ _______ _____ _____    ______ ____
ROOT
ATOM     10  C   UNL     1      50.194  87.399  39.243  0.00  0.00    +0.038 A 
ATOM     11  C   UNL     1      50.071  88.366  38.213  0.00  0.00    +0.047 A 
ATOM     12  C   UNL     1      50.097  89.789  38.510  0.00  0.00    +0.035 A 
ATOM     32  C   UNL     1      50.252  90.193  39.868  0.00  0.00    +0.024 A 
ATOM     33  C   UNL     1      50.377  89.224  40.928  0.00  0.00    +0.007 A 
ATOM     34  C   UNL     1      50.350  87.818  40.641  0.00  0.00    -0.029 A 
ATOM     35  C   UNL     1      50.481  86.823  41.818  0.00  0.00    +0.045 C 
ENDROOT
BRANCH  10   9
ATOM      4  C   UNL     1      52.328  83.342  37.821  0.00  0.00    +0.077 A 
ATOM      5  C   UNL     1      53.610  83.979  37.727  0.00  0.00    +0.048 A 
ATOM      6  C   UNL     1      53.675  85.354  38.046  0.00  0.00    +0.116 A 
ATOM      7  N   UNL     1      52.538  86.031  38.430  0.00  0.00    -0.223 NA
ATOM      8  C   UNL     1      51.317  85.386  38.509  0.00  0.00    +0.220 A 
ATOM      9  N   UNL     1      50.162  86.045  38.901  0.00  0.00    -0.283 N 
ATOM     36  H   UNL     1      49.280  85.536  38.939  0.00  0.00    +0.155 HD
ATOM     37  N   UNL     1      51.228  84.074  38.208  0.00  0.00    -0.214 NA
BRANCH   4   3
ATOM      1  C   UNL     1      52.252  79.869  36.023  0.00  0.00    +0.020 A 
ATOM      2  C   UNL     1      52.497  81.272  36.264  0.00  0.00    +0.013 A 
ATOM      3  C   UNL     1      52.098  81.893  37.520  0.00  0.00    +0.019 A 
ATOM     38  C   UNL     1      51.448  81.060  38.521  0.00  0.00    +0.120 A 
ATOM     39  N   UNL     1      51.224  79.711  38.260  0.00  0.00    -0.263 NA
ATOM     40  C   UNL     1      51.602  79.103  37.054  0.00  0.00    +0.111 A 
ENDBRANCH   4   3
ENDBRANCH  10   9
BRANCH  12  13
ATOM     13  N   UNL     1      49.969  90.817  37.507  0.00  0.00    -0.281 N 
ATOM     14  C   UNL     1      48.815  91.454  37.083  0.00  0.00    +0.248 C 
ATOM     30  O   UNL     1      47.682  91.084  37.353  0.00  0.00    -0.270 OA
ATOM     31  H   UNL     1      50.835  91.111  37.054  0.00  0.00    +0.155 HD
BRANCH  14  15
ATOM     15  C   UNL     1      48.935  92.671  36.223  0.00  0.00    +0.037 A 
ATOM     16  C   UNL     1      47.823  93.613  36.079  0.00  0.00    +0.013 A 
ATOM     17  C   UNL     1      47.960  94.770  35.229  0.00  0.00    +0.005 A 
ATOM     18  C   UNL     1      49.217  94.991  34.518  0.00  0.00    -0.033 A 
ATOM     28  C   UNL     1      50.306  94.042  34.682  0.00  0.00    +0.005 A 
ATOM     29  C   UNL     1      50.175  92.907  35.513  0.00  0.00    +0.013 A 
BRANCH  18  19
ATOM     19  C   UNL     1      49.444  96.186  33.574  0.00  0.00    +0.119 C 
BRANCH  19  20
ATOM     20  N   UNL     1      50.784  96.844  33.614  0.00  0.00    -0.302 NA
ATOM     21  C   UNL     1      51.031  97.565  34.942  0.00  0.00    +0.066 C 
ATOM     22  C   UNL     1      52.446  98.228  34.975  0.00  0.00    -0.064 C 
ATOM     23  N   UNL     1      52.580  99.197  33.799  0.00  0.00    +0.379 N 
ATOM     24  C   UNL     1      53.889  99.865  33.861  0.00  0.00    -0.096 C 
ATOM     25  H   UNL     1      51.795  99.980  33.915  0.00  0.00    -0.082 HD
ATOM     26  C   UNL     1      52.334  98.488  32.475  0.00  0.00    -0.064 C 
ATOM     27  C   UNL     1      50.937  97.808  32.463  0.00  0.00    +0.066 C 
ENDBRANCH  19  20
ENDBRANCH  18  19
ENDBRANCH  14  15
ENDBRANCH  12  13
TORSDOF 6
ENDMDL
MODEL 3
REMARK VINA RESULT:     -10.5      1.882      2.780
REMARK  Name = C:\Users\Docking\Desktop\test protocol\1iep_ligandH.pdb
REMARK  8 active torsions:
REMARK  status: ('A' for Active; 'I' for Inactive)
REMARK    1  A    between atoms: _5  and  _11
REMARK    2  A    between atoms: _19  and  _21
REMARK    3  A    between atoms: _22  and  _66
REMARK    4  A    between atoms: _27  and  _30
REMARK    5  A    between atoms: _32  and  _33
REMARK    6  A    between atoms: _38  and  _43
REMARK    7  A    between atoms: _43  and  _46
REMARK    8  A    between atoms: _53  and  _55
REMARK                            x       y       z     vdW  Elec       q    Type
REMARK                         _______ _______ _______ _____ _____    ______ ____
ROOT
ATOM     10  C   UNL     1      49.369  88.535  38.530  0.00  0.00    +0.038 A 
ATOM     11  C   UNL     1      49.617  89.606  37.634  0.00  0.00    +0.047 A 
ATOM     12  C   UNL     1      49.379  90.986  38.027  0.00  0.00    +0.035 A 
ATOM     32  C   UNL     1      48.889  91.239  39.342  0.00  0.00    +0.024 A 
ATOM     33  C   UNL     1      48.630  90.162  40.264  0.00  0.00    +0.007 A 
ATOM     34  C   UNL     1      48.861  88.799  39.881  0.00  0.00    -0.029 A 
ATOM     35  C   UNL     1      48.560  87.684  40.910  0.00  0.00    +0.045 C 
ENDROOT
BRANCH  10   9
ATOM      4  C   UNL     1      52.051  84.556  38.401  0.00  0.00    +0.077 A 
ATOM      5  C   UNL     1      53.059  85.138  39.240  0.00  0.00    +0.048 A 
ATOM      6  C   UNL     1      52.853  86.465  39.677  0.00  0.00    +0.116 A 
ATOM      7  N   UNL     1      51.719  87.151  39.298  0.00  0.00    -0.223 NA
ATOM      8  C   UNL     1      50.767  86.561  38.487  0.00  0.00    +0.220 A 
ATOM      9  N   UNL     1      49.615  87.229  38.100  0.00  0.00    -0.283 N 
ATOM     36  H   UNL     1      48.941  86.762  37.494  0.00  0.00    +0.155 HD
ATOM     37  N   UNL     1      50.941  85.295  38.055  0.00  0.00    -0.214 NA
BRANCH   4   3
ATOM      1  C   UNL     1      51.688  80.681  38.010  0.00  0.00    +0.020 A 
ATOM      2  C   UNL     1      51.593  82.007  38.576  0.00  0.00    +0.013 A 
ATOM      3  C   UNL     1      52.123  83.162  37.861  0.00  0.00    +0.019 A 
ATOM     38  C   UNL     1      52.749  82.939  36.567  0.00  0.00    +0.120 A 
ATOM     39  N   UNL     1      52.827  81.650  36.047  0.00  0.00    -0.263 NA
ATOM     40  C   UNL     1      52.322  80.531  36.726  0.00  0.00    +0.111 A 
ENDBRANCH   4   3
ENDBRANCH  10   9
BRANCH  12  13
ATOM     13  N   UNL     1      49.605  92.114  37.158  0.00  0.00    -0.281 N 
ATOM     14  C   UNL     1      48.672  92.811  36.407  0.00  0.00    +0.248 C 
ATOM     30  O   UNL     1      47.528  92.434  36.202  0.00  0.00    -0.270 OA
ATOM     31  H   UNL     1      50.570  92.438  37.088  0.00  0.00    +0.155 HD
BRANCH  14  15
ATOM     15  C   UNL     1      49.073  94.108  35.781  0.00  0.00    +0.037 A 
ATOM     16  C   UNL     1      49.280  94.222  34.335  0.00  0.00    +0.013 A 
ATOM     17  C   UNL     1      49.682  95.481  33.759  0.00  0.00    +0.005 A 
ATOM     18  C   UNL     1      49.880  96.636  34.630  0.00  0.00    -0.033 A 
ATOM     28  C   UNL     1      49.663  96.497  36.061  0.00  0.00    +0.005 A 
ATOM     29  C   UNL     1      49.269  95.264  36.629  0.00  0.00    +0.013 A 
BRANCH  18  19
ATOM     19  C   UNL     1      50.330  98.013  34.105  0.00  0.00    +0.119 C 
BRANCH  19  20
ATOM     20  N   UNL     1      51.609  98.066  33.337  0.00  0.00    -0.302 NA
ATOM     21  C   UNL     1      52.607  99.053  33.951  0.00  0.00    +0.066 C 
ATOM     22  C   UNL     1      53.948  99.080  33.148  0.00  0.00    -0.064 C 
ATOM     23  N   UNL     1      53.659  99.439  31.689  0.00  0.00    +0.379 N 
ATOM     24  C   UNL     1      54.924  99.522  30.944  0.00  0.00    -0.096 C 
ATOM     25  H   UNL     1      53.191 100.451  31.676  0.00  0.00    -0.082 HD
ATOM     26  C   UNL     1      52.666  98.464  31.072  0.00  0.00    -0.064 C 
ATOM     27  C   UNL     1      51.348  98.423  31.894  0.00  0.00    +0.066 C 
ENDBRANCH  19  20
ENDBRANCH  18  19
ENDBRANCH  14  15
ENDBRANCH  12  13
TORSDOF 6
ENDMDL
MODEL 4
REMARK VINA RESULT:     -10.5      2.877      5.380
REMARK  Name = C:\Users\Docking\Desktop\test protocol\1iep_ligandH.pdb
REMARK  8 active torsions:
REMARK  status: ('A' for Active; 'I' for Inactive)
REMARK    1  A    between atoms: _5  and  _11
REMARK    2  A    between atoms: _19  and  _21
REMARK    3  A    between atoms: _22  and  _66
REMARK    4  A    between atoms: _27  and  _30
REMARK    5  A    between atoms: _32  and  _33
REMARK    6  A    between atoms: _38  and  _43
REMARK    7  A    between atoms: _43  and  _46
REMARK    8  A    between atoms: _53  and  _55
REMARK                            x       y       z     vdW  Elec       q    Type
REMARK                         _______ _______ _______ _____ _____    ______ ____
ROOT
ATOM     10  C   UNL     1      48.550  90.091  36.649  0.00  0.00    +0.038 A 
ATOM     11  C   UNL     1      49.100  91.328  36.225  0.00  0.00    +0.047 A 
ATOM     12  C   UNL     1      48.244  92.454  35.885  0.00  0.00    +0.035 A 
ATOM     32  C   UNL     1      46.833  92.286  35.990  0.00  0.00    +0.024 A 
ATOM     33  C   UNL     1      46.257  91.035  36.418  0.00  0.00    +0.007 A 
ATOM     34  C   UNL     1      47.096  89.920  36.753  0.00  0.00    -0.029 A 
ATOM     35  C   UNL     1      46.424  88.601  37.200  0.00  0.00    +0.045 C 
ENDROOT
BRANCH  10   9
ATOM      4  C   UNL     1      51.156  87.546  39.775  0.00  0.00    +0.077 A 
ATOM      5  C   UNL     1      50.776  88.392  40.870  0.00  0.00    +0.048 A 
ATOM      6  C   UNL     1      49.915  89.475  40.585  0.00  0.00    +0.116 A 
ATOM      7  N   UNL     1      49.472  89.687  39.298  0.00  0.00    -0.223 NA
ATOM      8  C   UNL     1      49.858  88.853  38.264  0.00  0.00    +0.220 A 
ATOM      9  N   UNL     1      49.418  89.043  36.963  0.00  0.00    -0.283 N 
ATOM     36  H   UNL     1      49.732  88.410  36.228  0.00  0.00    +0.155 HD
ATOM     37  N   UNL     1      50.681  87.813  38.510  0.00  0.00    -0.214 NA
BRANCH   4   3
ATOM      1  C   UNL     1      54.305  85.297  40.346  0.00  0.00    +0.020 A 
ATOM      2  C   UNL     1      53.478  86.475  40.219  0.00  0.00    +0.013 A 
ATOM      3  C   UNL     1      52.057  86.359  39.917  0.00  0.00    +0.019 A 
ATOM     38  C   UNL     1      51.499  85.026  39.750  0.00  0.00    +0.120 A 
ATOM     39  N   UNL     1      52.320  83.910  39.877  0.00  0.00    -0.263 NA
ATOM     40  C   UNL     1      53.689  84.009  40.165  0.00  0.00    +0.111 A 
ENDBRANCH   4   3
ENDBRANCH  10   9
BRANCH  12  13
ATOM     13  N   UNL     1      48.744  93.731  35.441  0.00  0.00    -0.281 N 
ATOM     14  C   UNL     1      48.557  94.338  34.209  0.00  0.00    +0.248 C 
ATOM     30  O   UNL     1      48.106  93.775  33.223  0.00  0.00    -0.270 OA
ATOM     31  H   UNL     1      49.305  94.251  36.116  0.00  0.00    +0.155 HD
BRANCH  14  15
ATOM     15  C   UNL     1      48.939  95.774  34.046  0.00  0.00    +0.037 A 
ATOM     16  C   UNL     1      48.080  96.850  34.545  0.00  0.00    +0.013 A 
ATOM     17  C   UNL     1      48.464  98.227  34.359  0.00  0.00    +0.005 A 
ATOM     18  C   UNL     1      49.716  98.535  33.672  0.00  0.00    -0.033 A 
ATOM     28  C   UNL     1      50.552  97.447  33.193  0.00  0.00    +0.005 A 
ATOM     29  C   UNL     1      50.179  96.097  33.372  0.00  0.00    +0.013 A 
BRANCH  18  19
ATOM     19  C   UNL     1      50.194  99.976  33.412  0.00  0.00    +0.119 C 
BRANCH  19  20
ATOM     20  N   UNL     1      51.577 100.150  32.876  0.00  0.00    -0.302 NA
ATOM     21  C   UNL     1      52.468 100.946  33.833  0.00  0.00    +0.066 C 
ATOM     22  C   UNL     1      53.918 101.100  33.267  0.00  0.00    -0.064 C 
ATOM     23  N   UNL     1      53.858 101.775  31.896  0.00  0.00    +0.379 N 
ATOM     24  C   UNL     1      55.222 101.974  31.387  0.00  0.00    -0.096 C 
ATOM     25  H   UNL     1      53.398 102.782  32.035  0.00  0.00    -0.082 HD
ATOM     26  C   UNL     1      52.971 100.991  30.938  0.00  0.00    -0.064 C 
ATOM     27  C   UNL     1      51.542 100.819  31.523  0.00  0.00    +0.066 C 
ENDBRANCH  19  20
ENDBRANCH  18  19
ENDBRANCH  14  15
ENDBRANCH  12  13
TORSDOF 6
ENDMDL
MODEL 5
REMARK VINA RESULT:     -10.5      1.566     13.029
REMARK  Name = C:\Users\Docking\Desktop\test protocol\1iep_ligandH.pdb
REMARK  8 active torsions:
REMARK  status: ('A' for Active; 'I' for Inactive)
REMARK    1  A    between atoms: _5  and  _11
REMARK    2  A    between atoms: _19  and  _21
REMARK    3  A    between atoms: _22  and  _66
REMARK    4  A    between atoms: _27  and  _30
REMARK    5  A    between atoms: _32  and  _33
REMARK    6  A    between atoms: _38  and  _43
REMARK    7  A    between atoms: _43  and  _46
REMARK    8  A    between atoms: _53  and  _55
REMARK                            x       y       z     vdW  Elec       q    Type
REMARK                         _______ _______ _______ _____ _____    ______ ____
ROOT
ATOM     10  C   UNL     1      48.216  93.448  34.832  0.00  0.00    +0.038 A 
ATOM     11  C   UNL     1      49.045  92.431  35.371  0.00  0.00    +0.047 A 
ATOM     12  C   UNL     1      48.504  91.409  36.254  0.00  0.00    +0.035 A 
ATOM     32  C   UNL     1      47.113  91.452  36.564  0.00  0.00    +0.024 A 
ATOM     33  C   UNL     1      46.257  92.479  36.025  0.00  0.00    +0.007 A 
ATOM     34  C   UNL     1      46.785  93.492  35.157  0.00  0.00    -0.029 A 
ATOM     35  C   UNL     1      45.822  94.573  34.614  0.00  0.00    +0.045 C 
ENDROOT
BRANCH  10   9
ATOM      4  C   UNL     1      50.503  97.601  34.081  0.00  0.00    +0.077 A 
ATOM      5  C   UNL     1      50.536  97.904  35.483  0.00  0.00    +0.048 A 
ATOM      6  C   UNL     1      49.948  96.969  36.364  0.00  0.00    +0.116 A 
ATOM      7  N   UNL     1      49.372  95.819  35.868  0.00  0.00    -0.223 NA
ATOM      8  C   UNL     1      49.355  95.558  34.510  0.00  0.00    +0.220 A 
ATOM      9  N   UNL     1      48.789  94.405  33.990  0.00  0.00    -0.283 N 
ATOM     36  H   UNL     1      48.790  94.252  32.982  0.00  0.00    +0.155 HD
ATOM     37  N   UNL     1      49.909  96.437  33.649  0.00  0.00    -0.214 NA
BRANCH   4   3
ATOM      1  C   UNL     1      52.553  98.910  31.018  0.00  0.00    +0.020 A 
ATOM      2  C   UNL     1      52.020  98.011  32.015  0.00  0.00    +0.013 A 
ATOM      3  C   UNL     1      51.086  98.489  33.026  0.00  0.00    +0.019 A 
ATOM     38  C   UNL     1      50.708  99.895  33.000  0.00  0.00    +0.120 A 
ATOM     39  N   UNL     1      51.239 100.737  32.029  0.00  0.00    -0.263 NA
ATOM     40  C   UNL     1      52.140 100.288  31.052  0.00  0.00    +0.111 A 
ENDBRANCH   4   3
ENDBRANCH  10   9
BRANCH  12  13
ATOM     13  N   UNL     1      49.297  90.356  36.837  0.00  0.00    -0.281 N 
ATOM     14  C   UNL     1      49.209  89.834  38.117  0.00  0.00    +0.248 C 
ATOM     30  O   UNL     1      48.573  90.341  39.029  0.00  0.00    -0.270 OA
ATOM     31  H   UNL     1      50.011  89.947  36.234  0.00  0.00    +0.155 HD
BRANCH  14  15
ATOM     15  C   UNL     1      49.946  88.572  38.434  0.00  0.00    +0.037 A 
ATOM     16  C   UNL     1      50.200  88.168  39.819  0.00  0.00    +0.013 A 
ATOM     17  C   UNL     1      50.929  86.956  40.097  0.00  0.00    +0.005 A 
ATOM     18  C   UNL     1      51.407  86.137  38.985  0.00  0.00    -0.033 A 
ATOM     28  C   UNL     1      51.137  86.559  37.621  0.00  0.00    +0.005 A 
ATOM     29  C   UNL     1      50.424  87.748  37.345  0.00  0.00    +0.013 A 
BRANCH  18  19
ATOM     19  C   UNL     1      52.211  84.839  39.188  0.00  0.00    +0.119 C 
BRANCH  19  20
ATOM     20  N   UNL     1      51.858  83.674  38.323  0.00  0.00    -0.302 NA
ATOM     21  C   UNL     1      51.894  82.353  39.095  0.00  0.00    +0.066 C 
ATOM     22  C   UNL     1      51.500  81.148  38.181  0.00  0.00    -0.064 C 
ATOM     23  N   UNL     1      52.442  81.097  36.976  0.00  0.00    +0.379 N 
ATOM     24  C   UNL     1      52.111  79.930  36.144  0.00  0.00    -0.096 C 
ATOM     25  H   UNL     1      53.477  80.954  37.362  0.00  0.00    -0.082 HD
ATOM     26  C   UNL     1      52.414  82.408  36.203  0.00  0.00    -0.064 C 
ATOM     27  C   UNL     1      52.778  83.602  37.129  0.00  0.00    +0.066 C 
ENDBRANCH  19  20
ENDBRANCH  18  19
ENDBRANCH  14  15
ENDBRANCH  12  13
TORSDOF 6
ENDMDL
