MODEL 1
REMARK VINA RESULT:     -10.0      0.000      0.000
REMARK  Name = C:\Users\Docking\Desktop\test protocol\1iep_ligandH.pdb
REMARK  8 active torsions:
REMARK  status: ('A' for Active; 'I' for Inactive)
REMARK    1  A    between atoms: _5  and  _11
REMARK    2  A    between atoms: _19  and  _21
REMARK    3  A    between atoms: _22  and  _66
REMARK    4  A    between atoms: _27  and  _30
REMARK    5  A    between atoms: _32  and  _33
REMARK    6  A    between atoms: _38  and  _43
REMARK    7  A    between atoms: _43  and  _46
REMARK    8  A    between atoms: _53  and  _55
REMARK                            x       y       z     vdW  Elec       q    Type
REMARK                         _______ _______ _______ _____ _____    ______ ____
ROOT
ATOM     10  C   UNL     1     109.799  25.285  63.617  0.00  0.00    +0.038 A 
ATOM     11  C   UNL     1     110.534  25.769  62.506  0.00  0.00    +0.047 A 
ATOM     12  C   UNL     1     109.973  26.770  61.611  0.00  0.00    +0.035 A 
ATOM     32  C   UNL     1     108.661  27.257  61.880  0.00  0.00    +0.024 A 
ATOM     33  C   UNL     1     107.899  26.774  63.005  0.00  0.00    +0.007 A 
ATOM     34  C   UNL     1     108.446  25.786  63.889  0.00  0.00    -0.029 A 
ATOM     35  C   UNL     1     107.581  25.300  65.076  0.00  0.00    +0.045 C 
ENDROOT
BRANCH  10   9
ATOM      4  C   UNL     1     112.010  23.969  67.669  0.00  0.00    +0.077 A 
ATOM      5  C   UNL     1     112.020  25.313  68.170  0.00  0.00    +0.048 A 
ATOM      6  C   UNL     1     111.453  26.315  67.351  0.00  0.00    +0.116 A 
ATOM      7  N   UNL     1     110.918  25.985  66.125  0.00  0.00    -0.223 NA
ATOM      8  C   UNL     1     110.926  24.679  65.671  0.00  0.00    +0.220 A 
ATOM      9  N   UNL     1     110.386  24.324  64.444  0.00  0.00    -0.283 N 
ATOM     36  H   UNL     1     110.418  23.351  64.142  0.00  0.00    +0.155 HD
ATOM     37  N   UNL     1     111.463  23.704  66.433  0.00  0.00    -0.214 NA
BRANCH   4   3
ATOM      1  C   UNL     1     114.355  21.074  68.861  0.00  0.00    +0.020 A 
ATOM      2  C   UNL     1     113.861  22.202  68.105  0.00  0.00    +0.013 A 
ATOM      3  C   UNL     1     112.569  22.799  68.419  0.00  0.00    +0.019 A 
ATOM     38  C   UNL     1     111.796  22.228  69.512  0.00  0.00    +0.120 A 
ATOM     39  N   UNL     1     112.297  21.141  70.221  0.00  0.00    -0.263 NA
ATOM     40  C   UNL     1     113.538  20.556  69.927  0.00  0.00    +0.111 A 
ENDBRANCH   4   3
ENDBRANCH  10   9
BRANCH  12  13
ATOM     13  N   UNL     1     110.669  27.293  60.462  0.00  0.00    -0.281 N 
ATOM     14  C   UNL     1     111.192  26.590  59.389  0.00  0.00    +0.248 C 
ATOM     30  O   UNL     1     111.328  25.376  59.359  0.00  0.00    -0.270 OA
ATOM     31  H   UNL     1     110.791  28.306  60.436  0.00  0.00    +0.155 HD
BRANCH  14  15
ATOM     15  C   UNL     1     111.641  27.345  58.180  0.00  0.00    +0.037 A 
ATOM     16  C   UNL     1     113.048  27.354  57.770  0.00  0.00    +0.013 A 
ATOM     17  C   UNL     1     113.458  28.105  56.609  0.00  0.00    +0.005 A 
ATOM     18  C   UNL     1     112.458  28.852  55.850  0.00  0.00    -0.033 A 
ATOM     28  C   UNL     1     111.069  28.822  56.277  0.00  0.00    +0.005 A 
ATOM     29  C   UNL     1     110.664  28.088  57.414  0.00  0.00    +0.013 A 
BRANCH  18  19
ATOM     19  C   UNL     1     112.808  29.698  54.611  0.00  0.00    +0.119 C 
BRANCH  19  20
ATOM     20  N   UNL     1     111.776  30.662  54.128  0.00  0.00    -0.302 NA
ATOM     21  C   UNL     1     111.299  30.330  52.711  0.00  0.00    +0.066 C 
ATOM     22  C   UNL     1     110.203  31.336  52.229  0.00  0.00    -0.064 C 
ATOM     23  N   UNL     1     110.758  32.760  52.294  0.00  0.00    +0.379 N 
ATOM     24  C   UNL     1     109.750  33.703  51.787  0.00  0.00    -0.096 C 
ATOM     25  H   UNL     1     111.640  32.810  51.615  0.00  0.00    -0.082 HD
ATOM     26  C   UNL     1     111.237  33.097  53.699  0.00  0.00    -0.064 C 
ATOM     27  C   UNL     1     112.304  32.075  54.179  0.00  0.00    +0.066 C 
ENDBRANCH  19  20
ENDBRANCH  18  19
ENDBRANCH  14  15
ENDBRANCH  12  13
TORSDOF 6
ENDMDL
MODEL 2
REMARK VINA RESULT:      -9.6     11.616     15.513
REMARK  Name = C:\Users\Docking\Desktop\test protocol\1iep_ligandH.pdb
REMARK  8 active torsions:
REMARK  status: ('A' for Active; 'I' for Inactive)
REMARK    1  A    between atoms: _5  and  _11
REMARK    2  A    between atoms: _19  and  _21
REMARK    3  A    between atoms: _22  and  _66
REMARK    4  A    between atoms: _27  and  _30
REMARK    5  A    between atoms: _32  and  _33
REMARK    6  A    between atoms: _38  and  _43
REMARK    7  A    between atoms: _43  and  _46
REMARK    8  A    between atoms: _53  and  _55
REMARK                            x       y       z     vdW  Elec       q    Type
REMARK                         _______ _______ _______ _____ _____    ______ ____
ROOT
ATOM     10  C   UNL     1     109.433  21.898  51.424  0.00  0.00    +0.038 A 
ATOM     11  C   UNL     1     108.450  22.669  50.752  0.00  0.00    +0.047 A 
ATOM     12  C   UNL     1     107.540  23.534  51.488  0.00  0.00    +0.035 A 
ATOM     32  C   UNL     1     107.662  23.591  52.907  0.00  0.00    +0.024 A 
ATOM     33  C   UNL     1     108.655  22.814  53.605  0.00  0.00    +0.007 A 
ATOM     34  C   UNL     1     109.553  21.957  52.886  0.00  0.00    -0.029 A 
ATOM     35  C   UNL     1     110.594  21.141  53.687  0.00  0.00    +0.045 C 
ENDROOT
BRANCH  10   9
ATOM      4  C   UNL     1     110.388  17.847  49.033  0.00  0.00    +0.077 A 
ATOM      5  C   UNL     1     109.100  17.294  49.337  0.00  0.00    +0.048 A 
ATOM      6  C   UNL     1     108.224  18.081  50.118  0.00  0.00    +0.116 A 
ATOM      7  N   UNL     1     108.617  19.327  50.556  0.00  0.00    -0.223 NA
ATOM      8  C   UNL     1     109.867  19.830  50.245  0.00  0.00    +0.220 A 
ATOM      9  N   UNL     1     110.280  21.084  50.668  0.00  0.00    -0.283 N 
ATOM     36  H   UNL     1     111.213  21.416  50.425  0.00  0.00    +0.155 HD
ATOM     37  N   UNL     1     110.722  19.098  49.502  0.00  0.00    -0.214 NA
BRANCH   4   3
ATOM      1  C   UNL     1     113.308  15.485  47.941  0.00  0.00    +0.020 A 
ATOM      2  C   UNL     1     112.327  16.141  48.774  0.00  0.00    +0.013 A 
ATOM      3  C   UNL     1     111.423  17.139  48.215  0.00  0.00    +0.019 A 
ATOM     38  C   UNL     1     111.539  17.452  46.799  0.00  0.00    +0.120 A 
ATOM     39  N   UNL     1     112.495  16.806  46.022  0.00  0.00    -0.263 NA
ATOM     40  C   UNL     1     113.371  15.845  46.549  0.00  0.00    +0.111 A 
ENDBRANCH   4   3
ENDBRANCH  10   9
BRANCH  12  13
ATOM     13  N   UNL     1     106.517  24.333  50.861  0.00  0.00    -0.281 N 
ATOM     14  C   UNL     1     106.592  25.661  50.474  0.00  0.00    +0.248 C 
ATOM     30  O   UNL     1     107.484  26.428  50.805  0.00  0.00    -0.270 OA
ATOM     31  H   UNL     1     105.630  23.863  50.681  0.00  0.00    +0.155 HD
BRANCH  14  15
ATOM     15  C   UNL     1     105.512  26.223  49.607  0.00  0.00    +0.037 A 
ATOM     16  C   UNL     1     105.244  25.674  48.275  0.00  0.00    +0.013 A 
ATOM     17  C   UNL     1     104.208  26.245  47.452  0.00  0.00    +0.005 A 
ATOM     18  C   UNL     1     103.429  27.372  47.961  0.00  0.00    -0.033 A 
ATOM     28  C   UNL     1     103.712  27.894  49.287  0.00  0.00    +0.005 A 
ATOM     29  C   UNL     1     104.728  27.337  50.096  0.00  0.00    +0.013 A 
BRANCH  18  19
ATOM     19  C   UNL     1     102.319  28.058  47.143  0.00  0.00    +0.119 C 
BRANCH  19  20
ATOM     20  N   UNL     1     100.921  27.571  47.345  0.00  0.00    -0.302 NA
ATOM     21  C   UNL     1     100.533  26.498  46.323  0.00  0.00    +0.066 C 
ATOM     22  C   UNL     1      99.076  25.984  46.563  0.00  0.00    -0.064 C 
ATOM     23  N   UNL     1      98.106  27.165  46.504  0.00  0.00    +0.379 N 
ATOM     24  C   UNL     1      96.729  26.676  46.672  0.00  0.00    -0.096 C 
ATOM     25  H   UNL     1      98.183  27.616  45.488  0.00  0.00    -0.082 HD
ATOM     26  C   UNL     1      98.486  28.237  47.516  0.00  0.00    -0.064 C 
ATOM     27  C   UNL     1      99.945  28.720  47.287  0.00  0.00    +0.066 C 
ENDBRANCH  19  20
ENDBRANCH  18  19
ENDBRANCH  14  15
ENDBRANCH  12  13
TORSDOF 6
ENDMDL
MODEL 3
REMARK VINA RESULT:      -9.4     12.017     15.571
REMARK  Name = C:\Users\Docking\Desktop\test protocol\1iep_ligandH.pdb
REMARK  8 active torsions:
REMARK  status: ('A' for Active; 'I' for Inactive)
REMARK    1  A    between atoms: _5  and  _11
REMARK    2  A    between atoms: _19  and  _21
REMARK    3  A    between atoms: _22  and  _66
REMARK    4  A    between atoms: _27  and  _30
REMARK    5  A    between atoms: _32  and  _33
REMARK    6  A    between atoms: _38  and  _43
REMARK    7  A    between atoms: _43  and  _46
REMARK    8  A    between atoms: _53  and  _55
REMARK                            x       y       z     vdW  Elec       q    Type
REMARK                         _______ _______ _______ _____ _____    ______ ____
ROOT
ATOM     10  C   UNL     1     110.473  20.650  51.331  0.00  0.00    +0.038 A 
ATOM     11  C   UNL     1     109.692  21.487  50.493  0.00  0.00    +0.047 A 
ATOM     12  C   UNL     1     108.747  22.441  51.052  0.00  0.00    +0.035 A 
ATOM     32  C   UNL     1     108.624  22.518  52.469  0.00  0.00    +0.024 A 
ATOM     33  C   UNL     1     109.409  21.675  53.336  0.00  0.00    +0.007 A 
ATOM     34  C   UNL     1     110.341  20.730  52.791  0.00  0.00    -0.029 A 
ATOM     35  C   UNL     1     111.152  19.847  53.768  0.00  0.00    +0.045 C 
ENDROOT
BRANCH  10   9
ATOM      4  C   UNL     1     111.438  16.786  48.653  0.00  0.00    +0.077 A 
ATOM      5  C   UNL     1     110.046  16.517  48.433  0.00  0.00    +0.048 A 
ATOM      6  C   UNL     1     109.114  17.393  49.033  0.00  0.00    +0.116 A 
ATOM      7  N   UNL     1     109.552  18.456  49.793  0.00  0.00    -0.223 NA
ATOM      8  C   UNL     1     110.902  18.686  49.987  0.00  0.00    +0.220 A 
ATOM      9  N   UNL     1     111.365  19.753  50.741  0.00  0.00    -0.283 N 
ATOM     36  H   UNL     1     112.369  19.884  50.866  0.00  0.00    +0.155 HD
ATOM     37  N   UNL     1     111.812  17.863  49.426  0.00  0.00    -0.214 NA
BRANCH   4   3
ATOM      1  C   UNL     1     113.885  15.033  46.154  0.00  0.00    +0.020 A 
ATOM      2  C   UNL     1     112.803  15.851  46.653  0.00  0.00    +0.013 A 
ATOM      3  C   UNL     1     112.544  15.953  48.083  0.00  0.00    +0.019 A 
ATOM     38  C   UNL     1     113.404  15.208  48.990  0.00  0.00    +0.120 A 
ATOM     39  N   UNL     1     114.437  14.427  48.481  0.00  0.00    -0.263 NA
ATOM     40  C   UNL     1     114.695  14.320  47.107  0.00  0.00    +0.111 A 
ENDBRANCH   4   3
ENDBRANCH  10   9
BRANCH  12  13
ATOM     13  N   UNL     1     107.922  23.310  50.250  0.00  0.00    -0.281 N 
ATOM     14  C   UNL     1     106.656  23.057  49.746  0.00  0.00    +0.248 C 
ATOM     30  O   UNL     1     106.127  21.956  49.730  0.00  0.00    -0.270 OA
ATOM     31  H   UNL     1     108.319  24.223  50.027  0.00  0.00    +0.155 HD
BRANCH  14  15
ATOM     15  C   UNL     1     105.872  24.188  49.164  0.00  0.00    +0.037 A 
ATOM     16  C   UNL     1     105.023  23.996  47.985  0.00  0.00    +0.013 A 
ATOM     17  C   UNL     1     104.290  25.108  47.433  0.00  0.00    +0.005 A 
ATOM     18  C   UNL     1     104.402  26.422  48.061  0.00  0.00    -0.033 A 
ATOM     28  C   UNL     1     105.246  26.583  49.233  0.00  0.00    +0.005 A 
ATOM     29  C   UNL     1     105.967  25.496  49.776  0.00  0.00    +0.013 A 
BRANCH  18  19
ATOM     19  C   UNL     1     103.672  27.669  47.528  0.00  0.00    +0.119 C 
BRANCH  19  20
ATOM     20  N   UNL     1     102.233  27.828  47.894  0.00  0.00    -0.302 NA
ATOM     21  C   UNL     1     101.939  27.312  49.306  0.00  0.00    +0.066 C 
ATOM     22  C   UNL     1     100.434  27.507  49.681  0.00  0.00    -0.064 C 
ATOM     23  N   UNL     1      99.557  26.794  48.650  0.00  0.00    +0.379 N 
ATOM     24  C   UNL     1      98.144  26.926  49.033  0.00  0.00    -0.096 C 
ATOM     25  H   UNL     1      99.816  25.710  48.680  0.00  0.00    -0.082 HD
ATOM     26  C   UNL     1      99.845  27.299  47.244  0.00  0.00    -0.064 C 
ATOM     27  C   UNL     1     101.349  27.127  46.892  0.00  0.00    +0.066 C 
ENDBRANCH  19  20
ENDBRANCH  18  19
ENDBRANCH  14  15
ENDBRANCH  12  13
TORSDOF 6
ENDMDL
MODEL 4
REMARK VINA RESULT:      -9.3     11.213     15.024
REMARK  Name = C:\Users\Docking\Desktop\test protocol\1iep_ligandH.pdb
REMARK  8 active torsions:
REMARK  status: ('A' for Active; 'I' for Inactive)
REMARK    1  A    between atoms: _5  and  _11
REMARK    2  A    between atoms: _19  and  _21
REMARK    3  A    between atoms: _22  and  _66
REMARK    4  A    between atoms: _27  and  _30
REMARK    5  A    between atoms: _32  and  _33
REMARK    6  A    between atoms: _38  and  _43
REMARK    7  A    between atoms: _43  and  _46
REMARK    8  A    between atoms: _53  and  _55
REMARK                            x       y       z     vdW  Elec       q    Type
REMARK                         _______ _______ _______ _____ _____    ______ ____
ROOT
ATOM     10  C   UNL     1     110.194  21.440  52.036  0.00  0.00    +0.038 A 
ATOM     11  C   UNL     1     109.077  22.198  51.603  0.00  0.00    +0.047 A 
ATOM     12  C   UNL     1     108.311  23.011  52.536  0.00  0.00    +0.035 A 
ATOM     32  C   UNL     1     108.713  23.029  53.903  0.00  0.00    +0.024 A 
ATOM     33  C   UNL     1     109.846  22.263  54.361  0.00  0.00    +0.007 A 
ATOM     34  C   UNL     1     110.603  21.458  53.446  0.00  0.00    -0.029 A 
ATOM     35  C   UNL     1     111.804  20.652  53.994  0.00  0.00    +0.045 C 
ENDROOT
BRANCH  10   9
ATOM      4  C   UNL     1     110.913  17.390  49.563  0.00  0.00    +0.077 A 
ATOM      5  C   UNL     1     109.821  16.727  50.215  0.00  0.00    +0.048 A 
ATOM      6  C   UNL     1     109.103  17.462  51.186  0.00  0.00    +0.116 A 
ATOM      7  N   UNL     1     109.461  18.761  51.475  0.00  0.00    -0.223 NA
ATOM      8  C   UNL     1     110.521  19.369  50.829  0.00  0.00    +0.220 A 
ATOM      9  N   UNL     1     110.893  20.677  51.098  0.00  0.00    -0.283 N 
ATOM     36  H   UNL     1     111.686  21.088  50.605  0.00  0.00    +0.155 HD
ATOM     37  N   UNL     1     111.223  18.689  49.899  0.00  0.00    -0.214 NA
BRANCH   4   3
ATOM      1  C   UNL     1     112.593  16.512  46.141  0.00  0.00    +0.020 A 
ATOM      2  C   UNL     1     111.750  17.165  47.116  0.00  0.00    +0.013 A 
ATOM      3  C   UNL     1     111.765  16.747  48.512  0.00  0.00    +0.019 A 
ATOM     38  C   UNL     1     112.651  15.657  48.892  0.00  0.00    +0.120 A 
ATOM     39  N   UNL     1     113.450  15.046  47.931  0.00  0.00    -0.263 NA
ATOM     40  C   UNL     1     113.443  15.438  46.584  0.00  0.00    +0.111 A 
ENDBRANCH   4   3
ENDBRANCH  10   9
BRANCH  12  13
ATOM     13  N   UNL     1     107.163  23.795  52.155  0.00  0.00    -0.281 N 
ATOM     14  C   UNL     1     107.146  25.047  51.562  0.00  0.00    +0.248 C 
ATOM     30  O   UNL     1     108.120  25.779  51.463  0.00  0.00    -0.270 OA
ATOM     31  H   UNL     1     106.252  23.377  52.346  0.00  0.00    +0.155 HD
BRANCH  14  15
ATOM     15  C   UNL     1     105.857  25.568  51.013  0.00  0.00    +0.037 A 
ATOM     16  C   UNL     1     105.801  26.834  50.278  0.00  0.00    +0.013 A 
ATOM     17  C   UNL     1     104.542  27.322  49.773  0.00  0.00    +0.005 A 
ATOM     18  C   UNL     1     103.328  26.542  50.001  0.00  0.00    -0.033 A 
ATOM     28  C   UNL     1     103.413  25.287  50.728  0.00  0.00    +0.005 A 
ATOM     29  C   UNL     1     104.645  24.806  51.226  0.00  0.00    +0.013 A 
BRANCH  18  19
ATOM     19  C   UNL     1     101.938  26.996  49.517  0.00  0.00    +0.119 C 
BRANCH  19  20
ATOM     20  N   UNL     1     101.356  26.281  48.342  0.00  0.00    -0.302 NA
ATOM     21  C   UNL     1     102.228  26.422  47.092  0.00  0.00    +0.066 C 
ATOM     22  C   UNL     1     101.616  25.648  45.880  0.00  0.00    -0.064 C 
ATOM     23  N   UNL     1     100.200  26.163  45.613  0.00  0.00    +0.379 N 
ATOM     24  C   UNL     1      99.642  25.479  44.437  0.00  0.00    -0.096 C 
ATOM     25  H   UNL     1     100.275  27.248  45.369  0.00  0.00    -0.082 HD
ATOM     26  C   UNL     1      99.326  26.029  46.852  0.00  0.00    -0.064 C 
ATOM     27  C   UNL     1      99.959  26.776  48.059  0.00  0.00    +0.066 C 
ENDBRANCH  19  20
ENDBRANCH  18  19
ENDBRANCH  14  15
ENDBRANCH  12  13
TORSDOF 6
ENDMDL
MODEL 5
REMARK VINA RESULT:      -9.1     12.554     17.907
REMARK  Name = C:\Users\Docking\Desktop\test protocol\1iep_ligandH.pdb
REMARK  8 active torsions:
REMARK  status: ('A' for Active; 'I' for Inactive)
REMARK    1  A    between atoms: _5  and  _11
REMARK    2  A    between atoms: _19  and  _21
REMARK    3  A    between atoms: _22  and  _66
REMARK    4  A    between atoms: _27  and  _30
REMARK    5  A    between atoms: _32  and  _33
REMARK    6  A    between atoms: _38  and  _43
REMARK    7  A    between atoms: _43  and  _46
REMARK    8  A    between atoms: _53  and  _55
REMARK                            x       y       z     vdW  Elec       q    Type
REMARK                         _______ _______ _______ _____ _____    ______ ____
ROOT
ATOM     10  C   UNL     1     107.412  23.597  50.690  0.00  0.00    +0.038 A 
ATOM     11  C   UNL     1     107.926  22.426  50.076  0.00  0.00    +0.047 A 
ATOM     12  C   UNL     1     108.655  21.431  50.847  0.00  0.00    +0.035 A 
ATOM     32  C   UNL     1     108.840  21.659  52.242  0.00  0.00    +0.024 A 
ATOM     33  C   UNL     1     108.325  22.844  52.882  0.00  0.00    +0.007 A 
ATOM     34  C   UNL     1     107.607  23.830  52.126  0.00  0.00    -0.029 A 
ATOM     35  C   UNL     1     107.083  25.084  52.864  0.00  0.00    +0.045 C 
ENDROOT
BRANCH  10   9
ATOM      4  C   UNL     1     103.348  25.590  49.092  0.00  0.00    +0.077 A 
ATOM      5  C   UNL     1     102.536  24.700  49.872  0.00  0.00    +0.048 A 
ATOM      6  C   UNL     1     103.203  23.740  50.665  0.00  0.00    +0.116 A 
ATOM      7  N   UNL     1     104.579  23.682  50.671  0.00  0.00    -0.223 NA
ATOM      8  C   UNL     1     105.333  24.554  49.906  0.00  0.00    +0.220 A 
ATOM      9  N   UNL     1     106.719  24.519  49.903  0.00  0.00    -0.283 N 
ATOM     36  H   UNL     1     107.238  25.175  49.319  0.00  0.00    +0.155 HD
ATOM     37  N   UNL     1     104.720  25.479  49.139  0.00  0.00    -0.214 NA
BRANCH   4   3
ATOM      1  C   UNL     1     103.040  28.531  46.532  0.00  0.00    +0.020 A 
ATOM      2  C   UNL     1     103.628  27.512  47.370  0.00  0.00    +0.013 A 
ATOM      3  C   UNL     1     102.791  26.661  48.207  0.00  0.00    +0.019 A 
ATOM     38  C   UNL     1     101.351  26.868  48.171  0.00  0.00    +0.120 A 
ATOM     39  N   UNL     1     100.813  27.859  47.356  0.00  0.00    -0.263 NA
ATOM     40  C   UNL     1     101.609  28.685  46.548  0.00  0.00    +0.111 A 
ENDBRANCH   4   3
ENDBRANCH  10   9
BRANCH  12  13
ATOM     13  N   UNL     1     109.208  20.227  50.276  0.00  0.00    -0.281 N 
ATOM     14  C   UNL     1     108.538  19.219  49.603  0.00  0.00    +0.248 C 
ATOM     30  O   UNL     1     107.323  19.095  49.575  0.00  0.00    -0.270 OA
ATOM     31  H   UNL     1     110.215  20.104  50.382  0.00  0.00    +0.155 HD
BRANCH  14  15
ATOM     15  C   UNL     1     109.334  18.191  48.866  0.00  0.00    +0.037 A 
ATOM     16  C   UNL     1     110.446  18.573  47.992  0.00  0.00    +0.013 A 
ATOM     17  C   UNL     1     111.186  17.563  47.279  0.00  0.00    +0.005 A 
ATOM     18  C   UNL     1     110.817  16.158  47.439  0.00  0.00    -0.033 A 
ATOM     28  C   UNL     1     109.713  15.806  48.316  0.00  0.00    +0.005 A 
ATOM     29  C   UNL     1     108.984  16.794  49.016  0.00  0.00    +0.013 A 
BRANCH  18  19
ATOM     19  C   UNL     1     111.538  15.015  46.701  0.00  0.00    +0.119 C 
BRANCH  19  20
ATOM     20  N   UNL     1     112.949  14.728  47.097  0.00  0.00    -0.302 NA
ATOM     21  C   UNL     1     113.876  14.619  45.883  0.00  0.00    +0.066 C 
ATOM     22  C   UNL     1     115.352  14.341  46.317  0.00  0.00    -0.064 C 
ATOM     23  N   UNL     1     115.402  13.061  47.153  0.00  0.00    +0.379 N 
ATOM     24  C   UNL     1     116.797  12.765  47.514  0.00  0.00    -0.096 C 
ATOM     25  H   UNL     1     115.034  12.225  46.514  0.00  0.00    -0.082 HD
ATOM     26  C   UNL     1     114.481  13.159  48.361  0.00  0.00    -0.064 C 
ATOM     27  C   UNL     1     113.023  13.465  47.920  0.00  0.00    +0.066 C 
ENDBRANCH  19  20
ENDBRANCH  18  19
ENDBRANCH  14  15
ENDBRANCH  12  13
TORSDOF 6
ENDMDL
