MODEL 1
REMARK VINA RESULT:      -9.6      0.000      0.000
REMARK  Name = C:\Users\Docking\Desktop\test protocol\1iep_ligandH.pdb
REMARK  8 active torsions:
REMARK  status: ('A' for Active; 'I' for Inactive)
REMARK    1  A    between atoms: _5  and  _11
REMARK    2  A    between atoms: _19  and  _21
REMARK    3  A    between atoms: _22  and  _66
REMARK    4  A    between atoms: _27  and  _30
REMARK    5  A    between atoms: _32  and  _33
REMARK    6  A    between atoms: _38  and  _43
REMARK    7  A    between atoms: _43  and  _46
REMARK    8  A    between atoms: _53  and  _55
REMARK                            x       y       z     vdW  Elec       q    Type
REMARK                         _______ _______ _______ _____ _____    ______ ____
ROOT
ATOM     10  C   UNL     1       3.628   5.896  11.402  0.00  0.00    +0.038 A 
ATOM     11  C   UNL     1       3.469   6.919  10.432  0.00  0.00    +0.047 A 
ATOM     12  C   UNL     1       2.754   8.146  10.743  0.00  0.00    +0.035 A 
ATOM     32  C   UNL     1       2.214   8.301  12.053  0.00  0.00    +0.024 A 
ATOM     33  C   UNL     1       2.365   7.271  13.051  0.00  0.00    +0.007 A 
ATOM     34  C   UNL     1       3.067   6.057  12.750  0.00  0.00    -0.029 A 
ATOM     35  C   UNL     1       3.193   4.984  13.857  0.00  0.00    +0.045 C 
ENDROOT
BRANCH  10   9
ATOM      4  C   UNL     1       7.657   3.305  11.104  0.00  0.00    +0.077 A 
ATOM      5  C   UNL     1       8.447   4.359  11.673  0.00  0.00    +0.048 A 
ATOM      6  C   UNL     1       7.779   5.554  12.023  0.00  0.00    +0.116 A 
ATOM      7  N   UNL     1       6.422   5.675  11.814  0.00  0.00    -0.223 NA
ATOM      8  C   UNL     1       5.690   4.640  11.261  0.00  0.00    +0.220 A 
ATOM      9  N   UNL     1       4.324   4.738  11.050  0.00  0.00    -0.283 N 
ATOM     36  H   UNL     1       3.821   3.955  10.633  0.00  0.00    +0.155 HD
ATOM     37  N   UNL     1       6.305   3.490  10.918  0.00  0.00    -0.214 NA
BRANCH   4   3
ATOM      1  C   UNL     1       9.378  -0.207  11.164  0.00  0.00    +0.020 A 
ATOM      2  C   UNL     1       8.854   1.060  11.619  0.00  0.00    +0.013 A 
ATOM      3  C   UNL     1       8.217   1.981  10.686  0.00  0.00    +0.019 A 
ATOM     38  C   UNL     1       8.126   1.586   9.288  0.00  0.00    +0.120 A 
ATOM     39  N   UNL     1       8.641   0.360   8.879  0.00  0.00    -0.263 NA
ATOM     40  C   UNL     1       9.258  -0.533   9.768  0.00  0.00    +0.111 A 
ENDBRANCH   4   3
ENDBRANCH  10   9
BRANCH  12  13
ATOM     13  N   UNL     1       2.555   9.216   9.796  0.00  0.00    -0.281 N 
ATOM     14  C   UNL     1       2.324  10.556  10.062  0.00  0.00    +0.248 C 
ATOM     30  O   UNL     1       2.041  11.004  11.163  0.00  0.00    -0.270 OA
ATOM     31  H   UNL     1       2.588   8.953   8.811  0.00  0.00    +0.155 HD
BRANCH  14  15
ATOM     15  C   UNL     1       2.407  11.539   8.938  0.00  0.00    +0.037 A 
ATOM     16  C   UNL     1       2.145  12.964   9.155  0.00  0.00    +0.013 A 
ATOM     17  C   UNL     1       2.214  13.888   8.051  0.00  0.00    +0.005 A 
ATOM     18  C   UNL     1       2.549  13.389   6.719  0.00  0.00    -0.033 A 
ATOM     28  C   UNL     1       2.810  11.971   6.534  0.00  0.00    +0.005 A 
ATOM     29  C   UNL     1       2.742  11.062   7.613  0.00  0.00    +0.013 A 
BRANCH  18  19
ATOM     19  C   UNL     1       2.625  14.299   5.480  0.00  0.00    +0.119 C 
BRANCH  19  20
ATOM     20  N   UNL     1       3.903  14.297   4.706  0.00  0.00    -0.302 NA
ATOM     21  C   UNL     1       5.094  14.736   5.563  0.00  0.00    +0.066 C 
ATOM     22  C   UNL     1       6.425  14.705   4.744  0.00  0.00    -0.064 C 
ATOM     23  N   UNL     1       6.284  15.601   3.512  0.00  0.00    +0.379 N 
ATOM     24  C   UNL     1       7.554  15.620   2.772  0.00  0.00    -0.096 C 
ATOM     25  H   UNL     1       6.085  16.638   3.870  0.00  0.00    -0.082 HD
ATOM     26  C   UNL     1       5.101  15.173   2.656  0.00  0.00    -0.064 C 
ATOM     27  C   UNL     1       3.787  15.178   3.487  0.00  0.00    +0.066 C 
ENDBRANCH  19  20
ENDBRANCH  18  19
ENDBRANCH  14  15
ENDBRANCH  12  13
TORSDOF 6
ENDMDL
MODEL 2
REMARK VINA RESULT:      -9.0      2.242     12.101
REMARK  Name = C:\Users\Docking\Desktop\test protocol\1iep_ligandH.pdb
REMARK  8 active torsions:
REMARK  status: ('A' for Active; 'I' for Inactive)
REMARK    1  A    between atoms: _5  and  _11
REMARK    2  A    between atoms: _19  and  _21
REMARK    3  A    between atoms: _22  and  _66
REMARK    4  A    between atoms: _27  and  _30
REMARK    5  A    between atoms: _32  and  _33
REMARK    6  A    between atoms: _38  and  _43
REMARK    7  A    between atoms: _43  and  _46
REMARK    8  A    between atoms: _53  and  _55
REMARK                            x       y       z     vdW  Elec       q    Type
REMARK                         _______ _______ _______ _____ _____    ______ ____
ROOT
ATOM     10  C   UNL     1       2.436  11.061   8.646  0.00  0.00    +0.038 A 
ATOM     11  C   UNL     1       3.126   9.826   8.747  0.00  0.00    +0.047 A 
ATOM     12  C   UNL     1       3.277   9.151  10.026  0.00  0.00    +0.035 A 
ATOM     32  C   UNL     1       2.710   9.761  11.183  0.00  0.00    +0.024 A 
ATOM     33  C   UNL     1       2.006  11.016  11.099  0.00  0.00    +0.007 A 
ATOM     34  C   UNL     1       1.856  11.688   9.840  0.00  0.00    -0.029 A 
ATOM     35  C   UNL     1       1.097  13.035   9.810  0.00  0.00    +0.045 C 
ENDROOT
BRANCH  10   9
ATOM      4  C   UNL     1       3.975  14.077   5.244  0.00  0.00    +0.077 A 
ATOM      5  C   UNL     1       5.088  14.503   6.042  0.00  0.00    +0.048 A 
ATOM      6  C   UNL     1       5.224  13.927   7.325  0.00  0.00    +0.116 A 
ATOM      7  N   UNL     1       4.310  12.995   7.767  0.00  0.00    -0.223 NA
ATOM      8  C   UNL     1       3.247  12.608   6.972  0.00  0.00    +0.220 A 
ATOM      9  N   UNL     1       2.320  11.666   7.392  0.00  0.00    -0.283 N 
ATOM     36  H   UNL     1       1.546  11.412   6.780  0.00  0.00    +0.155 HD
ATOM     37  N   UNL     1       3.094  13.144   5.743  0.00  0.00    -0.214 NA
BRANCH   4   3
ATOM      1  C   UNL     1       4.361  15.055   1.476  0.00  0.00    +0.020 A 
ATOM      2  C   UNL     1       4.680  14.545   2.790  0.00  0.00    +0.013 A 
ATOM      3  C   UNL     1       3.697  14.591   3.865  0.00  0.00    +0.019 A 
ATOM     38  C   UNL     1       2.391  15.162   3.576  0.00  0.00    +0.120 A 
ATOM     39  N   UNL     1       2.112  15.646   2.301  0.00  0.00    -0.263 NA
ATOM     40  C   UNL     1       3.051  15.609   1.259  0.00  0.00    +0.111 A 
ENDBRANCH   4   3
ENDBRANCH  10   9
BRANCH  12  13
ATOM     13  N   UNL     1       3.974   7.900  10.191  0.00  0.00    -0.281 N 
ATOM     14  C   UNL     1       5.336   7.665  10.097  0.00  0.00    +0.248 C 
ATOM     30  O   UNL     1       6.145   8.461   9.644  0.00  0.00    -0.270 OA
ATOM     31  H   UNL     1       3.393   7.088  10.403  0.00  0.00    +0.155 HD
BRANCH  14  15
ATOM     15  C   UNL     1       5.876   6.350  10.561  0.00  0.00    +0.037 A 
ATOM     16  C   UNL     1       5.328   5.086  10.063  0.00  0.00    +0.013 A 
ATOM     17  C   UNL     1       5.856   3.832  10.539  0.00  0.00    +0.005 A 
ATOM     18  C   UNL     1       6.939   3.837  11.519  0.00  0.00    -0.033 A 
ATOM     28  C   UNL     1       7.467   5.106  11.993  0.00  0.00    +0.005 A 
ATOM     29  C   UNL     1       6.952   6.337  11.529  0.00  0.00    +0.013 A 
BRANCH  18  19
ATOM     19  C   UNL     1       7.549   2.546  12.098  0.00  0.00    +0.119 C 
BRANCH  19  20
ATOM     20  N   UNL     1       8.378   1.710  11.181  0.00  0.00    -0.302 NA
ATOM     21  C   UNL     1       8.878   0.433  11.861  0.00  0.00    +0.066 C 
ATOM     22  C   UNL     1       9.725  -0.441  10.880  0.00  0.00    -0.064 C 
ATOM     23  N   UNL     1      10.899   0.384  10.350  0.00  0.00    +0.379 N 
ATOM     24  C   UNL     1      11.731  -0.452   9.473  0.00  0.00    -0.096 C 
ATOM     25  H   UNL     1      11.523   0.683  11.224  0.00  0.00    -0.082 HD
ATOM     26  C   UNL     1      10.411   1.658   9.674  0.00  0.00    -0.064 C 
ATOM     27  C   UNL     1       9.546   2.505  10.649  0.00  0.00    +0.066 C 
ENDBRANCH  19  20
ENDBRANCH  18  19
ENDBRANCH  14  15
ENDBRANCH  12  13
TORSDOF 6
ENDMDL
MODEL 3
REMARK VINA RESULT:      -9.0      6.371     15.094
REMARK  Name = C:\Users\Docking\Desktop\test protocol\1iep_ligandH.pdb
REMARK  8 active torsions:
REMARK  status: ('A' for Active; 'I' for Inactive)
REMARK    1  A    between atoms: _5  and  _11
REMARK    2  A    between atoms: _19  and  _21
REMARK    3  A    between atoms: _22  and  _66
REMARK    4  A    between atoms: _27  and  _30
REMARK    5  A    between atoms: _32  and  _33
REMARK    6  A    between atoms: _38  and  _43
REMARK    7  A    between atoms: _43  and  _46
REMARK    8  A    between atoms: _53  and  _55
REMARK                            x       y       z     vdW  Elec       q    Type
REMARK                         _______ _______ _______ _____ _____    ______ ____
ROOT
ATOM     10  C   UNL     1       9.000   4.058  10.652  0.00  0.00    +0.038 A 
ATOM     11  C   UNL     1       9.272   2.724  11.047  0.00  0.00    +0.047 A 
ATOM     12  C   UNL     1      10.220   1.900  10.314  0.00  0.00    +0.035 A 
ATOM     32  C   UNL     1      10.876   2.469   9.183  0.00  0.00    +0.024 A 
ATOM     33  C   UNL     1      10.611   3.824   8.767  0.00  0.00    +0.007 A 
ATOM     34  C   UNL     1       9.674   4.640   9.485  0.00  0.00    -0.029 A 
ATOM     35  C   UNL     1       9.424   6.084   8.990  0.00  0.00    +0.045 C 
ENDROOT
BRANCH  10   9
ATOM      4  C   UNL     1       4.510   5.316  11.790  0.00  0.00    +0.077 A 
ATOM      5  C   UNL     1       3.950   4.433  10.808  0.00  0.00    +0.048 A 
ATOM      6  C   UNL     1       4.852   3.678  10.025  0.00  0.00    +0.116 A 
ATOM      7  N   UNL     1       6.211   3.804  10.220  0.00  0.00    -0.223 NA
ATOM      8  C   UNL     1       6.717   4.667  11.175  0.00  0.00    +0.220 A 
ATOM      9  N   UNL     1       8.080   4.804  11.393  0.00  0.00    -0.283 N 
ATOM     36  H   UNL     1       8.414   5.456  12.102  0.00  0.00    +0.155 HD
ATOM     37  N   UNL     1       5.877   5.400  11.934  0.00  0.00    -0.214 NA
BRANCH   4   3
ATOM      1  C   UNL     1       2.724   6.771  14.952  0.00  0.00    +0.020 A 
ATOM      2  C   UNL     1       3.530   5.908  14.120  0.00  0.00    +0.013 A 
ATOM      3  C   UNL     1       3.686   6.177  12.696  0.00  0.00    +0.019 A 
ATOM     38  C   UNL     1       3.008   7.339  12.141  0.00  0.00    +0.120 A 
ATOM     39  N   UNL     1       2.237   8.152  12.966  0.00  0.00    -0.263 NA
ATOM     40  C   UNL     1       2.078   7.901  14.337  0.00  0.00    +0.111 A 
ENDBRANCH   4   3
ENDBRANCH  10   9
BRANCH  12  13
ATOM     13  N   UNL     1      10.531   0.536  10.663  0.00  0.00    -0.281 N 
ATOM     14  C   UNL     1       9.858  -0.291  11.548  0.00  0.00    +0.248 C 
ATOM     30  O   UNL     1       9.007   0.090  12.338  0.00  0.00    -0.270 OA
ATOM     31  H   UNL     1      11.346   0.131  10.202  0.00  0.00    +0.155 HD
BRANCH  14  15
ATOM     15  C   UNL     1      10.188  -1.748  11.567  0.00  0.00    +0.037 A 
ATOM     16  C   UNL     1       9.856  -2.618  10.436  0.00  0.00    +0.013 A 
ATOM     17  C   UNL     1      10.170  -4.024  10.487  0.00  0.00    +0.005 A 
ATOM     18  C   UNL     1      10.822  -4.569  11.676  0.00  0.00    -0.033 A 
ATOM     28  C   UNL     1      11.146  -3.682  12.781  0.00  0.00    +0.005 A 
ATOM     29  C   UNL     1      10.838  -2.304  12.735  0.00  0.00    +0.013 A 
BRANCH  18  19
ATOM     19  C   UNL     1      11.176  -6.060  11.826  0.00  0.00    +0.119 C 
BRANCH  19  20
ATOM     20  N   UNL     1      12.620  -6.432  11.750  0.00  0.00    -0.302 NA
ATOM     21  C   UNL     1      13.397  -5.525  10.792  0.00  0.00    +0.066 C 
ATOM     22  C   UNL     1      14.910  -5.914  10.742  0.00  0.00    -0.064 C 
ATOM     23  N   UNL     1      15.044  -7.380  10.327  0.00  0.00    +0.379 N 
ATOM     24  C   UNL     1      16.468  -7.733  10.223  0.00  0.00    -0.096 C 
ATOM     25  H   UNL     1      14.594  -7.487   9.313  0.00  0.00    -0.082 HD
ATOM     26  C   UNL     1      14.272  -8.289  11.274  0.00  0.00    -0.064 C 
ATOM     27  C   UNL     1      12.775  -7.875  11.339  0.00  0.00    +0.066 C 
ENDBRANCH  19  20
ENDBRANCH  18  19
ENDBRANCH  14  15
ENDBRANCH  12  13
TORSDOF 6
ENDMDL
MODEL 4
REMARK VINA RESULT:      -9.0      5.563     13.591
REMARK  Name = C:\Users\Docking\Desktop\test protocol\1iep_ligandH.pdb
REMARK  8 active torsions:
REMARK  status: ('A' for Active; 'I' for Inactive)
REMARK    1  A    between atoms: _5  and  _11
REMARK    2  A    between atoms: _19  and  _21
REMARK    3  A    between atoms: _22  and  _66
REMARK    4  A    between atoms: _27  and  _30
REMARK    5  A    between atoms: _32  and  _33
REMARK    6  A    between atoms: _38  and  _43
REMARK    7  A    between atoms: _43  and  _46
REMARK    8  A    between atoms: _53  and  _55
REMARK                            x       y       z     vdW  Elec       q    Type
REMARK                         _______ _______ _______ _____ _____    ______ ____
ROOT
ATOM     10  C   UNL     1       5.529   5.037  10.219  0.00  0.00    +0.038 A 
ATOM     11  C   UNL     1       4.929   3.914   9.594  0.00  0.00    +0.047 A 
ATOM     12  C   UNL     1       5.319   2.558   9.947  0.00  0.00    +0.035 A 
ATOM     32  C   UNL     1       6.323   2.382  10.944  0.00  0.00    +0.024 A 
ATOM     33  C   UNL     1       6.944   3.512  11.589  0.00  0.00    +0.007 A 
ATOM     34  C   UNL     1       6.565   4.852  11.242  0.00  0.00    -0.029 A 
ATOM     35  C   UNL     1       7.269   6.026  11.962  0.00  0.00    +0.045 C 
ENDROOT
BRANCH  10   9
ATOM      4  C   UNL     1       2.686   8.876  10.683  0.00  0.00    +0.077 A 
ATOM      5  C   UNL     1       1.944   8.271  11.751  0.00  0.00    +0.048 A 
ATOM      6  C   UNL     1       2.321   6.968  12.146  0.00  0.00    +0.116 A 
ATOM      7  N   UNL     1       3.364   6.328  11.513  0.00  0.00    -0.223 NA
ATOM      8  C   UNL     1       4.058   6.939  10.486  0.00  0.00    +0.220 A 
ATOM      9  N   UNL     1       5.116   6.317   9.841  0.00  0.00    -0.283 N 
ATOM     36  H   UNL     1       5.598   6.798   9.082  0.00  0.00    +0.155 HD
ATOM     37  N   UNL     1       3.717   8.183  10.089  0.00  0.00    -0.214 NA
BRANCH   4   3
ATOM      1  C   UNL     1       1.600  12.625  10.415  0.00  0.00    +0.020 A 
ATOM      2  C   UNL     1       1.847  11.315  10.974  0.00  0.00    +0.013 A 
ATOM      3  C   UNL     1       2.410  10.250  10.155  0.00  0.00    +0.019 A 
ATOM     38  C   UNL     1       2.716  10.544   8.763  0.00  0.00    +0.120 A 
ATOM     39  N   UNL     1       2.466  11.814   8.252  0.00  0.00    -0.263 NA
ATOM     40  C   UNL     1       1.922  12.847   9.030  0.00  0.00    +0.111 A 
ENDBRANCH   4   3
ENDBRANCH  10   9
BRANCH  12  13
ATOM     13  N   UNL     1       4.751   1.380   9.341  0.00  0.00    -0.281 N 
ATOM     14  C   UNL     1       4.985   0.878   8.071  0.00  0.00    +0.248 C 
ATOM     30  O   UNL     1       5.560   1.489   7.182  0.00  0.00    -0.270 OA
ATOM     31  H   UNL     1       4.096   0.851   9.918  0.00  0.00    +0.155 HD
BRANCH  14  15
ATOM     15  C   UNL     1       4.498  -0.495   7.735  0.00  0.00    +0.037 A 
ATOM     16  C   UNL     1       3.237  -0.699   7.018  0.00  0.00    +0.013 A 
ATOM     17  C   UNL     1       2.782  -2.035   6.722  0.00  0.00    +0.005 A 
ATOM     18  C   UNL     1       3.591  -3.177   7.143  0.00  0.00    -0.033 A 
ATOM     28  C   UNL     1       4.840  -2.944   7.849  0.00  0.00    +0.005 A 
ATOM     29  C   UNL     1       5.289  -1.637   8.141  0.00  0.00    +0.013 A 
BRANCH  18  19
ATOM     19  C   UNL     1       3.173  -4.637   6.889  0.00  0.00    +0.119 C 
BRANCH  19  20
ATOM     20  N   UNL     1       2.580  -5.388   8.035  0.00  0.00    -0.302 NA
ATOM     21  C   UNL     1       1.935  -6.703   7.588  0.00  0.00    +0.066 C 
ATOM     22  C   UNL     1       1.340  -7.487   8.803  0.00  0.00    -0.064 C 
ATOM     23  N   UNL     1       0.323  -6.604   9.528  0.00  0.00    +0.379 N 
ATOM     24  C   UNL     1      -0.280  -7.358  10.636  0.00  0.00    -0.096 C 
ATOM     25  H   UNL     1      -0.488  -6.358   8.804  0.00  0.00    -0.082 HD
ATOM     26  C   UNL     1       0.956  -5.293   9.973  0.00  0.00    -0.064 C 
ATOM     27  C   UNL     1       1.570  -4.536   8.763  0.00  0.00    +0.066 C 
ENDBRANCH  19  20
ENDBRANCH  18  19
ENDBRANCH  14  15
ENDBRANCH  12  13
TORSDOF 6
ENDMDL
MODEL 5
REMARK VINA RESULT:      -9.0      6.312     15.170
REMARK  Name = C:\Users\Docking\Desktop\test protocol\1iep_ligandH.pdb
REMARK  8 active torsions:
REMARK  status: ('A' for Active; 'I' for Inactive)
REMARK    1  A    between atoms: _5  and  _11
REMARK    2  A    between atoms: _19  and  _21
REMARK    3  A    between atoms: _22  and  _66
REMARK    4  A    between atoms: _27  and  _30
REMARK    5  A    between atoms: _32  and  _33
REMARK    6  A    between atoms: _38  and  _43
REMARK    7  A    between atoms: _43  and  _46
REMARK    8  A    between atoms: _53  and  _55
REMARK                            x       y       z     vdW  Elec       q    Type
REMARK                         _______ _______ _______ _____ _____    ______ ____
ROOT
ATOM     10  C   UNL     1       7.200   2.956   8.963  0.00  0.00    +0.038 A 
ATOM     11  C   UNL     1       7.708   1.757   9.524  0.00  0.00    +0.047 A 
ATOM     12  C   UNL     1       8.762   1.004   8.862  0.00  0.00    +0.035 A 
ATOM     32  C   UNL     1       9.278   1.503   7.631  0.00  0.00    +0.024 A 
ATOM     33  C   UNL     1       8.773   2.720   7.046  0.00  0.00    +0.007 A 
ATOM     34  C   UNL     1       7.731   3.465   7.693  0.00  0.00    -0.029 A 
ATOM     35  C   UNL     1       7.223   4.760   7.016  0.00  0.00    +0.045 C 
ENDROOT
BRANCH  10   9
ATOM      4  C   UNL     1       5.669   5.907  12.425  0.00  0.00    +0.077 A 
ATOM      5  C   UNL     1       6.995   6.083  12.943  0.00  0.00    +0.048 A 
ATOM      6  C   UNL     1       8.042   5.390  12.295  0.00  0.00    +0.116 A 
ATOM      7  N   UNL     1       7.772   4.585  11.209  0.00  0.00    -0.223 NA
ATOM      8  C   UNL     1       6.481   4.437  10.736  0.00  0.00    +0.220 A 
ATOM      9  N   UNL     1       6.187   3.639   9.641  0.00  0.00    -0.283 N 
ATOM     36  H   UNL     1       5.221   3.549   9.327  0.00  0.00    +0.155 HD
ATOM     37  N   UNL     1       5.464   5.086  11.338  0.00  0.00    -0.214 NA
BRANCH   4   3
ATOM      1  C   UNL     1       2.744   6.914  14.819  0.00  0.00    +0.020 A 
ATOM      2  C   UNL     1       3.916   6.239  14.310  0.00  0.00    +0.013 A 
ATOM      3  C   UNL     1       4.458   6.575  12.999  0.00  0.00    +0.019 A 
ATOM     38  C   UNL     1       3.787   7.607  12.224  0.00  0.00    +0.120 A 
ATOM     39  N   UNL     1       2.660   8.239  12.739  0.00  0.00    -0.263 NA
ATOM     40  C   UNL     1       2.128   7.923  13.998  0.00  0.00    +0.111 A 
ENDBRANCH   4   3
ENDBRANCH  10   9
BRANCH  12  13
ATOM     13  N   UNL     1       9.312  -0.224   9.381  0.00  0.00    -0.281 N 
ATOM     14  C   UNL     1       9.958  -0.425  10.590  0.00  0.00    +0.248 C 
ATOM     30  O   UNL     1      10.352   0.472  11.320  0.00  0.00    -0.270 OA
ATOM     31  H   UNL     1       9.213  -1.045   8.783  0.00  0.00    +0.155 HD
BRANCH  14  15
ATOM     15  C   UNL     1      10.216  -1.825  11.046  0.00  0.00    +0.037 A 
ATOM     16  C   UNL     1      10.805  -2.099  12.360  0.00  0.00    +0.013 A 
ATOM     17  C   UNL     1      11.060  -3.457  12.769  0.00  0.00    +0.005 A 
ATOM     18  C   UNL     1      10.724  -4.553  11.863  0.00  0.00    -0.033 A 
ATOM     28  C   UNL     1      10.136  -4.253  10.568  0.00  0.00    +0.005 A 
ATOM     29  C   UNL     1       9.886  -2.922  10.163  0.00  0.00    +0.013 A 
BRANCH  18  19
ATOM     19  C   UNL     1      10.980  -6.032  12.208  0.00  0.00    +0.119 C 
BRANCH  19  20
ATOM     20  N   UNL     1      12.127  -6.704  11.528  0.00  0.00    -0.302 NA
ATOM     21  C   UNL     1      12.307  -8.150  11.998  0.00  0.00    +0.066 C 
ATOM     22  C   UNL     1      13.498  -8.844  11.260  0.00  0.00    -0.064 C 
ATOM     23  N   UNL     1      14.777  -8.037  11.489  0.00  0.00    +0.379 N 
ATOM     24  C   UNL     1      15.909  -8.719  10.845  0.00  0.00    -0.096 C 
ATOM     25  H   UNL     1      14.973  -8.018  12.586  0.00  0.00    -0.082 HD
ATOM     26  C   UNL     1      14.606  -6.597  11.026  0.00  0.00    -0.064 C 
ATOM     27  C   UNL     1      13.402  -5.925  11.744  0.00  0.00    +0.066 C 
ENDBRANCH  19  20
ENDBRANCH  18  19
ENDBRANCH  14  15
ENDBRANCH  12  13
TORSDOF 6
ENDMDL
