MODEL 1
REMARK VINA RESULT:      -8.2      0.000      0.000
REMARK  Name = C:\Users\Docking\Desktop\test protocol\1iep_ligandH.pdb
REMARK  8 active torsions:
REMARK  status: ('A' for Active; 'I' for Inactive)
REMARK    1  A    between atoms: _5  and  _11
REMARK    2  A    between atoms: _19  and  _21
REMARK    3  A    between atoms: _22  and  _66
REMARK    4  A    between atoms: _27  and  _30
REMARK    5  A    between atoms: _32  and  _33
REMARK    6  A    between atoms: _38  and  _43
REMARK    7  A    between atoms: _43  and  _46
REMARK    8  A    between atoms: _53  and  _55
REMARK                            x       y       z     vdW  Elec       q    Type
REMARK                         _______ _______ _______ _____ _____    ______ ____
ROOT
ATOM     10  C   UNL     1      19.823  -1.146   8.969  0.00  0.00    +0.038 A 
ATOM     11  C   UNL     1      20.178  -1.116  10.342  0.00  0.00    +0.047 A 
ATOM     12  C   UNL     1      19.497  -1.958  11.313  0.00  0.00    +0.035 A 
ATOM     32  C   UNL     1      18.461  -2.821  10.851  0.00  0.00    +0.024 A 
ATOM     33  C   UNL     1      18.087  -2.863   9.459  0.00  0.00    +0.007 A 
ATOM     34  C   UNL     1      18.754  -2.033   8.496  0.00  0.00    -0.029 A 
ATOM     35  C   UNL     1      18.307  -2.115   7.018  0.00  0.00    +0.045 C 
ENDROOT
BRANCH  10   9
ATOM      4  C   UNL     1      20.222   2.877   6.381  0.00  0.00    +0.077 A 
ATOM      5  C   UNL     1      18.941   3.354   6.817  0.00  0.00    +0.048 A 
ATOM      6  C   UNL     1      18.208   2.531   7.701  0.00  0.00    +0.116 A 
ATOM      7  N   UNL     1      18.728   1.323   8.113  0.00  0.00    -0.223 NA
ATOM      8  C   UNL     1      19.965   0.892   7.672  0.00  0.00    +0.220 A 
ATOM      9  N   UNL     1      20.510  -0.316   8.079  0.00  0.00    -0.283 N 
ATOM     36  H   UNL     1      21.423  -0.602   7.726  0.00  0.00    +0.155 HD
ATOM     37  N   UNL     1      20.684   1.659   6.826  0.00  0.00    -0.214 NA
BRANCH   4   3
ATOM      1  C   UNL     1      23.366   4.534   4.748  0.00  0.00    +0.020 A 
ATOM      2  C   UNL     1      22.547   3.794   5.679  0.00  0.00    +0.013 A 
ATOM      3  C   UNL     1      21.117   3.634   5.449  0.00  0.00    +0.019 A 
ATOM     38  C   UNL     1      20.542   4.240   4.258  0.00  0.00    +0.120 A 
ATOM     39  N   UNL     1      21.356   4.949   3.379  0.00  0.00    -0.263 NA
ATOM     40  C   UNL     1      22.733   5.111   3.591  0.00  0.00    +0.111 A 
ENDBRANCH   4   3
ENDBRANCH  10   9
BRANCH  12  13
ATOM     13  N   UNL     1      19.808  -1.964  12.721  0.00  0.00    -0.281 N 
ATOM     14  C   UNL     1      20.665  -2.815  13.400  0.00  0.00    +0.248 C 
ATOM     30  O   UNL     1      21.134  -3.842  12.932  0.00  0.00    -0.270 OA
ATOM     31  H   UNL     1      19.339  -1.256  13.286  0.00  0.00    +0.155 HD
BRANCH  14  15
ATOM     15  C   UNL     1      21.044  -2.485  14.807  0.00  0.00    +0.037 A 
ATOM     16  C   UNL     1      22.039  -3.280  15.532  0.00  0.00    +0.013 A 
ATOM     17  C   UNL     1      22.375  -2.950  16.895  0.00  0.00    +0.005 A 
ATOM     18  C   UNL     1      21.715  -1.818  17.541  0.00  0.00    -0.033 A 
ATOM     28  C   UNL     1      20.736  -1.044  16.797  0.00  0.00    +0.005 A 
ATOM     29  C   UNL     1      20.404  -1.364  15.462  0.00  0.00    +0.013 A 
BRANCH  18  19
ATOM     19  C   UNL     1      21.995  -1.408  18.999  0.00  0.00    +0.119 C 
BRANCH  19  20
ATOM     20  N   UNL     1      23.057  -0.383  19.228  0.00  0.00    -0.302 NA
ATOM     21  C   UNL     1      24.006  -0.782  20.362  0.00  0.00    +0.066 C 
ATOM     22  C   UNL     1      25.124   0.290  20.573  0.00  0.00    -0.064 C 
ATOM     23  N   UNL     1      24.478   1.646  20.861  0.00  0.00    +0.379 N 
ATOM     24  C   UNL     1      25.526   2.645  21.117  0.00  0.00    -0.096 C 
ATOM     25  H   UNL     1      23.874   1.542  21.792  0.00  0.00    -0.082 HD
ATOM     26  C   UNL     1      23.530   2.050  19.740  0.00  0.00    -0.064 C 
ATOM     27  C   UNL     1      22.441   0.964  19.518  0.00  0.00    +0.066 C 
ENDBRANCH  19  20
ENDBRANCH  18  19
ENDBRANCH  14  15
ENDBRANCH  12  13
TORSDOF 6
ENDMDL
MODEL 2
REMARK VINA RESULT:      -8.2      5.354     15.019
REMARK  Name = C:\Users\Docking\Desktop\test protocol\1iep_ligandH.pdb
REMARK  8 active torsions:
REMARK  status: ('A' for Active; 'I' for Inactive)
REMARK    1  A    between atoms: _5  and  _11
REMARK    2  A    between atoms: _19  and  _21
REMARK    3  A    between atoms: _22  and  _66
REMARK    4  A    between atoms: _27  and  _30
REMARK    5  A    between atoms: _32  and  _33
REMARK    6  A    between atoms: _38  and  _43
REMARK    7  A    between atoms: _43  and  _46
REMARK    8  A    between atoms: _53  and  _55
REMARK                            x       y       z     vdW  Elec       q    Type
REMARK                         _______ _______ _______ _____ _____    ______ ____
ROOT
ATOM     10  C   UNL     1      22.971  -3.593  21.111  0.00  0.00    +0.038 A 
ATOM     11  C   UNL     1      22.484  -3.610  19.779  0.00  0.00    +0.047 A 
ATOM     12  C   UNL     1      23.019  -2.707  18.771  0.00  0.00    +0.035 A 
ATOM     32  C   UNL     1      24.051  -1.802  19.154  0.00  0.00    +0.024 A 
ATOM     33  C   UNL     1      24.557  -1.771  20.504  0.00  0.00    +0.007 A 
ATOM     34  C   UNL     1      24.032  -2.657  21.503  0.00  0.00    -0.029 A 
ATOM     35  C   UNL     1      24.608  -2.575  22.936  0.00  0.00    +0.045 C 
ENDROOT
BRANCH  10   9
ATOM      4  C   UNL     1      22.902  -7.807  23.408  0.00  0.00    +0.077 A 
ATOM      5  C   UNL     1      24.040  -8.289  22.680  0.00  0.00    +0.048 A 
ATOM      6  C   UNL     1      24.610  -7.425  21.718  0.00  0.00    +0.116 A 
ATOM      7  N   UNL     1      24.073  -6.173  21.509  0.00  0.00    -0.223 NA
ATOM      8  C   UNL     1      22.974  -5.739  22.227  0.00  0.00    +0.220 A 
ATOM      9  N   UNL     1      22.422  -4.481  22.038  0.00  0.00    -0.283 N 
ATOM     36  H   UNL     1      21.607  -4.202  22.583  0.00  0.00    +0.155 HD
ATOM     37  N   UNL     1      22.411  -6.547  23.150  0.00  0.00    -0.214 NA
BRANCH   4   3
ATOM      1  C   UNL     1      20.295 -10.059  25.260  0.00  0.00    +0.020 A 
ATOM      2  C   UNL     1      20.940  -9.305  24.210  0.00  0.00    +0.013 A 
ATOM      3  C   UNL     1      22.192  -8.602  24.459  0.00  0.00    +0.019 A 
ATOM     38  C   UNL     1      22.770  -8.683  25.792  0.00  0.00    +0.120 A 
ATOM     39  N   UNL     1      22.125  -9.415  26.784  0.00  0.00    -0.263 NA
ATOM     40  C   UNL     1      20.919 -10.095  26.556  0.00  0.00    +0.111 A 
ENDBRANCH   4   3
ENDBRANCH  10   9
BRANCH  12  13
ATOM     13  N   UNL     1      22.558  -2.673  17.405  0.00  0.00    -0.281 N 
ATOM     14  C   UNL     1      22.539  -3.710  16.487  0.00  0.00    +0.248 C 
ATOM     30  O   UNL     1      23.118  -4.776  16.636  0.00  0.00    -0.270 OA
ATOM     31  H   UNL     1      22.202  -1.776  17.076  0.00  0.00    +0.155 HD
BRANCH  14  15
ATOM     15  C   UNL     1      21.781  -3.531  15.211  0.00  0.00    +0.037 A 
ATOM     16  C   UNL     1      21.855  -4.524  14.137  0.00  0.00    +0.013 A 
ATOM     17  C   UNL     1      21.126  -4.319  12.910  0.00  0.00    +0.005 A 
ATOM     18  C   UNL     1      20.315  -3.114  12.752  0.00  0.00    -0.033 A 
ATOM     28  C   UNL     1      20.255  -2.148  13.836  0.00  0.00    +0.005 A 
ATOM     29  C   UNL     1      20.969  -2.345  15.040  0.00  0.00    +0.013 A 
BRANCH  18  19
ATOM     19  C   UNL     1      19.522  -2.803  11.470  0.00  0.00    +0.119 C 
BRANCH  19  20
ATOM     20  N   UNL     1      19.875  -1.552  10.734  0.00  0.00    -0.302 NA
ATOM     21  C   UNL     1      18.712  -0.556  10.703  0.00  0.00    +0.066 C 
ATOM     22  C   UNL     1      19.106   0.755   9.949  0.00  0.00    -0.064 C 
ATOM     23  N   UNL     1      19.560   0.408   8.530  0.00  0.00    +0.379 N 
ATOM     24  C   UNL     1      19.876   1.644   7.799  0.00  0.00    -0.096 C 
ATOM     25  H   UNL     1      18.703  -0.082   8.012  0.00  0.00    -0.082 HD
ATOM     26  C   UNL     1      20.714  -0.584   8.551  0.00  0.00    -0.064 C 
ATOM     27  C   UNL     1      20.321  -1.872   9.328  0.00  0.00    +0.066 C 
ENDBRANCH  19  20
ENDBRANCH  18  19
ENDBRANCH  14  15
ENDBRANCH  12  13
TORSDOF 6
ENDMDL
MODEL 3
REMARK VINA RESULT:      -8.2      3.766      7.682
REMARK  Name = C:\Users\Docking\Desktop\test protocol\1iep_ligandH.pdb
REMARK  8 active torsions:
REMARK  status: ('A' for Active; 'I' for Inactive)
REMARK    1  A    between atoms: _5  and  _11
REMARK    2  A    between atoms: _19  and  _21
REMARK    3  A    between atoms: _22  and  _66
REMARK    4  A    between atoms: _27  and  _30
REMARK    5  A    between atoms: _32  and  _33
REMARK    6  A    between atoms: _38  and  _43
REMARK    7  A    between atoms: _43  and  _46
REMARK    8  A    between atoms: _53  and  _55
REMARK                            x       y       z     vdW  Elec       q    Type
REMARK                         _______ _______ _______ _____ _____    ______ ____
ROOT
ATOM     10  C   UNL     1      22.385  -2.839  16.013  0.00  0.00    +0.038 A 
ATOM     11  C   UNL     1      22.691  -1.703  16.805  0.00  0.00    +0.047 A 
ATOM     12  C   UNL     1      22.928  -1.824  18.235  0.00  0.00    +0.035 A 
ATOM     32  C   UNL     1      22.848  -3.118  18.826  0.00  0.00    +0.024 A 
ATOM     33  C   UNL     1      22.537  -4.284  18.036  0.00  0.00    +0.007 A 
ATOM     34  C   UNL     1      22.299  -4.170  16.626  0.00  0.00    -0.029 A 
ATOM     35  C   UNL     1      21.963  -5.453  15.830  0.00  0.00    +0.045 C 
ENDROOT
BRANCH  10   9
ATOM      4  C   UNL     1      19.538  -1.875  12.271  0.00  0.00    +0.077 A 
ATOM      5  C   UNL     1      18.383  -1.733  13.110  0.00  0.00    +0.048 A 
ATOM      6  C   UNL     1      18.563  -1.922  14.499  0.00  0.00    +0.116 A 
ATOM      7  N   UNL     1      19.809  -2.231  14.999  0.00  0.00    -0.223 NA
ATOM      8  C   UNL     1      20.902  -2.363  14.162  0.00  0.00    +0.220 A 
ATOM      9  N   UNL     1      22.166  -2.665  14.645  0.00  0.00    -0.283 N 
ATOM     36  H   UNL     1      22.944  -2.761  13.993  0.00  0.00    +0.155 HD
ATOM     37  N   UNL     1      20.756  -2.188  12.832  0.00  0.00    -0.214 NA
BRANCH   4   3
ATOM      1  C   UNL     1      20.538  -0.979   8.597  0.00  0.00    +0.020 A 
ATOM      2  C   UNL     1      20.616  -1.123  10.032  0.00  0.00    +0.013 A 
ATOM      3  C   UNL     1      19.509  -1.702  10.784  0.00  0.00    +0.019 A 
ATOM     38  C   UNL     1      18.329  -2.129  10.047  0.00  0.00    +0.120 A 
ATOM     39  N   UNL     1      18.282  -1.977   8.665  0.00  0.00    -0.263 NA
ATOM     40  C   UNL     1      19.340  -1.419   7.931  0.00  0.00    +0.111 A 
ENDBRANCH   4   3
ENDBRANCH  10   9
BRANCH  12  13
ATOM     13  N   UNL     1      23.235  -0.705  19.090  0.00  0.00    -0.281 N 
ATOM     14  C   UNL     1      24.252   0.225  18.945  0.00  0.00    +0.248 C 
ATOM     30  O   UNL     1      25.188   0.110  18.168  0.00  0.00    -0.270 OA
ATOM     31  H   UNL     1      22.630  -0.583  19.902  0.00  0.00    +0.155 HD
BRANCH  14  15
ATOM     15  C   UNL     1      24.234   1.454  19.795  0.00  0.00    +0.037 A 
ATOM     16  C   UNL     1      23.176   2.459  19.657  0.00  0.00    +0.013 A 
ATOM     17  C   UNL     1      23.191   3.643  20.478  0.00  0.00    +0.005 A 
ATOM     18  C   UNL     1      24.269   3.829  21.447  0.00  0.00    -0.033 A 
ATOM     28  C   UNL     1      25.303   2.814  21.567  0.00  0.00    +0.005 A 
ATOM     29  C   UNL     1      25.291   1.653  20.763  0.00  0.00    +0.013 A 
BRANCH  18  19
ATOM     19  C   UNL     1      24.377   5.072  22.349  0.00  0.00    +0.119 C 
BRANCH  19  20
ATOM     20  N   UNL     1      23.878   4.945  23.751  0.00  0.00    -0.302 NA
ATOM     21  C   UNL     1      24.971   4.457  24.707  0.00  0.00    +0.066 C 
ATOM     22  C   UNL     1      24.438   4.351  26.173  0.00  0.00    -0.064 C 
ATOM     23  N   UNL     1      23.231   3.413  26.208  0.00  0.00    +0.379 N 
ATOM     24  C   UNL     1      22.763   3.266  27.594  0.00  0.00    -0.096 C 
ATOM     25  H   UNL     1      23.571   2.411  25.857  0.00  0.00    -0.082 HD
ATOM     26  C   UNL     1      22.141   3.889  25.258  0.00  0.00    -0.064 C 
ATOM     27  C   UNL     1      22.688   4.019  23.809  0.00  0.00    +0.066 C 
ENDBRANCH  19  20
ENDBRANCH  18  19
ENDBRANCH  14  15
ENDBRANCH  12  13
TORSDOF 6
ENDMDL
MODEL 4
REMARK VINA RESULT:      -8.1      6.744     11.228
REMARK  Name = C:\Users\Docking\Desktop\test protocol\1iep_ligandH.pdb
REMARK  8 active torsions:
REMARK  status: ('A' for Active; 'I' for Inactive)
REMARK    1  A    between atoms: _5  and  _11
REMARK    2  A    between atoms: _19  and  _21
REMARK    3  A    between atoms: _22  and  _66
REMARK    4  A    between atoms: _27  and  _30
REMARK    5  A    between atoms: _32  and  _33
REMARK    6  A    between atoms: _38  and  _43
REMARK    7  A    between atoms: _43  and  _46
REMARK    8  A    between atoms: _53  and  _55
REMARK                            x       y       z     vdW  Elec       q    Type
REMARK                         _______ _______ _______ _____ _____    ______ ____
ROOT
ATOM     10  C   UNL     1      23.703  -1.515  18.873  0.00  0.00    +0.038 A 
ATOM     11  C   UNL     1      23.452  -2.693  19.621  0.00  0.00    +0.047 A 
ATOM     12  C   UNL     1      24.543  -3.490  20.160  0.00  0.00    +0.035 A 
ATOM     32  C   UNL     1      25.879  -3.055  19.920  0.00  0.00    +0.024 A 
ATOM     33  C   UNL     1      26.153  -1.861  19.160  0.00  0.00    +0.007 A 
ATOM     34  C   UNL     1      25.080  -1.073  18.624  0.00  0.00    -0.029 A 
ATOM     35  C   UNL     1      25.432   0.195  17.811  0.00  0.00    +0.045 C 
ENDROOT
BRANCH  10   9
ATOM      4  C   UNL     1      20.177  -0.810  15.694  0.00  0.00    +0.077 A 
ATOM      5  C   UNL     1      20.546  -1.972  14.938  0.00  0.00    +0.048 A 
ATOM      6  C   UNL     1      21.653  -2.720  15.396  0.00  0.00    +0.116 A 
ATOM      7  N   UNL     1      22.333  -2.326  16.528  0.00  0.00    -0.223 NA
ATOM      8  C   UNL     1      21.952  -1.199  17.233  0.00  0.00    +0.220 A 
ATOM      9  N   UNL     1      22.617  -0.789  18.379  0.00  0.00    -0.283 N 
ATOM     36  H   UNL     1      22.309   0.052  18.866  0.00  0.00    +0.155 HD
ATOM     37  N   UNL     1      20.899  -0.467  16.815  0.00  0.00    -0.214 NA
BRANCH   4   3
ATOM      1  C   UNL     1      17.428   1.115  13.683  0.00  0.00    +0.020 A 
ATOM      2  C   UNL     1      18.542   0.242  13.973  0.00  0.00    +0.013 A 
ATOM      3  C   UNL     1      19.027   0.081  15.338  0.00  0.00    +0.019 A 
ATOM     38  C   UNL     1      18.357   0.823  16.395  0.00  0.00    +0.120 A 
ATOM     39  N   UNL     1      17.287   1.657  16.086  0.00  0.00    -0.263 NA
ATOM     40  C   UNL     1      16.813   1.821  14.775  0.00  0.00    +0.111 A 
ENDBRANCH   4   3
ENDBRANCH  10   9
BRANCH  12  13
ATOM     13  N   UNL     1      24.349  -4.699  20.921  0.00  0.00    -0.281 N 
ATOM     14  C   UNL     1      24.009  -4.818  22.258  0.00  0.00    +0.248 C 
ATOM     30  O   UNL     1      24.027  -3.897  23.061  0.00  0.00    -0.270 OA
ATOM     31  H   UNL     1      24.480  -5.573  20.412  0.00  0.00    +0.155 HD
BRANCH  14  15
ATOM     15  C   UNL     1      23.602  -6.158  22.783  0.00  0.00    +0.037 A 
ATOM     16  C   UNL     1      22.954  -6.297  24.089  0.00  0.00    +0.013 A 
ATOM     17  C   UNL     1      22.587  -7.602  24.579  0.00  0.00    +0.005 A 
ATOM     18  C   UNL     1      22.867  -8.779  23.760  0.00  0.00    -0.033 A 
ATOM     28  C   UNL     1      23.506  -8.612  22.466  0.00  0.00    +0.005 A 
ATOM     29  C   UNL     1      23.868  -7.334  21.983  0.00  0.00    +0.013 A 
BRANCH  18  19
ATOM     19  C   UNL     1      22.529 -10.212  24.213  0.00  0.00    +0.119 C 
BRANCH  19  20
ATOM     20  N   UNL     1      21.187 -10.437  24.828  0.00  0.00    -0.302 NA
ATOM     21  C   UNL     1      20.082  -9.679  24.087  0.00  0.00    +0.066 C 
ATOM     22  C   UNL     1      18.681  -9.944  24.730  0.00  0.00    -0.064 C 
ATOM     23  N   UNL     1      18.717  -9.543  26.206  0.00  0.00    +0.379 N 
ATOM     24  C   UNL     1      17.386  -9.736  26.799  0.00  0.00    -0.096 C 
ATOM     25  H   UNL     1      18.955  -8.455  26.255  0.00  0.00    -0.082 HD
ATOM     26  C   UNL     1      19.816 -10.290  26.949  0.00  0.00    -0.064 C 
ATOM     27  C   UNL     1      21.199 -10.044  26.284  0.00  0.00    +0.066 C 
ENDBRANCH  19  20
ENDBRANCH  18  19
ENDBRANCH  14  15
ENDBRANCH  12  13
TORSDOF 6
ENDMDL
MODEL 5
REMARK VINA RESULT:      -8.0      5.332     15.187
REMARK  Name = C:\Users\Docking\Desktop\test protocol\1iep_ligandH.pdb
REMARK  8 active torsions:
REMARK  status: ('A' for Active; 'I' for Inactive)
REMARK    1  A    between atoms: _5  and  _11
REMARK    2  A    between atoms: _19  and  _21
REMARK    3  A    between atoms: _22  and  _66
REMARK    4  A    between atoms: _27  and  _30
REMARK    5  A    between atoms: _32  and  _33
REMARK    6  A    between atoms: _38  and  _43
REMARK    7  A    between atoms: _43  and  _46
REMARK    8  A    between atoms: _53  and  _55
REMARK                            x       y       z     vdW  Elec       q    Type
REMARK                         _______ _______ _______ _____ _____    ______ ____
ROOT
ATOM     10  C   UNL     1      22.928  -3.472  21.244  0.00  0.00    +0.038 A 
ATOM     11  C   UNL     1      22.437  -3.337  19.920  0.00  0.00    +0.047 A 
ATOM     12  C   UNL     1      23.018  -2.375  18.997  0.00  0.00    +0.035 A 
ATOM     32  C   UNL     1      24.100  -1.568  19.455  0.00  0.00    +0.024 A 
ATOM     33  C   UNL     1      24.610  -1.691  20.797  0.00  0.00    +0.007 A 
ATOM     34  C   UNL     1      24.040  -2.637  21.713  0.00  0.00    -0.029 A 
ATOM     35  C   UNL     1      24.623  -2.721  23.143  0.00  0.00    +0.045 C 
ENDROOT
BRANCH  10   9
ATOM      4  C   UNL     1      22.754  -7.808  23.296  0.00  0.00    +0.077 A 
ATOM      5  C   UNL     1      23.934  -8.246  22.607  0.00  0.00    +0.048 A 
ATOM      6  C   UNL     1      24.551  -7.328  21.729  0.00  0.00    +0.116 A 
ATOM      7  N   UNL     1      24.020  -6.068  21.559  0.00  0.00    -0.223 NA
ATOM      8  C   UNL     1      22.880  -5.677  22.237  0.00  0.00    +0.220 A 
ATOM      9  N   UNL     1      22.333  -4.412  22.088  0.00  0.00    -0.283 N 
ATOM     36  H   UNL     1      21.486  -4.165  22.601  0.00  0.00    +0.155 HD
ATOM     37  N   UNL     1      22.271  -6.536  23.081  0.00  0.00    -0.214 NA
BRANCH   4   3
ATOM      1  C   UNL     1      19.994 -10.058  24.914  0.00  0.00    +0.020 A 
ATOM      2  C   UNL     1      20.690  -9.240  23.948  0.00  0.00    +0.013 A 
ATOM      3  C   UNL     1      21.991  -8.662  24.260  0.00  0.00    +0.019 A 
ATOM     38  C   UNL     1      22.565  -8.933  25.569  0.00  0.00    +0.120 A 
ATOM     39  N   UNL     1      21.872  -9.724  26.480  0.00  0.00    -0.263 NA
ATOM     40  C   UNL     1      20.618 -10.284  26.192  0.00  0.00    +0.111 A 
ENDBRANCH   4   3
ENDBRANCH  10   9
BRANCH  12  13
ATOM     13  N   UNL     1      22.557  -2.188  17.644  0.00  0.00    -0.281 N 
ATOM     14  C   UNL     1      22.334  -3.156  16.678  0.00  0.00    +0.248 C 
ATOM     30  O   UNL     1      22.704  -4.317  16.766  0.00  0.00    -0.270 OA
ATOM     31  H   UNL     1      22.372  -1.225  17.363  0.00  0.00    +0.155 HD
BRANCH  14  15
ATOM     15  C   UNL     1      21.608  -2.776  15.428  0.00  0.00    +0.037 A 
ATOM     16  C   UNL     1      21.902  -3.430  14.150  0.00  0.00    +0.013 A 
ATOM     17  C   UNL     1      21.199  -3.032  12.956  0.00  0.00    +0.005 A 
ATOM     18  C   UNL     1      20.194  -1.975  13.036  0.00  0.00    -0.033 A 
ATOM     28  C   UNL     1      19.919  -1.346  14.317  0.00  0.00    +0.005 A 
ATOM     29  C   UNL     1      20.607  -1.733  15.489  0.00  0.00    +0.013 A 
BRANCH  18  19
ATOM     19  C   UNL     1      19.410  -1.472  11.809  0.00  0.00    +0.119 C 
BRANCH  19  20
ATOM     20  N   UNL     1      19.312  -2.391  10.636  0.00  0.00    -0.302 NA
ATOM     21  C   UNL     1      20.300  -2.016   9.527  0.00  0.00    +0.066 C 
ATOM     22  C   UNL     1      20.200  -3.001   8.318  0.00  0.00    -0.064 C 
ATOM     23  N   UNL     1      18.765  -3.008   7.786  0.00  0.00    +0.379 N 
ATOM     24  C   UNL     1      18.681  -3.889   6.613  0.00  0.00    -0.096 C 
ATOM     25  H   UNL     1      18.525  -1.972   7.450  0.00  0.00    -0.082 HD
ATOM     26  C   UNL     1      17.777  -3.377   8.883  0.00  0.00    -0.064 C 
ATOM     27  C   UNL     1      17.905  -2.409  10.092  0.00  0.00    +0.066 C 
ENDBRANCH  19  20
ENDBRANCH  18  19
ENDBRANCH  14  15
ENDBRANCH  12  13
TORSDOF 6
ENDMDL
