MODEL 1
REMARK VINA RESULT:      -7.8      0.000      0.000
REMARK  Name = C:\Users\Docking\Desktop\test protocol\1iep_ligandH.pdb
REMARK  8 active torsions:
REMARK  status: ('A' for Active; 'I' for Inactive)
REMARK    1  A    between atoms: _5  and  _11
REMARK    2  A    between atoms: _19  and  _21
REMARK    3  A    between atoms: _22  and  _66
REMARK    4  A    between atoms: _27  and  _30
REMARK    5  A    between atoms: _32  and  _33
REMARK    6  A    between atoms: _38  and  _43
REMARK    7  A    between atoms: _43  and  _46
REMARK    8  A    between atoms: _53  and  _55
REMARK                            x       y       z     vdW  Elec       q    Type
REMARK                         _______ _______ _______ _____ _____    ______ ____
ROOT
ATOM     10  C   UNL     1       5.480  -0.843  22.299  0.00  0.00    +0.038 A 
ATOM     11  C   UNL     1       5.173  -0.834  20.914  0.00  0.00    +0.047 A 
ATOM     12  C   UNL     1       5.886  -1.691  19.979  0.00  0.00    +0.035 A 
ATOM     32  C   UNL     1       6.906  -2.546  20.490  0.00  0.00    +0.024 A 
ATOM     33  C   UNL     1       7.231  -2.567  21.894  0.00  0.00    +0.007 A 
ATOM     34  C   UNL     1       6.533  -1.723  22.821  0.00  0.00    -0.029 A 
ATOM     35  C   UNL     1       6.928  -1.783  24.314  0.00  0.00    +0.045 C 
ENDROOT
BRANCH  10   9
ATOM      4  C   UNL     1       4.972   3.239  24.771  0.00  0.00    +0.077 A 
ATOM      5  C   UNL     1       6.255   3.723  24.350  0.00  0.00    +0.048 A 
ATOM      6  C   UNL     1       7.018   2.887  23.503  0.00  0.00    +0.116 A 
ATOM      7  N   UNL     1       6.524   1.662  23.112  0.00  0.00    -0.223 NA
ATOM      8  C   UNL     1       5.283   1.225  23.538  0.00  0.00    +0.220 A 
ATOM      9  N   UNL     1       4.763  -0.001  23.151  0.00  0.00    -0.283 N 
ATOM     36  H   UNL     1       3.847  -0.290  23.493  0.00  0.00    +0.155 HD
ATOM     37  N   UNL     1       4.536   2.003  24.348  0.00  0.00    -0.214 NA
BRANCH   4   3
ATOM      1  C   UNL     1       3.542   5.330  27.751  0.00  0.00    +0.020 A 
ATOM      2  C   UNL     1       4.474   4.597  26.926  0.00  0.00    +0.013 A 
ATOM      3  C   UNL     1       4.048   4.008  25.663  0.00  0.00    +0.019 A 
ATOM     38  C   UNL     1       2.660   4.180  25.260  0.00  0.00    +0.120 A 
ATOM     39  N   UNL     1       1.784   4.890  26.076  0.00  0.00    -0.263 NA
ATOM     40  C   UNL     1       2.183   5.461  27.294  0.00  0.00    +0.111 A 
ENDBRANCH   4   3
ENDBRANCH  10   9
BRANCH  12  13
ATOM     13  N   UNL     1       5.624  -1.719  18.562  0.00  0.00    -0.281 N 
ATOM     14  C   UNL     1       4.831  -2.612  17.860  0.00  0.00    +0.248 C 
ATOM     30  O   UNL     1       4.394  -3.657  18.319  0.00  0.00    -0.270 OA
ATOM     31  H   UNL     1       6.077  -0.992  18.009  0.00  0.00    +0.155 HD
BRANCH  14  15
ATOM     15  C   UNL     1       4.484  -2.307  16.439  0.00  0.00    +0.037 A 
ATOM     16  C   UNL     1       3.414  -3.030  15.746  0.00  0.00    +0.013 A 
ATOM     17  C   UNL     1       3.111  -2.728  14.369  0.00  0.00    +0.005 A 
ATOM     18  C   UNL     1       3.879  -1.696  13.677  0.00  0.00    -0.033 A 
ATOM     28  C   UNL     1       4.932  -0.991  14.390  0.00  0.00    +0.005 A 
ATOM     29  C   UNL     1       5.232  -1.285  15.738  0.00  0.00    +0.013 A 
BRANCH  18  19
ATOM     19  C   UNL     1       3.639  -1.323  12.202  0.00  0.00    +0.119 C 
BRANCH  19  20
ATOM     20  N   UNL     1       2.726  -0.173  11.927  0.00  0.00    -0.302 NA
ATOM     21  C   UNL     1       1.675  -0.514  10.868  0.00  0.00    +0.066 C 
ATOM     22  C   UNL     1       0.715   0.692  10.609  0.00  0.00    -0.064 C 
ATOM     23  N   UNL     1       1.535   1.912  10.185  0.00  0.00    +0.379 N 
ATOM     24  C   UNL     1       0.631   3.031   9.885  0.00  0.00    -0.096 C 
ATOM     25  H   UNL     1       2.071   1.648   9.244  0.00  0.00    -0.082 HD
ATOM     26  C   UNL     1       2.585   2.256  11.232  0.00  0.00    -0.064 C 
ATOM     27  C   UNL     1       3.516   1.041  11.503  0.00  0.00    +0.066 C 
ENDBRANCH  19  20
ENDBRANCH  18  19
ENDBRANCH  14  15
ENDBRANCH  12  13
TORSDOF 6
ENDMDL
MODEL 2
REMARK VINA RESULT:      -7.7      3.609     12.469
REMARK  Name = C:\Users\Docking\Desktop\test protocol\1iep_ligandH.pdb
REMARK  8 active torsions:
REMARK  status: ('A' for Active; 'I' for Inactive)
REMARK    1  A    between atoms: _5  and  _11
REMARK    2  A    between atoms: _19  and  _21
REMARK    3  A    between atoms: _22  and  _66
REMARK    4  A    between atoms: _27  and  _30
REMARK    5  A    between atoms: _32  and  _33
REMARK    6  A    between atoms: _38  and  _43
REMARK    7  A    between atoms: _43  and  _46
REMARK    8  A    between atoms: _53  and  _55
REMARK                            x       y       z     vdW  Elec       q    Type
REMARK                         _______ _______ _______ _____ _____    ______ ____
ROOT
ATOM     10  C   UNL     1       3.038  -2.531  13.609  0.00  0.00    +0.038 A 
ATOM     11  C   UNL     1       3.394  -2.307  14.963  0.00  0.00    +0.047 A 
ATOM     12  C   UNL     1       3.249  -3.354  15.963  0.00  0.00    +0.035 A 
ATOM     32  C   UNL     1       2.741  -4.619  15.547  0.00  0.00    +0.024 A 
ATOM     33  C   UNL     1       2.373  -4.864  14.174  0.00  0.00    +0.007 A 
ATOM     34  C   UNL     1       2.511  -3.834  13.185  0.00  0.00    -0.029 A 
ATOM     35  C   UNL     1       2.095  -4.150  11.729  0.00  0.00    +0.045 C 
ENDROOT
BRANCH  10   9
ATOM      4  C   UNL     1       1.475   1.417  11.372  0.00  0.00    +0.077 A 
ATOM      5  C   UNL     1       0.223   1.389  12.072  0.00  0.00    +0.048 A 
ATOM      6  C   UNL     1       0.018   0.338  12.993  0.00  0.00    +0.116 A 
ATOM      7  N   UNL     1       0.999  -0.609  13.193  0.00  0.00    -0.223 NA
ATOM      8  C   UNL     1       2.195  -0.553  12.501  0.00  0.00    +0.220 A 
ATOM      9  N   UNL     1       3.198  -1.491  12.691  0.00  0.00    -0.283 N 
ATOM     36  H   UNL     1       4.063  -1.419  12.156  0.00  0.00    +0.155 HD
ATOM     37  N   UNL     1       2.414   0.440  11.614  0.00  0.00    -0.214 NA
BRANCH   4   3
ATOM      1  C   UNL     1       1.341   3.922   8.371  0.00  0.00    +0.020 A 
ATOM      2  C   UNL     1       0.937   2.904   9.314  0.00  0.00    +0.013 A 
ATOM      3  C   UNL     1       1.842   2.467  10.369  0.00  0.00    +0.019 A 
ATOM     38  C   UNL     1       3.157   3.084  10.444  0.00  0.00    +0.120 A 
ATOM     39  N   UNL     1       3.519   4.061   9.521  0.00  0.00    -0.263 NA
ATOM     40  C   UNL     1       2.657   4.489   8.500  0.00  0.00    +0.111 A 
ENDBRANCH   4   3
ENDBRANCH  10   9
BRANCH  12  13
ATOM     13  N   UNL     1       3.587  -3.182  17.354  0.00  0.00    -0.281 N 
ATOM     14  C   UNL     1       4.809  -3.403  17.967  0.00  0.00    +0.248 C 
ATOM     30  O   UNL     1       5.747  -3.989  17.448  0.00  0.00    -0.270 OA
ATOM     31  H   UNL     1       2.833  -2.859  17.960  0.00  0.00    +0.155 HD
BRANCH  14  15
ATOM     15  C   UNL     1       5.014  -2.914  19.365  0.00  0.00    +0.037 A 
ATOM     16  C   UNL     1       4.984  -1.484  19.682  0.00  0.00    +0.013 A 
ATOM     17  C   UNL     1       5.202  -1.038  21.035  0.00  0.00    +0.005 A 
ATOM     18  C   UNL     1       5.451  -2.026  22.083  0.00  0.00    -0.033 A 
ATOM     28  C   UNL     1       5.470  -3.439  21.742  0.00  0.00    +0.005 A 
ATOM     29  C   UNL     1       5.258  -3.879  20.416  0.00  0.00    +0.013 A 
BRANCH  18  19
ATOM     19  C   UNL     1       5.714  -1.640  23.551  0.00  0.00    +0.119 C 
BRANCH  19  20
ATOM     20  N   UNL     1       7.125  -1.713  24.034  0.00  0.00    -0.302 NA
ATOM     21  C   UNL     1       7.352  -2.908  24.965  0.00  0.00    +0.066 C 
ATOM     22  C   UNL     1       8.839  -2.983  25.443  0.00  0.00    -0.064 C 
ATOM     23  N   UNL     1       9.214  -1.674  26.140  0.00  0.00    +0.379 N 
ATOM     24  C   UNL     1      10.592  -1.763  26.642  0.00  0.00    -0.096 C 
ATOM     25  H   UNL     1       8.540  -1.555  27.021  0.00  0.00    -0.082 HD
ATOM     26  C   UNL     1       8.988  -0.480  25.223  0.00  0.00    -0.064 C 
ATOM     27  C   UNL     1       7.515  -0.432  24.730  0.00  0.00    +0.066 C 
ENDBRANCH  19  20
ENDBRANCH  18  19
ENDBRANCH  14  15
ENDBRANCH  12  13
TORSDOF 6
ENDMDL
MODEL 3
REMARK VINA RESULT:      -7.6      2.114      3.104
REMARK  Name = C:\Users\Docking\Desktop\test protocol\1iep_ligandH.pdb
REMARK  8 active torsions:
REMARK  status: ('A' for Active; 'I' for Inactive)
REMARK    1  A    between atoms: _5  and  _11
REMARK    2  A    between atoms: _19  and  _21
REMARK    3  A    between atoms: _22  and  _66
REMARK    4  A    between atoms: _27  and  _30
REMARK    5  A    between atoms: _32  and  _33
REMARK    6  A    between atoms: _38  and  _43
REMARK    7  A    between atoms: _43  and  _46
REMARK    8  A    between atoms: _53  and  _55
REMARK                            x       y       z     vdW  Elec       q    Type
REMARK                         _______ _______ _______ _____ _____    ______ ____
ROOT
ATOM     10  C   UNL     1       5.409  -0.798  22.225  0.00  0.00    +0.038 A 
ATOM     11  C   UNL     1       5.024  -0.871  20.862  0.00  0.00    +0.047 A 
ATOM     12  C   UNL     1       5.746  -1.714  19.921  0.00  0.00    +0.035 A 
ATOM     32  C   UNL     1       6.853  -2.470  20.403  0.00  0.00    +0.024 A 
ATOM     33  C   UNL     1       7.259  -2.407  21.785  0.00  0.00    +0.007 A 
ATOM     34  C   UNL     1       6.553  -1.576  22.718  0.00  0.00    -0.029 A 
ATOM     35  C   UNL     1       7.036  -1.541  24.186  0.00  0.00    +0.045 C 
ENDROOT
BRANCH  10   9
ATOM      4  C   UNL     1       4.872   3.230  24.780  0.00  0.00    +0.077 A 
ATOM      5  C   UNL     1       6.163   3.720  24.390  0.00  0.00    +0.048 A 
ATOM      6  C   UNL     1       6.937   2.902  23.536  0.00  0.00    +0.116 A 
ATOM      7  N   UNL     1       6.446   1.686  23.111  0.00  0.00    -0.223 NA
ATOM      8  C   UNL     1       5.198   1.243  23.507  0.00  0.00    +0.220 A 
ATOM      9  N   UNL     1       4.681   0.028  23.085  0.00  0.00    -0.283 N 
ATOM     36  H   UNL     1       3.759  -0.267  23.406  0.00  0.00    +0.155 HD
ATOM     37  N   UNL     1       4.440   2.005  24.323  0.00  0.00    -0.214 NA
BRANCH   4   3
ATOM      1  C   UNL     1       1.685   4.978  26.224  0.00  0.00    +0.020 A 
ATOM      2  C   UNL     1       2.547   4.249  25.323  0.00  0.00    +0.013 A 
ATOM      3  C   UNL     1       3.936   3.981  25.675  0.00  0.00    +0.019 A 
ATOM     38  C   UNL     1       4.424   4.467  26.957  0.00  0.00    +0.120 A 
ATOM     39  N   UNL     1       3.571   5.168  27.803  0.00  0.00    -0.263 NA
ATOM     40  C   UNL     1       2.233   5.434  27.474  0.00  0.00    +0.111 A 
ENDBRANCH   4   3
ENDBRANCH  10   9
BRANCH  12  13
ATOM     13  N   UNL     1       5.406  -1.822  18.524  0.00  0.00    -0.281 N 
ATOM     14  C   UNL     1       4.943  -2.937  17.844  0.00  0.00    +0.248 C 
ATOM     30  O   UNL     1       4.955  -4.074  18.293  0.00  0.00    -0.270 OA
ATOM     31  H   UNL     1       5.520  -0.974  17.969  0.00  0.00    +0.155 HD
BRANCH  14  15
ATOM     15  C   UNL     1       4.404  -2.767  16.461  0.00  0.00    +0.037 A 
ATOM     16  C   UNL     1       4.869  -1.684  15.591  0.00  0.00    +0.013 A 
ATOM     17  C   UNL     1       4.320  -1.532  14.267  0.00  0.00    +0.005 A 
ATOM     18  C   UNL     1       3.298  -2.468  13.804  0.00  0.00    -0.033 A 
ATOM     28  C   UNL     1       2.858  -3.537  14.686  0.00  0.00    +0.005 A 
ATOM     29  C   UNL     1       3.394  -3.688  15.984  0.00  0.00    +0.013 A 
BRANCH  18  19
ATOM     19  C   UNL     1       2.641  -2.369  12.415  0.00  0.00    +0.119 C 
BRANCH  19  20
ATOM     20  N   UNL     1       2.011  -3.607  11.867  0.00  0.00    -0.302 NA
ATOM     21  C   UNL     1       3.016  -4.474  11.103  0.00  0.00    +0.066 C 
ATOM     22  C   UNL     1       2.345  -5.776  10.556  0.00  0.00    -0.064 C 
ATOM     23  N   UNL     1       1.164  -5.399   9.660  0.00  0.00    +0.379 N 
ATOM     24  C   UNL     1       0.566  -6.619   9.098  0.00  0.00    -0.096 C 
ATOM     25  H   UNL     1       1.562  -4.796   8.812  0.00  0.00    -0.082 HD
ATOM     26  C   UNL     1       0.161  -4.535  10.411  0.00  0.00    -0.064 C 
ATOM     27  C   UNL     1       0.844  -3.259  10.975  0.00  0.00    +0.066 C 
ENDBRANCH  19  20
ENDBRANCH  18  19
ENDBRANCH  14  15
ENDBRANCH  12  13
TORSDOF 6
ENDMDL
MODEL 4
REMARK VINA RESULT:      -7.5      5.919     13.079
REMARK  Name = C:\Users\Docking\Desktop\test protocol\1iep_ligandH.pdb
REMARK  8 active torsions:
REMARK  status: ('A' for Active; 'I' for Inactive)
REMARK    1  A    between atoms: _5  and  _11
REMARK    2  A    between atoms: _19  and  _21
REMARK    3  A    between atoms: _22  and  _66
REMARK    4  A    between atoms: _27  and  _30
REMARK    5  A    between atoms: _32  and  _33
REMARK    6  A    between atoms: _38  and  _43
REMARK    7  A    between atoms: _43  and  _46
REMARK    8  A    between atoms: _53  and  _55
REMARK                            x       y       z     vdW  Elec       q    Type
REMARK                         _______ _______ _______ _____ _____    ______ ____
ROOT
ATOM     10  C   UNL     1       5.914  -0.680  22.164  0.00  0.00    +0.038 A 
ATOM     11  C   UNL     1       5.333  -0.023  23.280  0.00  0.00    +0.047 A 
ATOM     12  C   UNL     1       5.020   1.396  23.238  0.00  0.00    +0.035 A 
ATOM     32  C   UNL     1       5.309   2.117  22.043  0.00  0.00    +0.024 A 
ATOM     33  C   UNL     1       5.900   1.466  20.900  0.00  0.00    +0.007 A 
ATOM     34  C   UNL     1       6.214   0.066  20.936  0.00  0.00    -0.029 A 
ATOM     35  C   UNL     1       6.853  -0.578  19.684  0.00  0.00    +0.045 C 
ENDROOT
BRANCH  10   9
ATOM      4  C   UNL     1       7.947  -4.442  24.344  0.00  0.00    +0.077 A 
ATOM      5  C   UNL     1       8.522  -3.615  25.365  0.00  0.00    +0.048 A 
ATOM      6  C   UNL     1       8.277  -2.225  25.289  0.00  0.00    +0.116 A 
ATOM      7  N   UNL     1       7.511  -1.712  24.264  0.00  0.00    -0.223 NA
ATOM      8  C   UNL     1       6.973  -2.538  23.295  0.00  0.00    +0.220 A 
ATOM      9  N   UNL     1       6.194  -2.045  22.259  0.00  0.00    -0.283 N 
ATOM     36  H   UNL     1       5.821  -2.686  21.560  0.00  0.00    +0.155 HD
ATOM     37  N   UNL     1       7.194  -3.868  23.344  0.00  0.00    -0.214 NA
BRANCH   4   3
ATOM      1  C   UNL     1       7.422  -8.229  23.518  0.00  0.00    +0.020 A 
ATOM      2  C   UNL     1       7.217  -6.799  23.538  0.00  0.00    +0.013 A 
ATOM      3  C   UNL     1       8.113  -5.929  24.290  0.00  0.00    +0.019 A 
ATOM     38  C   UNL     1       9.216  -6.542  25.014  0.00  0.00    +0.120 A 
ATOM     39  N   UNL     1       9.388  -7.922  24.977  0.00  0.00    -0.263 NA
ATOM     40  C   UNL     1       8.531  -8.770  24.259  0.00  0.00    +0.111 A 
ENDBRANCH   4   3
ENDBRANCH  10   9
BRANCH  12  13
ATOM     13  N   UNL     1       4.437   2.118  24.341  0.00  0.00    -0.281 N 
ATOM     14  C   UNL     1       4.888   3.290  24.926  0.00  0.00    +0.248 C 
ATOM     30  O   UNL     1       5.988   3.784  24.724  0.00  0.00    -0.270 OA
ATOM     31  H   UNL     1       3.588   1.717  24.741  0.00  0.00    +0.155 HD
BRANCH  14  15
ATOM     15  C   UNL     1       3.995   4.011  25.883  0.00  0.00    +0.037 A 
ATOM     16  C   UNL     1       4.520   4.597  27.119  0.00  0.00    +0.013 A 
ATOM     17  C   UNL     1       3.634   5.272  28.033  0.00  0.00    +0.005 A 
ATOM     18  C   UNL     1       2.211   5.365  27.714  0.00  0.00    -0.033 A 
ATOM     28  C   UNL     1       1.717   4.779  26.479  0.00  0.00    +0.005 A 
ATOM     29  C   UNL     1       2.583   4.116  25.581  0.00  0.00    +0.013 A 
BRANCH  18  19
ATOM     19  C   UNL     1       1.189   6.048  28.642  0.00  0.00    +0.119 C 
BRANCH  19  20
ATOM     20  N   UNL     1       1.617   7.306  29.323  0.00  0.00    -0.302 NA
ATOM     21  C   UNL     1       2.185   7.038  30.720  0.00  0.00    +0.066 C 
ATOM     22  C   UNL     1       2.649   8.363  31.409  0.00  0.00    -0.064 C 
ATOM     23  N   UNL     1       1.472   9.337  31.480  0.00  0.00    +0.379 N 
ATOM     24  C   UNL     1       1.889  10.561  32.180  0.00  0.00    -0.096 C 
ATOM     25  H   UNL     1       0.672   8.855  32.089  0.00  0.00    -0.082 HD
ATOM     26  C   UNL     1       0.899   9.606  30.096  0.00  0.00    -0.064 C 
ATOM     27  C   UNL     1       0.468   8.280  29.409  0.00  0.00    +0.066 C 
ENDBRANCH  19  20
ENDBRANCH  18  19
ENDBRANCH  14  15
ENDBRANCH  12  13
TORSDOF 6
ENDMDL
MODEL 5
REMARK VINA RESULT:      -7.5      5.659     15.249
REMARK  Name = C:\Users\Docking\Desktop\test protocol\1iep_ligandH.pdb
REMARK  8 active torsions:
REMARK  status: ('A' for Active; 'I' for Inactive)
REMARK    1  A    between atoms: _5  and  _11
REMARK    2  A    between atoms: _19  and  _21
REMARK    3  A    between atoms: _22  and  _66
REMARK    4  A    between atoms: _27  and  _30
REMARK    5  A    between atoms: _32  and  _33
REMARK    6  A    between atoms: _38  and  _43
REMARK    7  A    between atoms: _43  and  _46
REMARK    8  A    between atoms: _53  and  _55
REMARK                            x       y       z     vdW  Elec       q    Type
REMARK                         _______ _______ _______ _____ _____    ______ ____
ROOT
ATOM     10  C   UNL     1       2.667  -3.649   9.498  0.00  0.00    +0.038 A 
ATOM     11  C   UNL     1       3.097  -3.541  10.845  0.00  0.00    +0.047 A 
ATOM     12  C   UNL     1       2.520  -2.551  11.742  0.00  0.00    +0.035 A 
ATOM     32  C   UNL     1       1.505  -1.689  11.233  0.00  0.00    +0.024 A 
ATOM     33  C   UNL     1       1.057  -1.785   9.866  0.00  0.00    +0.007 A 
ATOM     34  C   UNL     1       1.624  -2.757   8.977  0.00  0.00    -0.029 A 
ATOM     35  C   UNL     1       1.110  -2.811   7.519  0.00  0.00    +0.045 C 
ENDROOT
BRANCH  10   9
ATOM      4  C   UNL     1       2.749  -8.005   7.483  0.00  0.00    +0.077 A 
ATOM      5  C   UNL     1       1.531  -8.393   8.134  0.00  0.00    +0.048 A 
ATOM      6  C   UNL     1       0.919  -7.446   8.985  0.00  0.00    +0.116 A 
ATOM      7  N   UNL     1       1.491  -6.205   9.163  0.00  0.00    -0.223 NA
ATOM      8  C   UNL     1       2.667  -5.863   8.522  0.00  0.00    +0.220 A 
ATOM      9  N   UNL     1       3.256  -4.617   8.682  0.00  0.00    -0.283 N 
ATOM     36  H   UNL     1       4.127  -4.406   8.197  0.00  0.00    +0.155 HD
ATOM     37  N   UNL     1       3.272  -6.750   7.706  0.00  0.00    -0.214 NA
BRANCH   4   3
ATOM      1  C   UNL     1       3.913  -9.955   4.299  0.00  0.00    +0.020 A 
ATOM      2  C   UNL     1       3.141  -9.086   5.156  0.00  0.00    +0.013 A 
ATOM      3  C   UNL     1       3.513  -8.894   6.552  0.00  0.00    +0.019 A 
ATOM     38  C   UNL     1       4.681  -9.603   7.054  0.00  0.00    +0.120 A 
ATOM     39  N   UNL     1       5.404 -10.435   6.205  0.00  0.00    -0.263 NA
ATOM     40  C   UNL     1       5.055 -10.628   4.860  0.00  0.00    +0.111 A 
ENDBRANCH   4   3
ENDBRANCH  10   9
BRANCH  12  13
ATOM     13  N   UNL     1       2.922  -2.389  13.117  0.00  0.00    -0.281 N 
ATOM     14  C   UNL     1       2.877  -3.328  14.134  0.00  0.00    +0.248 C 
ATOM     30  O   UNL     1       2.281  -4.393  14.065  0.00  0.00    -0.270 OA
ATOM     31  H   UNL     1       3.283  -1.469  13.372  0.00  0.00    +0.155 HD
BRANCH  14  15
ATOM     15  C   UNL     1       3.583  -3.037  15.418  0.00  0.00    +0.037 A 
ATOM     16  C   UNL     1       4.672  -2.058  15.482  0.00  0.00    +0.013 A 
ATOM     17  C   UNL     1       5.348  -1.809  16.730  0.00  0.00    +0.005 A 
ATOM     18  C   UNL     1       4.936  -2.538  17.926  0.00  0.00    -0.033 A 
ATOM     28  C   UNL     1       3.849  -3.500  17.836  0.00  0.00    +0.005 A 
ATOM     29  C   UNL     1       3.185  -3.748  16.614  0.00  0.00    +0.013 A 
BRANCH  18  19
ATOM     19  C   UNL     1       5.615  -2.351  19.296  0.00  0.00    +0.119 C 
BRANCH  19  20
ATOM     20  N   UNL     1       5.276  -1.116  20.064  0.00  0.00    -0.302 NA
ATOM     21  C   UNL     1       6.388  -0.067  19.985  0.00  0.00    +0.066 C 
ATOM     22  C   UNL     1       6.007   1.227  20.776  0.00  0.00    -0.064 C 
ATOM     23  N   UNL     1       5.708   0.863  22.231  0.00  0.00    +0.379 N 
ATOM     24  C   UNL     1       5.406   2.085  22.990  0.00  0.00    -0.096 C 
ATOM     25  H   UNL     1       6.633   0.416  22.664  0.00  0.00    -0.082 HD
ATOM     26  C   UNL     1       4.605  -0.182  22.319  0.00  0.00    -0.064 C 
ATOM     27  C   UNL     1       4.981  -1.452  21.506  0.00  0.00    +0.066 C 
ENDBRANCH  19  20
ENDBRANCH  18  19
ENDBRANCH  14  15
ENDBRANCH  12  13
TORSDOF 6
ENDMDL
