MODEL 1
REMARK VINA RESULT:     -10.0      0.000      0.000
REMARK  Name = C:\Users\Docking\Desktop\test protocol\1iep_ligandH.pdb
REMARK  8 active torsions:
REMARK  status: ('A' for Active; 'I' for Inactive)
REMARK    1  A    between atoms: _5  and  _11
REMARK    2  A    between atoms: _19  and  _21
REMARK    3  A    between atoms: _22  and  _66
REMARK    4  A    between atoms: _27  and  _30
REMARK    5  A    between atoms: _32  and  _33
REMARK    6  A    between atoms: _38  and  _43
REMARK    7  A    between atoms: _43  and  _46
REMARK    8  A    between atoms: _53  and  _55
REMARK                            x       y       z     vdW  Elec       q    Type
REMARK                         _______ _______ _______ _____ _____    ______ ____
ROOT
ATOM     10  C   UNL     1     -19.195  25.559  12.543  0.00  0.00    +0.038 A 
ATOM     11  C   UNL     1     -19.176  24.207  12.971  0.00  0.00    +0.047 A 
ATOM     12  C   UNL     1     -19.215  23.114  12.012  0.00  0.00    +0.035 A 
ATOM     32  C   UNL     1     -19.269  23.434  10.624  0.00  0.00    +0.024 A 
ATOM     33  C   UNL     1     -19.289  24.802  10.172  0.00  0.00    +0.007 A 
ATOM     34  C   UNL     1     -19.254  25.885  11.113  0.00  0.00    -0.029 A 
ATOM     35  C   UNL     1     -19.285  27.333  10.571  0.00  0.00    +0.045 C 
ENDROOT
BRANCH  10   9
ATOM      4  C   UNL     1     -16.828  28.412  15.592  0.00  0.00    +0.077 A 
ATOM      5  C   UNL     1     -15.565  27.822  15.256  0.00  0.00    +0.048 A 
ATOM      6  C   UNL     1     -15.568  26.783  14.299  0.00  0.00    +0.116 A 
ATOM      7  N   UNL     1     -16.752  26.372  13.727  0.00  0.00    -0.223 NA
ATOM      8  C   UNL     1     -17.954  26.961  14.075  0.00  0.00    +0.220 A 
ATOM      9  N   UNL     1     -19.157  26.569  13.507  0.00  0.00    -0.283 N 
ATOM     36  H   UNL     1     -20.023  27.023  13.796  0.00  0.00    +0.155 HD
ATOM     37  N   UNL     1     -17.978  27.955  14.987  0.00  0.00    -0.214 NA
BRANCH   4   3
ATOM      1  C   UNL     1     -18.204  30.684  18.463  0.00  0.00    +0.020 A 
ATOM      2  C   UNL     1     -18.097  29.590  17.526  0.00  0.00    +0.013 A 
ATOM      3  C   UNL     1     -16.988  29.523  16.583  0.00  0.00    +0.019 A 
ATOM     38  C   UNL     1     -15.997  30.588  16.614  0.00  0.00    +0.120 A 
ATOM     39  N   UNL     1     -16.127  31.630  17.526  0.00  0.00    -0.263 NA
ATOM     40  C   UNL     1     -17.191  31.706  18.438  0.00  0.00    +0.111 A 
ENDBRANCH   4   3
ENDBRANCH  10   9
BRANCH  12  13
ATOM     13  N   UNL     1     -19.206  21.721  12.388  0.00  0.00    -0.281 N 
ATOM     14  C   UNL     1     -18.423  21.103  13.348  0.00  0.00    +0.248 C 
ATOM     30  O   UNL     1     -17.453  21.618  13.886  0.00  0.00    -0.270 OA
ATOM     31  H   UNL     1     -19.857  21.118  11.884  0.00  0.00    +0.155 HD
BRANCH  14  15
ATOM     15  C   UNL     1     -18.756  19.706  13.762  0.00  0.00    +0.037 A 
ATOM     16  C   UNL     1     -17.820  18.905  14.554  0.00  0.00    +0.013 A 
ATOM     17  C   UNL     1     -18.158  17.554  14.926  0.00  0.00    +0.005 A 
ATOM     18  C   UNL     1     -19.442  16.996  14.505  0.00  0.00    -0.033 A 
ATOM     28  C   UNL     1     -20.354  17.815  13.724  0.00  0.00    +0.005 A 
ATOM     29  C   UNL     1     -20.025  19.139  13.358  0.00  0.00    +0.013 A 
BRANCH  18  19
ATOM     19  C   UNL     1     -19.877  15.557  14.838  0.00  0.00    +0.119 C 
BRANCH  19  20
ATOM     20  N   UNL     1     -21.010  15.389  15.797  0.00  0.00    -0.302 NA
ATOM     21  C   UNL     1     -22.365  15.664  15.139  0.00  0.00    +0.066 C 
ATOM     22  C   UNL     1     -23.540  15.463  16.151  0.00  0.00    -0.064 C 
ATOM     23  N   UNL     1     -23.330  16.375  17.361  0.00  0.00    +0.379 N 
ATOM     24  C   UNL     1     -24.463  16.231  18.287  0.00  0.00    -0.096 C 
ATOM     25  H   UNL     1     -23.325  17.428  16.993  0.00  0.00    -0.082 HD
ATOM     26  C   UNL     1     -21.983  16.110  18.019  0.00  0.00    -0.064 C 
ATOM     27  C   UNL     1     -20.825  16.285  16.998  0.00  0.00    +0.066 C 
ENDBRANCH  19  20
ENDBRANCH  18  19
ENDBRANCH  14  15
ENDBRANCH  12  13
TORSDOF 6
ENDMDL
MODEL 2
REMARK VINA RESULT:      -9.8      3.623      5.726
REMARK  Name = C:\Users\Docking\Desktop\test protocol\1iep_ligandH.pdb
REMARK  8 active torsions:
REMARK  status: ('A' for Active; 'I' for Inactive)
REMARK    1  A    between atoms: _5  and  _11
REMARK    2  A    between atoms: _19  and  _21
REMARK    3  A    between atoms: _22  and  _66
REMARK    4  A    between atoms: _27  and  _30
REMARK    5  A    between atoms: _32  and  _33
REMARK    6  A    between atoms: _38  and  _43
REMARK    7  A    between atoms: _43  and  _46
REMARK    8  A    between atoms: _53  and  _55
REMARK                            x       y       z     vdW  Elec       q    Type
REMARK                         _______ _______ _______ _____ _____    ______ ____
ROOT
ATOM     10  C   UNL     1     -17.052  21.824  15.046  0.00  0.00    +0.038 A 
ATOM     11  C   UNL     1     -18.073  20.840  15.036  0.00  0.00    +0.047 A 
ATOM     12  C   UNL     1     -17.801  19.470  15.442  0.00  0.00    +0.035 A 
ATOM     32  C   UNL     1     -16.478  19.138  15.854  0.00  0.00    +0.024 A 
ATOM     33  C   UNL     1     -15.428  20.125  15.869  0.00  0.00    +0.007 A 
ATOM     34  C   UNL     1     -15.690  21.478  15.468  0.00  0.00    -0.029 A 
ATOM     35  C   UNL     1     -14.524  22.494  15.497  0.00  0.00    +0.045 C 
ENDROOT
BRANCH  10   9
ATOM      4  C   UNL     1     -19.081  24.945  12.016  0.00  0.00    +0.077 A 
ATOM      5  C   UNL     1     -19.524  23.898  11.141  0.00  0.00    +0.048 A 
ATOM      6  C   UNL     1     -19.204  22.571  11.503  0.00  0.00    +0.116 A 
ATOM      7  N   UNL     1     -18.492  22.321  12.656  0.00  0.00    -0.223 NA
ATOM      8  C   UNL     1     -18.079  23.354  13.477  0.00  0.00    +0.220 A 
ATOM      9  N   UNL     1     -17.369  23.125  14.646  0.00  0.00    -0.283 N 
ATOM     36  H   UNL     1     -17.075  23.914  15.220  0.00  0.00    +0.155 HD
ATOM     37  N   UNL     1     -18.371  24.630  13.153  0.00  0.00    -0.214 NA
BRANCH   4   3
ATOM      1  C   UNL     1     -20.538  28.568  12.259  0.00  0.00    +0.020 A 
ATOM      2  C   UNL     1     -20.321  27.166  12.535  0.00  0.00    +0.013 A 
ATOM      3  C   UNL     1     -19.345  26.399  11.771  0.00  0.00    +0.019 A 
ATOM     38  C   UNL     1     -18.599  27.085  10.727  0.00  0.00    +0.120 A 
ATOM     39  N   UNL     1     -18.830  28.435  10.483  0.00  0.00    -0.263 NA
ATOM     40  C   UNL     1     -19.768  29.183  11.210  0.00  0.00    +0.111 A 
ENDBRANCH   4   3
ENDBRANCH  10   9
BRANCH  12  13
ATOM     13  N   UNL     1     -18.796  18.426  15.445  0.00  0.00    -0.281 N 
ATOM     14  C   UNL     1     -19.185  17.623  16.505  0.00  0.00    +0.248 C 
ATOM     30  O   UNL     1     -18.582  17.538  17.564  0.00  0.00    -0.270 OA
ATOM     31  H   UNL     1     -19.270  18.258  14.557  0.00  0.00    +0.155 HD
BRANCH  14  15
ATOM     15  C   UNL     1     -20.413  16.784  16.362  0.00  0.00    +0.037 A 
ATOM     16  C   UNL     1     -20.935  16.419  15.043  0.00  0.00    +0.013 A 
ATOM     17  C   UNL     1     -22.132  15.623  14.933  0.00  0.00    +0.005 A 
ATOM     18  C   UNL     1     -22.814  15.184  16.148  0.00  0.00    -0.033 A 
ATOM     28  C   UNL     1     -22.271  15.556  17.444  0.00  0.00    +0.005 A 
ATOM     29  C   UNL     1     -21.099  16.337  17.556  0.00  0.00    +0.013 A 
BRANCH  18  19
ATOM     19  C   UNL     1     -24.108  14.349  16.126  0.00  0.00    +0.119 C 
BRANCH  19  20
ATOM     20  N   UNL     1     -25.356  15.034  15.674  0.00  0.00    -0.302 NA
ATOM     21  C   UNL     1     -25.918  15.970  16.747  0.00  0.00    +0.066 C 
ATOM     22  C   UNL     1     -27.211  16.695  16.249  0.00  0.00    -0.064 C 
ATOM     23  N   UNL     1     -28.252  15.652  15.840  0.00  0.00    +0.379 N 
ATOM     24  C   UNL     1     -29.489  16.330  15.426  0.00  0.00    -0.096 C 
ATOM     25  H   UNL     1     -28.487  15.039  16.741  0.00  0.00    -0.082 HD
ATOM     26  C   UNL     1     -27.700  14.715  14.775  0.00  0.00    -0.064 C 
ATOM     27  C   UNL     1     -26.399  14.022  15.269  0.00  0.00    +0.066 C 
ENDBRANCH  19  20
ENDBRANCH  18  19
ENDBRANCH  14  15
ENDBRANCH  12  13
TORSDOF 6
ENDMDL
MODEL 3
REMARK VINA RESULT:      -9.6      3.320      5.134
REMARK  Name = C:\Users\Docking\Desktop\test protocol\1iep_ligandH.pdb
REMARK  8 active torsions:
REMARK  status: ('A' for Active; 'I' for Inactive)
REMARK    1  A    between atoms: _5  and  _11
REMARK    2  A    between atoms: _19  and  _21
REMARK    3  A    between atoms: _22  and  _66
REMARK    4  A    between atoms: _27  and  _30
REMARK    5  A    between atoms: _32  and  _33
REMARK    6  A    between atoms: _38  and  _43
REMARK    7  A    between atoms: _43  and  _46
REMARK    8  A    between atoms: _53  and  _55
REMARK                            x       y       z     vdW  Elec       q    Type
REMARK                         _______ _______ _______ _____ _____    ______ ____
ROOT
ATOM     10  C   UNL     1     -19.428  25.590  10.728  0.00  0.00    +0.038 A 
ATOM     11  C   UNL     1     -19.208  24.221  11.028  0.00  0.00    +0.047 A 
ATOM     12  C   UNL     1     -19.966  23.548  12.072  0.00  0.00    +0.035 A 
ATOM     32  C   UNL     1     -20.942  24.299  12.789  0.00  0.00    +0.024 A 
ATOM     33  C   UNL     1     -21.177  25.692  12.499  0.00  0.00    +0.007 A 
ATOM     34  C   UNL     1     -20.431  26.362  11.472  0.00  0.00    -0.029 A 
ATOM     35  C   UNL     1     -20.721  27.857  11.208  0.00  0.00    +0.045 C 
ENDROOT
BRANCH  10   9
ATOM      4  C   UNL     1     -15.542  27.937   9.171  0.00  0.00    +0.077 A 
ATOM      5  C   UNL     1     -14.982  28.006  10.490  0.00  0.00    +0.048 A 
ATOM      6  C   UNL     1     -15.729  27.431  11.543  0.00  0.00    +0.116 A 
ATOM      7  N   UNL     1     -16.944  26.835  11.284  0.00  0.00    -0.223 NA
ATOM      8  C   UNL     1     -17.456  26.787  10.001  0.00  0.00    +0.220 A 
ATOM      9  N   UNL     1     -18.672  26.186   9.716  0.00  0.00    -0.283 N 
ATOM     36  H   UNL     1     -19.019  26.178   8.757  0.00  0.00    +0.155 HD
ATOM     37  N   UNL     1     -16.762  27.330   8.978  0.00  0.00    -0.214 NA
BRANCH   4   3
ATOM      1  C   UNL     1     -14.184  30.407   6.459  0.00  0.00    +0.020 A 
ATOM      2  C   UNL     1     -14.847  29.920   7.647  0.00  0.00    +0.013 A 
ATOM      3  C   UNL     1     -14.870  28.495   7.955  0.00  0.00    +0.019 A 
ATOM     38  C   UNL     1     -14.209  27.584   7.034  0.00  0.00    +0.120 A 
ATOM     39  N   UNL     1     -13.580  28.082   5.897  0.00  0.00    -0.263 NA
ATOM     40  C   UNL     1     -13.552  29.451   5.589  0.00  0.00    +0.111 A 
ENDBRANCH   4   3
ENDBRANCH  10   9
BRANCH  12  13
ATOM     13  N   UNL     1     -19.781  22.163  12.425  0.00  0.00    -0.281 N 
ATOM     14  C   UNL     1     -18.799  21.614  13.235  0.00  0.00    +0.248 C 
ATOM     30  O   UNL     1     -17.799  22.209  13.607  0.00  0.00    -0.270 OA
ATOM     31  H   UNL     1     -20.455  21.507  12.031  0.00  0.00    +0.155 HD
BRANCH  14  15
ATOM     15  C   UNL     1     -18.943  20.196  13.683  0.00  0.00    +0.037 A 
ATOM     16  C   UNL     1     -18.023  19.612  14.663  0.00  0.00    +0.013 A 
ATOM     17  C   UNL     1     -18.173  18.236  15.065  0.00  0.00    +0.005 A 
ATOM     18  C   UNL     1     -19.250  17.434  14.489  0.00  0.00    -0.033 A 
ATOM     28  C   UNL     1     -20.151  18.040  13.523  0.00  0.00    +0.005 A 
ATOM     29  C   UNL     1     -20.006  19.388  13.125  0.00  0.00    +0.013 A 
BRANCH  18  19
ATOM     19  C   UNL     1     -19.472  15.952  14.844  0.00  0.00    +0.119 C 
BRANCH  19  20
ATOM     20  N   UNL     1     -20.649  15.624  15.703  0.00  0.00    -0.302 NA
ATOM     21  C   UNL     1     -21.975  15.864  14.977  0.00  0.00    +0.066 C 
ATOM     22  C   UNL     1     -23.195  15.494  15.882  0.00  0.00    -0.064 C 
ATOM     23  N   UNL     1     -23.131  16.308  17.176  0.00  0.00    +0.379 N 
ATOM     24  C   UNL     1     -24.308  16.005  18.004  0.00  0.00    -0.096 C 
ATOM     25  H   UNL     1     -23.181  17.387  16.899  0.00  0.00    -0.082 HD
ATOM     26  C   UNL     1     -21.814  16.078  17.904  0.00  0.00    -0.064 C 
ATOM     27  C   UNL     1     -20.608  16.420  16.985  0.00  0.00    +0.066 C 
ENDBRANCH  19  20
ENDBRANCH  18  19
ENDBRANCH  14  15
ENDBRANCH  12  13
TORSDOF 6
ENDMDL
MODEL 4
REMARK VINA RESULT:      -9.6      4.416      8.683
REMARK  Name = C:\Users\Docking\Desktop\test protocol\1iep_ligandH.pdb
REMARK  8 active torsions:
REMARK  status: ('A' for Active; 'I' for Inactive)
REMARK    1  A    between atoms: _5  and  _11
REMARK    2  A    between atoms: _19  and  _21
REMARK    3  A    between atoms: _22  and  _66
REMARK    4  A    between atoms: _27  and  _30
REMARK    5  A    between atoms: _32  and  _33
REMARK    6  A    between atoms: _38  and  _43
REMARK    7  A    between atoms: _43  and  _46
REMARK    8  A    between atoms: _53  and  _55
REMARK                            x       y       z     vdW  Elec       q    Type
REMARK                         _______ _______ _______ _____ _____    ______ ____
ROOT
ATOM     10  C   UNL     1     -19.996  17.660  14.695  0.00  0.00    +0.038 A 
ATOM     11  C   UNL     1     -21.358  17.333  14.916  0.00  0.00    +0.047 A 
ATOM     12  C   UNL     1     -21.822  15.956  14.855  0.00  0.00    +0.035 A 
ATOM     32  C   UNL     1     -20.869  14.935  14.569  0.00  0.00    +0.024 A 
ATOM     33  C   UNL     1     -19.481  15.249  14.341  0.00  0.00    +0.007 A 
ATOM     34  C   UNL     1     -19.018  16.606  14.398  0.00  0.00    -0.029 A 
ATOM     35  C   UNL     1     -17.519  16.885  14.139  0.00  0.00    +0.045 C 
ENDROOT
BRANCH  10   9
ATOM      4  C   UNL     1     -18.800  21.834  12.650  0.00  0.00    +0.077 A 
ATOM      5  C   UNL     1     -18.938  21.293  11.328  0.00  0.00    +0.048 A 
ATOM      6  C   UNL     1     -19.311  19.935  11.218  0.00  0.00    +0.116 A 
ATOM      7  N   UNL     1     -19.528  19.183  12.352  0.00  0.00    -0.223 NA
ATOM      8  C   UNL     1     -19.385  19.735  13.612  0.00  0.00    +0.220 A 
ATOM      9  N   UNL     1     -19.606  18.999  14.766  0.00  0.00    -0.283 N 
ATOM     36  H   UNL     1     -19.483  19.441  15.677  0.00  0.00    +0.155 HD
ATOM     37  N   UNL     1     -19.028  21.029  13.744  0.00  0.00    -0.214 NA
BRANCH   4   3
ATOM      1  C   UNL     1     -18.672  25.743  12.617  0.00  0.00    +0.020 A 
ATOM      2  C   UNL     1     -19.082  24.392  12.312  0.00  0.00    +0.013 A 
ATOM      3  C   UNL     1     -18.415  23.253  12.930  0.00  0.00    +0.019 A 
ATOM     38  C   UNL     1     -17.328  23.518  13.861  0.00  0.00    +0.120 A 
ATOM     39  N   UNL     1     -16.954  24.830  14.134  0.00  0.00    -0.263 NA
ATOM     40  C   UNL     1     -17.587  25.934  13.544  0.00  0.00    +0.111 A 
ENDBRANCH   4   3
ENDBRANCH  10   9
BRANCH  12  13
ATOM     13  N   UNL     1     -23.194  15.565  15.062  0.00  0.00    -0.281 N 
ATOM     14  C   UNL     1     -23.850  15.366  16.265  0.00  0.00    +0.248 C 
ATOM     30  O   UNL     1     -23.295  15.285  17.351  0.00  0.00    -0.270 OA
ATOM     31  H   UNL     1     -23.749  15.418  14.219  0.00  0.00    +0.155 HD
BRANCH  14  15
ATOM     15  C   UNL     1     -25.338  15.220  16.261  0.00  0.00    +0.037 A 
ATOM     16  C   UNL     1     -26.214  16.375  16.049  0.00  0.00    +0.013 A 
ATOM     17  C   UNL     1     -27.646  16.209  16.067  0.00  0.00    +0.005 A 
ATOM     18  C   UNL     1     -28.211  14.881  16.296  0.00  0.00    -0.033 A 
ATOM     28  C   UNL     1     -27.318  13.752  16.499  0.00  0.00    +0.005 A 
ATOM     29  C   UNL     1     -25.914  13.911  16.483  0.00  0.00    +0.013 A 
BRANCH  18  19
ATOM     19  C   UNL     1     -29.727  14.616  16.353  0.00  0.00    +0.119 C 
BRANCH  19  20
ATOM     20  N   UNL     1     -30.452  14.515  15.051  0.00  0.00    -0.302 NA
ATOM     21  C   UNL     1     -29.608  13.826  13.975  0.00  0.00    +0.066 C 
ATOM     22  C   UNL     1     -30.390  13.709  12.626  0.00  0.00    -0.064 C 
ATOM     23  N   UNL     1     -30.821  15.103  12.167  0.00  0.00    +0.379 N 
ATOM     24  C   UNL     1     -31.507  15.002  10.871  0.00  0.00    -0.096 C 
ATOM     25  H   UNL     1     -29.898  15.709  12.016  0.00  0.00    -0.082 HD
ATOM     26  C   UNL     1     -31.659  15.796  13.233  0.00  0.00    -0.064 C 
ATOM     27  C   UNL     1     -30.883  15.881  14.577  0.00  0.00    +0.066 C 
ENDBRANCH  19  20
ENDBRANCH  18  19
ENDBRANCH  14  15
ENDBRANCH  12  13
TORSDOF 6
ENDMDL
MODEL 5
REMARK VINA RESULT:      -9.6      5.823      8.282
REMARK  Name = C:\Users\Docking\Desktop\test protocol\1iep_ligandH.pdb
REMARK  8 active torsions:
REMARK  status: ('A' for Active; 'I' for Inactive)
REMARK    1  A    between atoms: _5  and  _11
REMARK    2  A    between atoms: _19  and  _21
REMARK    3  A    between atoms: _22  and  _66
REMARK    4  A    between atoms: _27  and  _30
REMARK    5  A    between atoms: _32  and  _33
REMARK    6  A    between atoms: _38  and  _43
REMARK    7  A    between atoms: _43  and  _46
REMARK    8  A    between atoms: _53  and  _55
REMARK                            x       y       z     vdW  Elec       q    Type
REMARK                         _______ _______ _______ _____ _____    ______ ____
ROOT
ATOM     10  C   UNL     1     -15.007  20.355  15.679  0.00  0.00    +0.038 A 
ATOM     11  C   UNL     1     -16.130  19.494  15.773  0.00  0.00    +0.047 A 
ATOM     12  C   UNL     1     -17.445  19.919  15.317  0.00  0.00    +0.035 A 
ATOM     32  C   UNL     1     -17.579  21.227  14.766  0.00  0.00    +0.024 A 
ATOM     33  C   UNL     1     -16.448  22.115  14.664  0.00  0.00    +0.007 A 
ATOM     34  C   UNL     1     -15.150  21.703  15.115  0.00  0.00    -0.029 A 
ATOM     35  C   UNL     1     -13.974  22.700  14.986  0.00  0.00    +0.045 C 
ENDROOT
BRANCH  10   9
ATOM      4  C   UNL     1     -11.790  19.599  19.159  0.00  0.00    +0.077 A 
ATOM      5  C   UNL     1     -12.637  20.193  20.153  0.00  0.00    +0.048 A 
ATOM      6  C   UNL     1     -13.890  20.687  19.726  0.00  0.00    +0.116 A 
ATOM      7  N   UNL     1     -14.258  20.589  18.401  0.00  0.00    -0.223 NA
ATOM      8  C   UNL     1     -13.416  20.012  17.468  0.00  0.00    +0.220 A 
ATOM      9  N   UNL     1     -13.769  19.896  16.133  0.00  0.00    -0.283 N 
ATOM     36  H   UNL     1     -13.117  19.471  15.474  0.00  0.00    +0.155 HD
ATOM     37  N   UNL     1     -12.214  19.534  17.851  0.00  0.00    -0.214 NA
BRANCH   4   3
ATOM      1  C   UNL     1      -8.666  17.246  19.235  0.00  0.00    +0.020 A 
ATOM      2  C   UNL     1      -9.982  17.752  18.919  0.00  0.00    +0.013 A 
ATOM      3  C   UNL     1     -10.438  19.028  19.455  0.00  0.00    +0.019 A 
ATOM     38  C   UNL     1      -9.531  19.773  20.315  0.00  0.00    +0.120 A 
ATOM     39  N   UNL     1      -8.270  19.260  20.604  0.00  0.00    -0.263 NA
ATOM     40  C   UNL     1      -7.821  18.032  20.095  0.00  0.00    +0.111 A 
ENDBRANCH   4   3
ENDBRANCH  10   9
BRANCH  12  13
ATOM     13  N   UNL     1     -18.623  19.091  15.395  0.00  0.00    -0.281 N 
ATOM     14  C   UNL     1     -18.735  17.740  15.109  0.00  0.00    +0.248 C 
ATOM     30  O   UNL     1     -17.881  17.082  14.534  0.00  0.00    -0.270 OA
ATOM     31  H   UNL     1     -19.478  19.558  15.698  0.00  0.00    +0.155 HD
BRANCH  14  15
ATOM     15  C   UNL     1     -19.983  17.020  15.506  0.00  0.00    +0.037 A 
ATOM     16  C   UNL     1     -20.270  16.714  16.909  0.00  0.00    +0.013 A 
ATOM     17  C   UNL     1     -21.473  16.003  17.263  0.00  0.00    +0.005 A 
ATOM     18  C   UNL     1     -22.399  15.593  16.210  0.00  0.00    -0.033 A 
ATOM     28  C   UNL     1     -22.092  15.914  14.826  0.00  0.00    +0.005 A 
ATOM     29  C   UNL     1     -20.914  16.610  14.475  0.00  0.00    +0.013 A 
BRANCH  18  19
ATOM     19  C   UNL     1     -23.696  14.812  16.494  0.00  0.00    +0.119 C 
BRANCH  19  20
ATOM     20  N   UNL     1     -24.978  15.428  16.041  0.00  0.00    -0.302 NA
ATOM     21  C   UNL     1     -25.668  16.209  17.164  0.00  0.00    +0.066 C 
ATOM     22  C   UNL     1     -26.997  16.866  16.667  0.00  0.00    -0.064 C 
ATOM     23  N   UNL     1     -27.923  15.781  16.113  0.00  0.00    +0.379 N 
ATOM     24  C   UNL     1     -29.196  16.388  15.699  0.00  0.00    -0.096 C 
ATOM     25  H   UNL     1     -28.141  15.069  16.942  0.00  0.00    -0.082 HD
ATOM     26  C   UNL     1     -27.244  14.998  14.999  0.00  0.00    -0.064 C 
ATOM     27  C   UNL     1     -25.910  14.374  15.495  0.00  0.00    +0.066 C 
ENDBRANCH  19  20
ENDBRANCH  18  19
ENDBRANCH  14  15
ENDBRANCH  12  13
TORSDOF 6
ENDMDL
