MODEL 1
REMARK VINA RESULT:      -8.0      0.000      0.000
REMARK  Name = C:\Users\Docking\Desktop\test protocol\1iep_ligandH.pdb
REMARK  8 active torsions:
REMARK  status: ('A' for Active; 'I' for Inactive)
REMARK    1  A    between atoms: _5  and  _11
REMARK    2  A    between atoms: _19  and  _21
REMARK    3  A    between atoms: _22  and  _66
REMARK    4  A    between atoms: _27  and  _30
REMARK    5  A    between atoms: _32  and  _33
REMARK    6  A    between atoms: _38  and  _43
REMARK    7  A    between atoms: _43  and  _46
REMARK    8  A    between atoms: _53  and  _55
REMARK                            x       y       z     vdW  Elec       q    Type
REMARK                         _______ _______ _______ _____ _____    ______ ____
ROOT
ATOM     10  C   UNL     1       5.842   2.181  -0.813  0.00  0.00    +0.038 A 
ATOM     11  C   UNL     1       7.176   2.565  -0.522  0.00  0.00    +0.047 A 
ATOM     12  C   UNL     1       8.298   1.706  -0.863  0.00  0.00    +0.035 A 
ATOM     32  C   UNL     1       8.026   0.461  -1.503  0.00  0.00    +0.024 A 
ATOM     33  C   UNL     1       6.677   0.054  -1.805  0.00  0.00    +0.007 A 
ATOM     34  C   UNL     1       5.565   0.897  -1.469  0.00  0.00    -0.029 A 
ATOM     35  C   UNL     1       4.139   0.406  -1.810  0.00  0.00    +0.045 C 
ENDROOT
BRANCH  10   9
ATOM      4  C   UNL     1       2.342   3.613   2.143  0.00  0.00    +0.077 A 
ATOM      5  C   UNL     1       2.589   2.533   3.055  0.00  0.00    +0.048 A 
ATOM      6  C   UNL     1       3.621   1.627   2.722  0.00  0.00    +0.116 A 
ATOM      7  N   UNL     1       4.345   1.797   1.563  0.00  0.00    -0.223 NA
ATOM      8  C   UNL     1       4.081   2.849   0.705  0.00  0.00    +0.220 A 
ATOM      9  N   UNL     1       4.802   3.045  -0.463  0.00  0.00    -0.283 N 
ATOM     36  H   UNL     1       4.571   3.829  -1.073  0.00  0.00    +0.155 HD
ATOM     37  N   UNL     1       3.100   3.728   0.999  0.00  0.00    -0.214 NA
BRANCH   4   3
ATOM      1  C   UNL     1      -1.079   5.509   2.183  0.00  0.00    +0.020 A 
ATOM      2  C   UNL     1      -0.100   4.472   1.953  0.00  0.00    +0.013 A 
ATOM      3  C   UNL     1       1.288   4.655   2.357  0.00  0.00    +0.019 A 
ATOM     38  C   UNL     1       1.656   5.909   2.997  0.00  0.00    +0.120 A 
ATOM     39  N   UNL     1       0.692   6.891   3.205  0.00  0.00    -0.263 NA
ATOM     40  C   UNL     1      -0.646   6.726   2.818  0.00  0.00    +0.111 A 
ENDBRANCH   4   3
ENDBRANCH  10   9
BRANCH  12  13
ATOM     13  N   UNL     1       9.673   2.040  -0.585  0.00  0.00    -0.281 N 
ATOM     14  C   UNL     1      10.683   1.197  -0.151  0.00  0.00    +0.248 C 
ATOM     30  O   UNL     1      10.505   0.064   0.270  0.00  0.00    -0.270 OA
ATOM     31  H   UNL     1       9.933   3.016  -0.725  0.00  0.00    +0.155 HD
BRANCH  14  15
ATOM     15  C   UNL     1      12.095   1.689  -0.176  0.00  0.00    +0.037 A 
ATOM     16  C   UNL     1      12.417   3.088   0.116  0.00  0.00    +0.013 A 
ATOM     17  C   UNL     1      13.785   3.540   0.068  0.00  0.00    +0.005 A 
ATOM     18  C   UNL     1      14.842   2.590  -0.272  0.00  0.00    -0.033 A 
ATOM     28  C   UNL     1      14.494   1.207  -0.552  0.00  0.00    +0.005 A 
ATOM     29  C   UNL     1      13.154   0.760  -0.507  0.00  0.00    +0.013 A 
BRANCH  18  19
ATOM     19  C   UNL     1      16.326   2.989  -0.367  0.00  0.00    +0.119 C 
BRANCH  19  20
ATOM     20  N   UNL     1      17.300   2.197   0.441  0.00  0.00    -0.302 NA
ATOM     21  C   UNL     1      18.231   3.095   1.261  0.00  0.00    +0.066 C 
ATOM     22  C   UNL     1      19.229   2.250   2.118  0.00  0.00    -0.064 C 
ATOM     23  N   UNL     1      20.034   1.330   1.198  0.00  0.00    +0.379 N 
ATOM     24  C   UNL     1      21.014   0.576   1.994  0.00  0.00    -0.096 C 
ATOM     25  H   UNL     1      20.601   1.975   0.487  0.00  0.00    -0.082 HD
ATOM     26  C   UNL     1      19.116   0.435   0.378  0.00  0.00    -0.064 C 
ATOM     27  C   UNL     1      18.109   1.285  -0.447  0.00  0.00    +0.066 C 
ENDBRANCH  19  20
ENDBRANCH  18  19
ENDBRANCH  14  15
ENDBRANCH  12  13
TORSDOF 6
ENDMDL
MODEL 2
REMARK VINA RESULT:      -7.9     22.115     24.281
REMARK  Name = C:\Users\Docking\Desktop\test protocol\1iep_ligandH.pdb
REMARK  8 active torsions:
REMARK  status: ('A' for Active; 'I' for Inactive)
REMARK    1  A    between atoms: _5  and  _11
REMARK    2  A    between atoms: _19  and  _21
REMARK    3  A    between atoms: _22  and  _66
REMARK    4  A    between atoms: _27  and  _30
REMARK    5  A    between atoms: _32  and  _33
REMARK    6  A    between atoms: _38  and  _43
REMARK    7  A    between atoms: _43  and  _46
REMARK    8  A    between atoms: _53  and  _55
REMARK                            x       y       z     vdW  Elec       q    Type
REMARK                         _______ _______ _______ _____ _____    ______ ____
ROOT
ATOM     10  C   UNL     1      12.773  20.241  15.379  0.00  0.00    +0.038 A 
ATOM     11  C   UNL     1      13.951  19.828  16.051  0.00  0.00    +0.047 A 
ATOM     12  C   UNL     1      15.251  20.378  15.699  0.00  0.00    +0.035 A 
ATOM     32  C   UNL     1      15.313  21.351  14.659  0.00  0.00    +0.024 A 
ATOM     33  C   UNL     1      14.125  21.782  13.965  0.00  0.00    +0.007 A 
ATOM     34  C   UNL     1      12.841  21.241  14.306  0.00  0.00    -0.029 A 
ATOM     35  C   UNL     1      11.602  21.735  13.523  0.00  0.00    +0.045 C 
ENDROOT
BRANCH  10   9
ATOM      4  C   UNL     1       9.452  16.784  15.149  0.00  0.00    +0.077 A 
ATOM      5  C   UNL     1      10.201  16.047  14.172  0.00  0.00    +0.048 A 
ATOM      6  C   UNL     1      11.433  16.596  13.750  0.00  0.00    +0.116 A 
ATOM      7  N   UNL     1      11.872  17.793  14.273  0.00  0.00    -0.223 NA
ATOM      8  C   UNL     1      11.125  18.478  15.212  0.00  0.00    +0.220 A 
ATOM      9  N   UNL     1      11.551  19.680  15.757  0.00  0.00    -0.283 N 
ATOM     36  H   UNL     1      10.967  20.158  16.442  0.00  0.00    +0.155 HD
ATOM     37  N   UNL     1       9.944  17.976  15.630  0.00  0.00    -0.214 NA
BRANCH   4   3
ATOM      1  C   UNL     1       5.719  15.648  15.435  0.00  0.00    +0.020 A 
ATOM      2  C   UNL     1       6.969  16.084  14.856  0.00  0.00    +0.013 A 
ATOM      3  C   UNL     1       8.134  16.332  15.697  0.00  0.00    +0.019 A 
ATOM     38  C   UNL     1       7.999  16.128  17.131  0.00  0.00    +0.120 A 
ATOM     39  N   UNL     1       6.782  15.709  17.661  0.00  0.00    -0.263 NA
ATOM     40  C   UNL     1       5.655  15.469  16.862  0.00  0.00    +0.111 A 
ENDBRANCH   4   3
ENDBRANCH  10   9
BRANCH  12  13
ATOM     13  N   UNL     1      16.482  19.991  16.341  0.00  0.00    -0.281 N 
ATOM     14  C   UNL     1      16.952  20.377  17.586  0.00  0.00    +0.248 C 
ATOM     30  O   UNL     1      16.481  21.288  18.250  0.00  0.00    -0.270 OA
ATOM     31  H   UNL     1      17.081  19.355  15.813  0.00  0.00    +0.155 HD
BRANCH  14  15
ATOM     15  C   UNL     1      18.124  19.656  18.171  0.00  0.00    +0.037 A 
ATOM     16  C   UNL     1      18.351  18.233  17.904  0.00  0.00    +0.013 A 
ATOM     17  C   UNL     1      19.479  17.558  18.495  0.00  0.00    +0.005 A 
ATOM     18  C   UNL     1      20.391  18.307  19.357  0.00  0.00    -0.033 A 
ATOM     28  C   UNL     1      20.144  19.718  19.601  0.00  0.00    +0.005 A 
ATOM     29  C   UNL     1      19.039  20.383  19.024  0.00  0.00    +0.013 A 
BRANCH  18  19
ATOM     19  C   UNL     1      21.608  17.662  20.046  0.00  0.00    +0.119 C 
BRANCH  19  20
ATOM     20  N   UNL     1      21.363  16.931  21.325  0.00  0.00    -0.302 NA
ATOM     21  C   UNL     1      21.097  15.441  21.093  0.00  0.00    +0.066 C 
ATOM     22  C   UNL     1      20.864  14.687  22.442  0.00  0.00    -0.064 C 
ATOM     23  N   UNL     1      19.698  15.335  23.191  0.00  0.00    +0.379 N 
ATOM     24  C   UNL     1      19.440  14.592  24.433  0.00  0.00    -0.096 C 
ATOM     25  H   UNL     1      18.792  15.244  22.547  0.00  0.00    -0.082 HD
ATOM     26  C   UNL     1      19.953  16.817  23.423  0.00  0.00    -0.064 C 
ATOM     27  C   UNL     1      20.212  17.552  22.078  0.00  0.00    +0.066 C 
ENDBRANCH  19  20
ENDBRANCH  18  19
ENDBRANCH  14  15
ENDBRANCH  12  13
TORSDOF 6
ENDMDL
MODEL 3
REMARK VINA RESULT:      -7.8     22.529     24.642
REMARK  Name = C:\Users\Docking\Desktop\test protocol\1iep_ligandH.pdb
REMARK  8 active torsions:
REMARK  status: ('A' for Active; 'I' for Inactive)
REMARK    1  A    between atoms: _5  and  _11
REMARK    2  A    between atoms: _19  and  _21
REMARK    3  A    between atoms: _22  and  _66
REMARK    4  A    between atoms: _27  and  _30
REMARK    5  A    between atoms: _32  and  _33
REMARK    6  A    between atoms: _38  and  _43
REMARK    7  A    between atoms: _43  and  _46
REMARK    8  A    between atoms: _53  and  _55
REMARK                            x       y       z     vdW  Elec       q    Type
REMARK                         _______ _______ _______ _____ _____    ______ ____
ROOT
ATOM     10  C   UNL     1      12.574  20.363  15.152  0.00  0.00    +0.038 A 
ATOM     11  C   UNL     1      13.779  20.038  15.824  0.00  0.00    +0.047 A 
ATOM     12  C   UNL     1      15.049  20.617  15.414  0.00  0.00    +0.035 A 
ATOM     32  C   UNL     1      15.054  21.528  14.317  0.00  0.00    +0.024 A 
ATOM     33  C   UNL     1      13.837  21.869  13.622  0.00  0.00    +0.007 A 
ATOM     34  C   UNL     1      12.582  21.298  14.020  0.00  0.00    -0.029 A 
ATOM     35  C   UNL     1      11.311  21.695  13.235  0.00  0.00    +0.045 C 
ENDROOT
BRANCH  10   9
ATOM      4  C   UNL     1       9.375  16.785  15.165  0.00  0.00    +0.077 A 
ATOM      5  C   UNL     1      10.126  16.031  14.204  0.00  0.00    +0.048 A 
ATOM      6  C   UNL     1      11.326  16.602  13.725  0.00  0.00    +0.116 A 
ATOM      7  N   UNL     1      11.735  17.836  14.182  0.00  0.00    -0.223 NA
ATOM      8  C   UNL     1      10.986  18.538  15.108  0.00  0.00    +0.220 A 
ATOM      9  N   UNL     1      11.383  19.777  15.587  0.00  0.00    -0.283 N 
ATOM     36  H   UNL     1      10.799  20.266  16.265  0.00  0.00    +0.155 HD
ATOM     37  N   UNL     1       9.836  18.014  15.580  0.00  0.00    -0.214 NA
BRANCH   4   3
ATOM      1  C   UNL     1       5.724  15.449  15.597  0.00  0.00    +0.020 A 
ATOM      2  C   UNL     1       6.944  15.896  14.966  0.00  0.00    +0.013 A 
ATOM      3  C   UNL     1       8.088  16.313  15.767  0.00  0.00    +0.019 A 
ATOM     38  C   UNL     1       7.963  16.264  17.216  0.00  0.00    +0.120 A 
ATOM     39  N   UNL     1       6.775  15.830  17.796  0.00  0.00    -0.263 NA
ATOM     40  C   UNL     1       5.668  15.428  17.035  0.00  0.00    +0.111 A 
ENDBRANCH   4   3
ENDBRANCH  10   9
BRANCH  12  13
ATOM     13  N   UNL     1      16.307  20.318  16.053  0.00  0.00    -0.281 N 
ATOM     14  C   UNL     1      16.705  20.639  17.341  0.00  0.00    +0.248 C 
ATOM     30  O   UNL     1      16.118  21.424  18.071  0.00  0.00    -0.270 OA
ATOM     31  H   UNL     1      16.985  19.808  15.488  0.00  0.00    +0.155 HD
BRANCH  14  15
ATOM     15  C   UNL     1      17.944  20.009  17.891  0.00  0.00    +0.037 A 
ATOM     16  C   UNL     1      17.891  18.737  18.616  0.00  0.00    +0.013 A 
ATOM     17  C   UNL     1      19.098  18.159  19.152  0.00  0.00    +0.005 A 
ATOM     18  C   UNL     1      20.369  18.853  18.963  0.00  0.00    -0.033 A 
ATOM     28  C   UNL     1      20.394  20.111  18.236  0.00  0.00    +0.005 A 
ATOM     29  C   UNL     1      19.213  20.681  17.710  0.00  0.00    +0.013 A 
BRANCH  18  19
ATOM     19  C   UNL     1      21.703  18.321  19.519  0.00  0.00    +0.119 C 
BRANCH  19  20
ATOM     20  N   UNL     1      22.128  18.811  20.864  0.00  0.00    -0.302 NA
ATOM     21  C   UNL     1      23.340  19.743  20.780  0.00  0.00    +0.066 C 
ATOM     22  C   UNL     1      23.756  20.264  22.194  0.00  0.00    -0.064 C 
ATOM     23  N   UNL     1      24.052  19.072  23.107  0.00  0.00    +0.379 N 
ATOM     24  C   UNL     1      24.500  19.559  24.420  0.00  0.00    -0.096 C 
ATOM     25  H   UNL     1      24.894  18.500  22.653  0.00  0.00    -0.082 HD
ATOM     26  C   UNL     1      22.853  18.139  23.194  0.00  0.00    -0.064 C 
ATOM     27  C   UNL     1      22.429  17.650  21.781  0.00  0.00    +0.066 C 
ENDBRANCH  19  20
ENDBRANCH  18  19
ENDBRANCH  14  15
ENDBRANCH  12  13
TORSDOF 6
ENDMDL
MODEL 4
REMARK VINA RESULT:      -7.8     22.716     27.823
REMARK  Name = C:\Users\Docking\Desktop\test protocol\1iep_ligandH.pdb
REMARK  8 active torsions:
REMARK  status: ('A' for Active; 'I' for Inactive)
REMARK    1  A    between atoms: _5  and  _11
REMARK    2  A    between atoms: _19  and  _21
REMARK    3  A    between atoms: _22  and  _66
REMARK    4  A    between atoms: _27  and  _30
REMARK    5  A    between atoms: _32  and  _33
REMARK    6  A    between atoms: _38  and  _43
REMARK    7  A    between atoms: _43  and  _46
REMARK    8  A    between atoms: _53  and  _55
REMARK                            x       y       z     vdW  Elec       q    Type
REMARK                         _______ _______ _______ _____ _____    ______ ____
ROOT
ATOM     10  C   UNL     1      20.503  18.031  19.722  0.00  0.00    +0.038 A 
ATOM     11  C   UNL     1      19.208  18.267  19.194  0.00  0.00    +0.047 A 
ATOM     12  C   UNL     1      18.567  19.566  19.326  0.00  0.00    +0.035 A 
ATOM     32  C   UNL     1      19.275  20.604  19.999  0.00  0.00    +0.024 A 
ATOM     33  C   UNL     1      20.592  20.381  20.543  0.00  0.00    +0.007 A 
ATOM     34  C   UNL     1      21.228  19.101  20.418  0.00  0.00    -0.029 A 
ATOM     35  C   UNL     1      22.638  18.917  21.026  0.00  0.00    +0.045 C 
ENDROOT
BRANCH  10   9
ATOM      4  C   UNL     1      21.502  13.616  21.318  0.00  0.00    +0.077 A 
ATOM      5  C   UNL     1      20.861  13.863  22.578  0.00  0.00    +0.048 A 
ATOM      6  C   UNL     1      20.294  15.141  22.778  0.00  0.00    +0.116 A 
ATOM      7  N   UNL     1      20.366  16.094  21.786  0.00  0.00    -0.223 NA
ATOM      8  C   UNL     1      20.993  15.824  20.583  0.00  0.00    +0.220 A 
ATOM      9  N   UNL     1      21.071  16.765  19.567  0.00  0.00    -0.283 N 
ATOM     36  H   UNL     1      21.548  16.529  18.697  0.00  0.00    +0.155 HD
ATOM     37  N   UNL     1      21.544  14.611  20.368  0.00  0.00    -0.214 NA
BRANCH   4   3
ATOM      1  C   UNL     1      23.607  10.323  21.468  0.00  0.00    +0.020 A 
ATOM      2  C   UNL     1      23.011  11.577  21.868  0.00  0.00    +0.013 A 
ATOM      3  C   UNL     1      22.145  12.314  20.956  0.00  0.00    +0.019 A 
ATOM     38  C   UNL     1      21.901  11.750  19.637  0.00  0.00    +0.120 A 
ATOM     39  N   UNL     1      22.491  10.542  19.279  0.00  0.00    -0.263 NA
ATOM     40  C   UNL     1      23.326   9.824  20.148  0.00  0.00    +0.111 A 
ENDBRANCH   4   3
ENDBRANCH  10   9
BRANCH  12  13
ATOM     13  N   UNL     1      17.250  19.863  18.818  0.00  0.00    -0.281 N 
ATOM     14  C   UNL     1      16.919  20.523  17.646  0.00  0.00    +0.248 C 
ATOM     30  O   UNL     1      17.710  21.151  16.959  0.00  0.00    -0.270 OA
ATOM     31  H   UNL     1      16.468  19.547  19.391  0.00  0.00    +0.155 HD
BRANCH  14  15
ATOM     15  C   UNL     1      15.500  20.494  17.178  0.00  0.00    +0.037 A 
ATOM     16  C   UNL     1      15.167  20.590  15.754  0.00  0.00    +0.013 A 
ATOM     17  C   UNL     1      13.790  20.577  15.330  0.00  0.00    +0.005 A 
ATOM     18  C   UNL     1      12.733  20.466  16.333  0.00  0.00    -0.033 A 
ATOM     28  C   UNL     1      13.091  20.367  17.739  0.00  0.00    +0.005 A 
ATOM     29  C   UNL     1      14.440  20.381  18.157  0.00  0.00    +0.013 A 
BRANCH  18  19
ATOM     19  C   UNL     1      11.235  20.465  15.974  0.00  0.00    +0.119 C 
BRANCH  19  20
ATOM     20  N   UNL     1      10.634  19.164  15.554  0.00  0.00    -0.302 NA
ATOM     21  C   UNL     1       9.593  19.344  14.445  0.00  0.00    +0.066 C 
ATOM     22  C   UNL     1       8.990  17.971  14.002  0.00  0.00    -0.064 C 
ATOM     23  N   UNL     1       8.374  17.273  15.215  0.00  0.00    +0.379 N 
ATOM     24  C   UNL     1       7.755  16.008  14.791  0.00  0.00    -0.096 C 
ATOM     25  H   UNL     1       7.564  17.931  15.608  0.00  0.00    -0.082 HD
ATOM     26  C   UNL     1       9.401  17.092  16.323  0.00  0.00    -0.064 C 
ATOM     27  C   UNL     1      10.015  18.459  16.736  0.00  0.00    +0.066 C 
ENDBRANCH  19  20
ENDBRANCH  18  19
ENDBRANCH  14  15
ENDBRANCH  12  13
TORSDOF 6
ENDMDL
MODEL 5
REMARK VINA RESULT:      -7.7     22.908     25.097
REMARK  Name = C:\Users\Docking\Desktop\test protocol\1iep_ligandH.pdb
REMARK  8 active torsions:
REMARK  status: ('A' for Active; 'I' for Inactive)
REMARK    1  A    between atoms: _5  and  _11
REMARK    2  A    between atoms: _19  and  _21
REMARK    3  A    between atoms: _22  and  _66
REMARK    4  A    between atoms: _27  and  _30
REMARK    5  A    between atoms: _32  and  _33
REMARK    6  A    between atoms: _38  and  _43
REMARK    7  A    between atoms: _43  and  _46
REMARK    8  A    between atoms: _53  and  _55
REMARK                            x       y       z     vdW  Elec       q    Type
REMARK                         _______ _______ _______ _____ _____    ______ ____
ROOT
ATOM     10  C   UNL     1       9.661  22.018  13.878  0.00  0.00    +0.038 A 
ATOM     11  C   UNL     1      10.930  22.080  14.507  0.00  0.00    +0.047 A 
ATOM     12  C   UNL     1      11.730  20.882  14.710  0.00  0.00    +0.035 A 
ATOM     32  C   UNL     1      11.206  19.636  14.257  0.00  0.00    +0.024 A 
ATOM     33  C   UNL     1       9.917  19.554  13.617  0.00  0.00    +0.007 A 
ATOM     34  C   UNL     1       9.123  20.732  13.416  0.00  0.00    -0.029 A 
ATOM     35  C   UNL     1       7.745  20.584  12.729  0.00  0.00    +0.045 C 
ENDROOT
BRANCH  10   9
ATOM      4  C   UNL     1       8.539  25.978  11.410  0.00  0.00    +0.077 A 
ATOM      5  C   UNL     1       9.497  25.682  10.384  0.00  0.00    +0.048 A 
ATOM      6  C   UNL     1      10.264  24.504  10.533  0.00  0.00    +0.116 A 
ATOM      7  N   UNL     1      10.077  23.691  11.629  0.00  0.00    -0.223 NA
ATOM      8  C   UNL     1       9.146  24.007  12.602  0.00  0.00    +0.220 A 
ATOM      9  N   UNL     1       8.936  23.200  13.709  0.00  0.00    -0.283 N 
ATOM     36  H   UNL     1       8.245  23.472  14.408  0.00  0.00    +0.155 HD
ATOM     37  N   UNL     1       8.403  25.127  12.483  0.00  0.00    -0.214 NA
BRANCH   4   3
ATOM      1  C   UNL     1       5.430  28.321  11.026  0.00  0.00    +0.020 A 
ATOM      2  C   UNL     1       6.243  27.126  11.026  0.00  0.00    +0.013 A 
ATOM      3  C   UNL     1       7.652  27.184  11.393  0.00  0.00    +0.019 A 
ATOM     38  C   UNL     1       8.213  28.477  11.759  0.00  0.00    +0.120 A 
ATOM     39  N   UNL     1       7.406  29.610  11.749  0.00  0.00    -0.263 NA
ATOM     40  C   UNL     1       6.049  29.567  11.396  0.00  0.00    +0.111 A 
ENDBRANCH   4   3
ENDBRANCH  10   9
BRANCH  12  13
ATOM     13  N   UNL     1      13.022  20.883  15.350  0.00  0.00    -0.281 N 
ATOM     14  C   UNL     1      13.307  20.708  16.694  0.00  0.00    +0.248 C 
ATOM     30  O   UNL     1      12.472  20.738  17.587  0.00  0.00    -0.270 OA
ATOM     31  H   UNL     1      13.824  21.029  14.737  0.00  0.00    +0.155 HD
BRANCH  14  15
ATOM     15  C   UNL     1      14.725  20.483  17.109  0.00  0.00    +0.037 A 
ATOM     16  C   UNL     1      15.084  20.289  18.516  0.00  0.00    +0.013 A 
ATOM     17  C   UNL     1      16.462  20.090  18.890  0.00  0.00    +0.005 A 
ATOM     18  C   UNL     1      17.491  20.083  17.854  0.00  0.00    -0.033 A 
ATOM     28  C   UNL     1      17.107  20.272  16.465  0.00  0.00    +0.005 A 
ATOM     29  C   UNL     1      15.757  20.468  16.094  0.00  0.00    +0.013 A 
BRANCH  18  19
ATOM     19  C   UNL     1      18.989  19.899  18.164  0.00  0.00    +0.119 C 
BRANCH  19  20
ATOM     20  N   UNL     1      19.360  18.817  19.125  0.00  0.00    -0.302 NA
ATOM     21  C   UNL     1      20.861  18.809  19.429  0.00  0.00    +0.066 C 
ATOM     22  C   UNL     1      21.228  17.687  20.453  0.00  0.00    -0.064 C 
ATOM     23  N   UNL     1      20.780  16.332  19.903  0.00  0.00    +0.379 N 
ATOM     24  C   UNL     1      21.176  15.268  20.837  0.00  0.00    -0.096 C 
ATOM     25  H   UNL     1      21.323  16.160  18.944  0.00  0.00    -0.082 HD
ATOM     26  C   UNL     1      19.289  16.332  19.595  0.00  0.00    -0.064 C 
ATOM     27  C   UNL     1      18.930  17.470  18.599  0.00  0.00    +0.066 C 
ENDBRANCH  19  20
ENDBRANCH  18  19
ENDBRANCH  14  15
ENDBRANCH  12  13
TORSDOF 6
ENDMDL
