MODEL 1
REMARK VINA RESULT:      -6.9      0.000      0.000
REMARK  Name = C:\Users\Docking\Desktop\test protocol\1iep_ligandH.pdb
REMARK  8 active torsions:
REMARK  status: ('A' for Active; 'I' for Inactive)
REMARK    1  A    between atoms: _5  and  _11
REMARK    2  A    between atoms: _19  and  _21
REMARK    3  A    between atoms: _22  and  _66
REMARK    4  A    between atoms: _27  and  _30
REMARK    5  A    between atoms: _32  and  _33
REMARK    6  A    between atoms: _38  and  _43
REMARK    7  A    between atoms: _43  and  _46
REMARK    8  A    between atoms: _53  and  _55
REMARK                            x       y       z     vdW  Elec       q    Type
REMARK                         _______ _______ _______ _____ _____    ______ ____
ROOT
ATOM     10  C   UNL     1     -20.498 -13.117  15.072  0.00  0.00    +0.038 A 
ATOM     11  C   UNL     1     -21.144 -11.929  15.500  0.00  0.00    +0.047 A 
ATOM     12  C   UNL     1     -20.571 -11.097  16.547  0.00  0.00    +0.035 A 
ATOM     32  C   UNL     1     -19.338 -11.504  17.134  0.00  0.00    +0.024 A 
ATOM     33  C   UNL     1     -18.668 -12.708  16.712  0.00  0.00    +0.007 A 
ATOM     34  C   UNL     1     -19.229 -13.534  15.681  0.00  0.00    -0.029 A 
ATOM     35  C   UNL     1     -18.471 -14.819  15.272  0.00  0.00    +0.045 C 
ENDROOT
BRANCH  10   9
ATOM      4  C   UNL     1     -23.761 -16.275  13.516  0.00  0.00    +0.077 A 
ATOM      5  C   UNL     1     -24.311 -16.443  14.830  0.00  0.00    +0.048 A 
ATOM      6  C   UNL     1     -23.721 -15.704  15.880  0.00  0.00    +0.116 A 
ATOM      7  N   UNL     1     -22.661 -14.862  15.623  0.00  0.00    -0.223 NA
ATOM      8  C   UNL     1     -22.153 -14.725  14.345  0.00  0.00    +0.220 A 
ATOM      9  N   UNL     1     -21.092 -13.878  14.062  0.00  0.00    -0.283 N 
ATOM     36  H   UNL     1     -20.741 -13.810  13.107  0.00  0.00    +0.155 HD
ATOM     37  N   UNL     1     -22.698 -15.420  13.325  0.00  0.00    -0.214 NA
BRANCH   4   3
ATOM      1  C   UNL     1     -25.735 -18.703  11.169  0.00  0.00    +0.020 A 
ATOM      2  C   UNL     1     -25.269 -18.050  12.371  0.00  0.00    +0.013 A 
ATOM      3  C   UNL     1     -24.277 -16.984  12.303  0.00  0.00    +0.019 A 
ATOM     38  C   UNL     1     -23.774 -16.599  10.993  0.00  0.00    +0.120 A 
ATOM     39  N   UNL     1     -24.241 -17.246   9.853  0.00  0.00    -0.263 NA
ATOM     40  C   UNL     1     -25.193 -18.274   9.907  0.00  0.00    +0.111 A 
ENDBRANCH   4   3
ENDBRANCH  10   9
BRANCH  12  13
ATOM     13  N   UNL     1     -21.186  -9.885  17.029  0.00  0.00    -0.281 N 
ATOM     14  C   UNL     1     -22.237  -9.760  17.923  0.00  0.00    +0.248 C 
ATOM     30  O   UNL     1     -22.952 -10.684  18.282  0.00  0.00    -0.270 OA
ATOM     31  H   UNL     1     -20.799  -9.013  16.667  0.00  0.00    +0.155 HD
BRANCH  14  15
ATOM     15  C   UNL     1     -22.547  -8.412  18.488  0.00  0.00    +0.037 A 
ATOM     16  C   UNL     1     -22.094  -7.187  17.825  0.00  0.00    +0.013 A 
ATOM     17  C   UNL     1     -22.393  -5.899  18.401  0.00  0.00    +0.005 A 
ATOM     18  C   UNL     1     -23.150  -5.831  19.648  0.00  0.00    -0.033 A 
ATOM     28  C   UNL     1     -23.592  -7.062  20.282  0.00  0.00    +0.005 A 
ATOM     29  C   UNL     1     -23.300  -8.326  19.721  0.00  0.00    +0.013 A 
BRANCH  18  19
ATOM     19  C   UNL     1     -23.496  -4.502  20.345  0.00  0.00    +0.119 C 
BRANCH  19  20
ATOM     20  N   UNL     1     -22.529  -3.992  21.362  0.00  0.00    -0.302 NA
ATOM     21  C   UNL     1     -23.237  -3.299  22.531  0.00  0.00    +0.066 C 
ATOM     22  C   UNL     1     -22.212  -2.792  23.597  0.00  0.00    -0.064 C 
ATOM     23  N   UNL     1     -21.213  -1.844  22.930  0.00  0.00    +0.379 N 
ATOM     24  C   UNL     1     -20.283  -1.320  23.941  0.00  0.00    -0.096 C 
ATOM     25  H   UNL     1     -21.788  -0.982  22.519  0.00  0.00    -0.082 HD
ATOM     26  C   UNL     1     -20.507  -2.524  21.765  0.00  0.00    -0.064 C 
ATOM     27  C   UNL     1     -21.536  -3.051  20.726  0.00  0.00    +0.066 C 
ENDBRANCH  19  20
ENDBRANCH  18  19
ENDBRANCH  14  15
ENDBRANCH  12  13
TORSDOF 6
ENDMDL
MODEL 2
REMARK VINA RESULT:      -6.9     21.849     26.372
REMARK  Name = C:\Users\Docking\Desktop\test protocol\1iep_ligandH.pdb
REMARK  8 active torsions:
REMARK  status: ('A' for Active; 'I' for Inactive)
REMARK    1  A    between atoms: _5  and  _11
REMARK    2  A    between atoms: _19  and  _21
REMARK    3  A    between atoms: _22  and  _66
REMARK    4  A    between atoms: _27  and  _30
REMARK    5  A    between atoms: _32  and  _33
REMARK    6  A    between atoms: _38  and  _43
REMARK    7  A    between atoms: _43  and  _46
REMARK    8  A    between atoms: _53  and  _55
REMARK                            x       y       z     vdW  Elec       q    Type
REMARK                         _______ _______ _______ _____ _____    ______ ____
ROOT
ATOM     10  C   UNL     1      -6.953  -1.772   5.275  0.00  0.00    +0.038 A 
ATOM     11  C   UNL     1      -5.766  -2.548   5.307  0.00  0.00    +0.047 A 
ATOM     12  C   UNL     1      -5.569  -3.660   4.389  0.00  0.00    +0.035 A 
ATOM     32  C   UNL     1      -6.600  -3.951   3.450  0.00  0.00    +0.024 A 
ATOM     33  C   UNL     1      -7.814  -3.174   3.405  0.00  0.00    +0.007 A 
ATOM     34  C   UNL     1      -8.015  -2.078   4.309  0.00  0.00    -0.029 A 
ATOM     35  C   UNL     1      -9.338  -1.283   4.220  0.00  0.00    +0.045 C 
ENDROOT
BRANCH  10   9
ATOM      4  C   UNL     1      -6.340   2.814   6.551  0.00  0.00    +0.077 A 
ATOM      5  C   UNL     1      -5.667   3.127   5.324  0.00  0.00    +0.048 A 
ATOM      6  C   UNL     1      -5.492   2.078   4.394  0.00  0.00    +0.116 A 
ATOM      7  N   UNL     1      -5.960   0.814   4.680  0.00  0.00    -0.223 NA
ATOM      8  C   UNL     1      -6.604   0.545   5.874  0.00  0.00    +0.220 A 
ATOM      9  N   UNL     1      -7.090  -0.717   6.180  0.00  0.00    -0.283 N 
ATOM     36  H   UNL     1      -7.552  -0.876   7.074  0.00  0.00    +0.155 HD
ATOM     37  N   UNL     1      -6.782   1.530   6.780  0.00  0.00    -0.214 NA
BRANCH   4   3
ATOM      1  C   UNL     1      -6.905   4.470  10.050  0.00  0.00    +0.020 A 
ATOM      2  C   UNL     1      -6.647   3.463   9.046  0.00  0.00    +0.013 A 
ATOM      3  C   UNL     1      -6.604   3.816   7.632  0.00  0.00    +0.019 A 
ATOM     38  C   UNL     1      -6.827   5.206   7.265  0.00  0.00    +0.120 A 
ATOM     39  N   UNL     1      -7.074   6.153   8.254  0.00  0.00    -0.263 NA
ATOM     40  C   UNL     1      -7.120   5.825   9.618  0.00  0.00    +0.111 A 
ENDBRANCH   4   3
ENDBRANCH  10   9
BRANCH  12  13
ATOM     13  N   UNL     1      -4.388  -4.488   4.380  0.00  0.00    -0.281 N 
ATOM     14  C   UNL     1      -3.203  -4.274   3.695  0.00  0.00    +0.248 C 
ATOM     30  O   UNL     1      -3.056  -3.441   2.813  0.00  0.00    -0.270 OA
ATOM     31  H   UNL     1      -4.432  -5.334   4.947  0.00  0.00    +0.155 HD
BRANCH  14  15
ATOM     15  C   UNL     1      -2.014  -5.115   4.029  0.00  0.00    +0.037 A 
ATOM     16  C   UNL     1      -0.659  -4.561   4.001  0.00  0.00    +0.013 A 
ATOM     17  C   UNL     1       0.472  -5.399   4.311  0.00  0.00    +0.005 A 
ATOM     18  C   UNL     1       0.251  -6.802   4.653  0.00  0.00    -0.033 A 
ATOM     28  C   UNL     1      -1.105  -7.325   4.679  0.00  0.00    +0.005 A 
ATOM     29  C   UNL     1      -2.215  -6.507   4.375  0.00  0.00    +0.013 A 
BRANCH  18  19
ATOM     19  C   UNL     1       1.401  -7.775   4.977  0.00  0.00    +0.119 C 
BRANCH  19  20
ATOM     20  N   UNL     1       1.109  -9.236   4.873  0.00  0.00    -0.302 NA
ATOM     21  C   UNL     1       1.926 -10.057   5.875  0.00  0.00    +0.066 C 
ATOM     22  C   UNL     1       1.592 -11.581   5.768  0.00  0.00    -0.064 C 
ATOM     23  N   UNL     1       1.851 -12.058   4.337  0.00  0.00    +0.379 N 
ATOM     24  C   UNL     1       1.594 -13.503   4.248  0.00  0.00    -0.096 C 
ATOM     25  H   UNL     1       2.931 -11.892   4.116  0.00  0.00    -0.082 HD
ATOM     26  C   UNL     1       1.045 -11.245   3.335  0.00  0.00    -0.064 C 
ATOM     27  C   UNL     1       1.363  -9.729   3.469  0.00  0.00    +0.066 C 
ENDBRANCH  19  20
ENDBRANCH  18  19
ENDBRANCH  14  15
ENDBRANCH  12  13
TORSDOF 6
ENDMDL
MODEL 3
REMARK VINA RESULT:      -6.9      1.196      1.870
REMARK  Name = C:\Users\Docking\Desktop\test protocol\1iep_ligandH.pdb
REMARK  8 active torsions:
REMARK  status: ('A' for Active; 'I' for Inactive)
REMARK    1  A    between atoms: _5  and  _11
REMARK    2  A    between atoms: _19  and  _21
REMARK    3  A    between atoms: _22  and  _66
REMARK    4  A    between atoms: _27  and  _30
REMARK    5  A    between atoms: _32  and  _33
REMARK    6  A    between atoms: _38  and  _43
REMARK    7  A    between atoms: _43  and  _46
REMARK    8  A    between atoms: _53  and  _55
REMARK                            x       y       z     vdW  Elec       q    Type
REMARK                         _______ _______ _______ _____ _____    ______ ____
ROOT
ATOM     10  C   UNL     1     -20.531 -12.967  15.212  0.00  0.00    +0.038 A 
ATOM     11  C   UNL     1     -21.255 -11.810  15.597  0.00  0.00    +0.047 A 
ATOM     12  C   UNL     1     -20.738 -10.899  16.606  0.00  0.00    +0.035 A 
ATOM     32  C   UNL     1     -19.477 -11.196  17.201  0.00  0.00    +0.024 A 
ATOM     33  C   UNL     1     -18.728 -12.368  16.823  0.00  0.00    +0.007 A 
ATOM     34  C   UNL     1     -19.234 -13.272  15.830  0.00  0.00    -0.029 A 
ATOM     35  C   UNL     1     -18.391 -14.517  15.469  0.00  0.00    +0.045 C 
ENDROOT
BRANCH  10   9
ATOM      4  C   UNL     1     -23.815 -16.124  13.701  0.00  0.00    +0.077 A 
ATOM      5  C   UNL     1     -24.488 -16.120  14.968  0.00  0.00    +0.048 A 
ATOM      6  C   UNL     1     -23.953 -15.297  15.984  0.00  0.00    +0.116 A 
ATOM      7  N   UNL     1     -22.828 -14.539  15.741  0.00  0.00    -0.223 NA
ATOM      8  C   UNL     1     -22.202 -14.568  14.508  0.00  0.00    +0.220 A 
ATOM      9  N   UNL     1     -21.075 -13.807  14.238  0.00  0.00    -0.283 N 
ATOM     36  H   UNL     1     -20.638 -13.862  13.319  0.00  0.00    +0.155 HD
ATOM     37  N   UNL     1     -22.693 -15.346  13.522  0.00  0.00    -0.214 NA
BRANCH   4   3
ATOM      1  C   UNL     1     -24.272 -17.497  10.067  0.00  0.00    +0.020 A 
ATOM      2  C   UNL     1     -23.811 -16.680  11.166  0.00  0.00    +0.013 A 
ATOM      3  C   UNL     1     -24.261 -16.940  12.527  0.00  0.00    +0.019 A 
ATOM     38  C   UNL     1     -25.183 -18.044  12.745  0.00  0.00    +0.120 A 
ATOM     39  N   UNL     1     -25.611 -18.813  11.668  0.00  0.00    -0.263 NA
ATOM     40  C   UNL     1     -25.187 -18.571  10.353  0.00  0.00    +0.111 A 
ENDBRANCH   4   3
ENDBRANCH  10   9
BRANCH  12  13
ATOM     13  N   UNL     1     -21.432  -9.713  17.043  0.00  0.00    -0.281 N 
ATOM     14  C   UNL     1     -22.064  -9.494  18.256  0.00  0.00    +0.248 C 
ATOM     30  O   UNL     1     -22.313 -10.368  19.073  0.00  0.00    -0.270 OA
ATOM     31  H   UNL     1     -21.461  -8.941  16.376  0.00  0.00    +0.155 HD
BRANCH  14  15
ATOM     15  C   UNL     1     -22.495  -8.107  18.606  0.00  0.00    +0.037 A 
ATOM     16  C   UNL     1     -23.205  -7.824  19.856  0.00  0.00    +0.013 A 
ATOM     17  C   UNL     1     -23.624  -6.479  20.161  0.00  0.00    +0.005 A 
ATOM     18  C   UNL     1     -23.332  -5.405  19.214  0.00  0.00    -0.033 A 
ATOM     28  C   UNL     1     -22.622  -5.713  17.984  0.00  0.00    +0.005 A 
ATOM     29  C   UNL     1     -22.210  -7.030  17.681  0.00  0.00    +0.013 A 
BRANCH  18  19
ATOM     19  C   UNL     1     -23.760  -3.944  19.448  0.00  0.00    +0.119 C 
BRANCH  19  20
ATOM     20  N   UNL     1     -22.691  -2.968  19.812  0.00  0.00    -0.302 NA
ATOM     21  C   UNL     1     -21.962  -2.428  18.579  0.00  0.00    +0.066 C 
ATOM     22  C   UNL     1     -20.861  -1.391  18.977  0.00  0.00    -0.064 C 
ATOM     23  N   UNL     1     -19.874  -2.046  19.945  0.00  0.00    +0.379 N 
ATOM     24  C   UNL     1     -18.806  -1.092  20.276  0.00  0.00    -0.096 C 
ATOM     25  H   UNL     1     -19.406  -2.909  19.418  0.00  0.00    -0.082 HD
ATOM     26  C   UNL     1     -20.591  -2.588  21.174  0.00  0.00    -0.064 C 
ATOM     27  C   UNL     1     -21.703  -3.595  20.765  0.00  0.00    +0.066 C 
ENDBRANCH  19  20
ENDBRANCH  18  19
ENDBRANCH  14  15
ENDBRANCH  12  13
TORSDOF 6
ENDMDL
MODEL 4
REMARK VINA RESULT:      -6.7      5.035     12.431
REMARK  Name = C:\Users\Docking\Desktop\test protocol\1iep_ligandH.pdb
REMARK  8 active torsions:
REMARK  status: ('A' for Active; 'I' for Inactive)
REMARK    1  A    between atoms: _5  and  _11
REMARK    2  A    between atoms: _19  and  _21
REMARK    3  A    between atoms: _22  and  _66
REMARK    4  A    between atoms: _27  and  _30
REMARK    5  A    between atoms: _32  and  _33
REMARK    6  A    between atoms: _38  and  _43
REMARK    7  A    between atoms: _43  and  _46
REMARK    8  A    between atoms: _53  and  _55
REMARK                            x       y       z     vdW  Elec       q    Type
REMARK                         _______ _______ _______ _____ _____    ______ ____
ROOT
ATOM     10  C   UNL     1     -22.759  -5.183  16.566  0.00  0.00    +0.038 A 
ATOM     11  C   UNL     1     -22.126  -6.438  16.378  0.00  0.00    +0.047 A 
ATOM     12  C   UNL     1     -22.144  -7.454  17.418  0.00  0.00    +0.035 A 
ATOM     32  C   UNL     1     -22.820  -7.160  18.638  0.00  0.00    +0.024 A 
ATOM     33  C   UNL     1     -23.468  -5.889  18.847  0.00  0.00    +0.007 A 
ATOM     34  C   UNL     1     -23.451  -4.882  17.825  0.00  0.00    -0.029 A 
ATOM     35  C   UNL     1     -24.158  -3.535  18.106  0.00  0.00    +0.045 C 
ENDROOT
BRANCH  10   9
ATOM      4  C   UNL     1     -20.351  -2.417  13.471  0.00  0.00    +0.077 A 
ATOM      5  C   UNL     1     -19.081  -2.859  13.972  0.00  0.00    +0.048 A 
ATOM      6  C   UNL     1     -19.092  -3.794  15.031  0.00  0.00    +0.116 A 
ATOM      7  N   UNL     1     -20.289  -4.246  15.544  0.00  0.00    -0.223 NA
ATOM      8  C   UNL     1     -21.495  -3.797  15.039  0.00  0.00    +0.220 A 
ATOM      9  N   UNL     1     -22.711  -4.245  15.533  0.00  0.00    -0.283 N 
ATOM     36  H   UNL     1     -23.579  -3.884  15.138  0.00  0.00    +0.155 HD
ATOM     37  N   UNL     1     -21.512  -2.904  14.028  0.00  0.00    -0.214 NA
BRANCH   4   3
ATOM      1  C   UNL     1     -19.606  -0.101  10.408  0.00  0.00    +0.020 A 
ATOM      2  C   UNL     1     -19.404  -1.054  11.474  0.00  0.00    +0.013 A 
ATOM      3  C   UNL     1     -20.504  -1.434  12.352  0.00  0.00    +0.019 A 
ATOM     38  C   UNL     1     -21.806  -0.826  12.121  0.00  0.00    +0.120 A 
ATOM     39  N   UNL     1     -21.970   0.090  11.087  0.00  0.00    -0.263 NA
ATOM     40  C   UNL     1     -20.918   0.465  10.237  0.00  0.00    +0.111 A 
ENDBRANCH   4   3
ENDBRANCH  10   9
BRANCH  12  13
ATOM     13  N   UNL     1     -21.511  -8.743  17.287  0.00  0.00    -0.281 N 
ATOM     14  C   UNL     1     -22.002  -9.873  16.654  0.00  0.00    +0.248 C 
ATOM     30  O   UNL     1     -23.160 -10.010  16.286  0.00  0.00    -0.270 OA
ATOM     31  H   UNL     1     -20.588  -8.834  17.713  0.00  0.00    +0.155 HD
BRANCH  14  15
ATOM     15  C   UNL     1     -21.079 -11.021  16.406  0.00  0.00    +0.037 A 
ATOM     16  C   UNL     1     -21.458 -12.124  15.519  0.00  0.00    +0.013 A 
ATOM     17  C   UNL     1     -20.555 -13.228  15.310  0.00  0.00    +0.005 A 
ATOM     18  C   UNL     1     -19.262 -13.234  15.990  0.00  0.00    -0.033 A 
ATOM     28  C   UNL     1     -18.909 -12.124  16.860  0.00  0.00    +0.005 A 
ATOM     29  C   UNL     1     -19.792 -11.041  17.067  0.00  0.00    +0.013 A 
BRANCH  18  19
ATOM     19  C   UNL     1     -18.244 -14.380  15.842  0.00  0.00    +0.119 C 
BRANCH  19  20
ATOM     20  N   UNL     1     -18.705 -15.754  16.205  0.00  0.00    -0.302 NA
ATOM     21  C   UNL     1     -18.987 -15.888  17.704  0.00  0.00    +0.066 C 
ATOM     22  C   UNL     1     -19.490 -17.325  18.062  0.00  0.00    -0.064 C 
ATOM     23  N   UNL     1     -18.450 -18.353  17.613  0.00  0.00    +0.379 N 
ATOM     24  C   UNL     1     -18.893 -19.700  18.000  0.00  0.00    -0.096 C 
ATOM     25  H   UNL     1     -17.503 -18.137  18.160  0.00  0.00    -0.082 HD
ATOM     26  C   UNL     1     -18.162 -18.224  16.124  0.00  0.00    -0.064 C 
ATOM     27  C   UNL     1     -17.691 -16.785  15.774  0.00  0.00    +0.066 C 
ENDBRANCH  19  20
ENDBRANCH  18  19
ENDBRANCH  14  15
ENDBRANCH  12  13
TORSDOF 6
ENDMDL
MODEL 5
REMARK VINA RESULT:      -6.6      4.315     12.832
REMARK  Name = C:\Users\Docking\Desktop\test protocol\1iep_ligandH.pdb
REMARK  8 active torsions:
REMARK  status: ('A' for Active; 'I' for Inactive)
REMARK    1  A    between atoms: _5  and  _11
REMARK    2  A    between atoms: _19  and  _21
REMARK    3  A    between atoms: _22  and  _66
REMARK    4  A    between atoms: _27  and  _30
REMARK    5  A    between atoms: _32  and  _33
REMARK    6  A    between atoms: _38  and  _43
REMARK    7  A    between atoms: _43  and  _46
REMARK    8  A    between atoms: _53  and  _55
REMARK                            x       y       z     vdW  Elec       q    Type
REMARK                         _______ _______ _______ _____ _____    ______ ____
ROOT
ATOM     10  C   UNL     1     -22.387  -6.342  17.991  0.00  0.00    +0.038 A 
ATOM     11  C   UNL     1     -21.716  -7.531  17.606  0.00  0.00    +0.047 A 
ATOM     12  C   UNL     1     -22.330  -8.836  17.795  0.00  0.00    +0.035 A 
ATOM     32  C   UNL     1     -23.630  -8.893  18.376  0.00  0.00    +0.024 A 
ATOM     33  C   UNL     1     -24.326  -7.695  18.775  0.00  0.00    +0.007 A 
ATOM     34  C   UNL     1     -23.724  -6.405  18.593  0.00  0.00    -0.029 A 
ATOM     35  C   UNL     1     -24.513  -5.154  19.044  0.00  0.00    +0.045 C 
ENDROOT
BRANCH  10   9
ATOM      4  C   UNL     1     -20.953  -2.736  15.166  0.00  0.00    +0.077 A 
ATOM      5  C   UNL     1     -21.495  -3.361  13.994  0.00  0.00    +0.048 A 
ATOM      6  C   UNL     1     -22.128  -4.613  14.160  0.00  0.00    +0.116 A 
ATOM      7  N   UNL     1     -22.208  -5.188  15.409  0.00  0.00    -0.223 NA
ATOM      8  C   UNL     1     -21.674  -4.560  16.519  0.00  0.00    +0.220 A 
ATOM      9  N   UNL     1     -21.750  -5.116  17.787  0.00  0.00    -0.283 N 
ATOM     36  H   UNL     1     -21.337  -4.624  18.579  0.00  0.00    +0.155 HD
ATOM     37  N   UNL     1     -21.063  -3.364  16.387  0.00  0.00    -0.214 NA
BRANCH   4   3
ATOM      1  C   UNL     1     -19.624   0.772  14.058  0.00  0.00    +0.020 A 
ATOM      2  C   UNL     1     -20.313  -0.497  14.019  0.00  0.00    +0.013 A 
ATOM      3  C   UNL     1     -20.258  -1.410  15.154  0.00  0.00    +0.019 A 
ATOM     38  C   UNL     1     -19.490  -1.006  16.322  0.00  0.00    +0.120 A 
ATOM     39  N   UNL     1     -18.835   0.221  16.331  0.00  0.00    -0.263 NA
ATOM     40  C   UNL     1     -18.880   1.108  15.244  0.00  0.00    +0.111 A 
ENDBRANCH   4   3
ENDBRANCH  10   9
BRANCH  12  13
ATOM     13  N   UNL     1     -21.694 -10.078  17.431  0.00  0.00    -0.281 N 
ATOM     14  C   UNL     1     -21.677 -10.694  16.191  0.00  0.00    +0.248 C 
ATOM     30  O   UNL     1     -22.390 -10.376  15.251  0.00  0.00    -0.270 OA
ATOM     31  H   UNL     1     -21.196 -10.561  18.179  0.00  0.00    +0.155 HD
BRANCH  14  15
ATOM     15  C   UNL     1     -20.742 -11.839  15.966  0.00  0.00    +0.037 A 
ATOM     16  C   UNL     1     -21.062 -12.906  15.015  0.00  0.00    +0.013 A 
ATOM     17  C   UNL     1     -20.151 -14.008  14.830  0.00  0.00    +0.005 A 
ATOM     18  C   UNL     1     -18.910 -14.047  15.598  0.00  0.00    -0.033 A 
ATOM     28  C   UNL     1     -18.614 -12.973  16.532  0.00  0.00    +0.005 A 
ATOM     29  C   UNL     1     -19.506 -11.892  16.716  0.00  0.00    +0.013 A 
BRANCH  18  19
ATOM     19  C   UNL     1     -17.889 -15.194  15.481  0.00  0.00    +0.119 C 
BRANCH  19  20
ATOM     20  N   UNL     1     -18.174 -16.444  16.248  0.00  0.00    -0.302 NA
ATOM     21  C   UNL     1     -17.329 -17.623  15.759  0.00  0.00    +0.066 C 
ATOM     22  C   UNL     1     -17.623 -18.916  16.588  0.00  0.00    -0.064 C 
ATOM     23  N   UNL     1     -19.114 -19.246  16.502  0.00  0.00    +0.379 N 
ATOM     24  C   UNL     1     -19.384 -20.493  17.232  0.00  0.00    -0.096 C 
ATOM     25  H   UNL     1     -19.360 -19.421  15.429  0.00  0.00    -0.082 HD
ATOM     26  C   UNL     1     -19.962 -18.077  16.984  0.00  0.00    -0.064 C 
ATOM     27  C   UNL     1     -19.640 -16.790  16.174  0.00  0.00    +0.066 C 
ENDBRANCH  19  20
ENDBRANCH  18  19
ENDBRANCH  14  15
ENDBRANCH  12  13
TORSDOF 6
ENDMDL
