MODEL 1
REMARK VINA RESULT:      -9.6      0.000      0.000
REMARK  Name = C:\Users\Docking\Desktop\test protocol\1iep_ligandH.pdb
REMARK  8 active torsions:
REMARK  status: ('A' for Active; 'I' for Inactive)
REMARK    1  A    between atoms: _5  and  _11
REMARK    2  A    between atoms: _19  and  _21
REMARK    3  A    between atoms: _22  and  _66
REMARK    4  A    between atoms: _27  and  _30
REMARK    5  A    between atoms: _32  and  _33
REMARK    6  A    between atoms: _38  and  _43
REMARK    7  A    between atoms: _43  and  _46
REMARK    8  A    between atoms: _53  and  _55
REMARK                            x       y       z     vdW  Elec       q    Type
REMARK                         _______ _______ _______ _____ _____    ______ ____
ROOT
ATOM     10  C   UNL     1      -3.918 -51.514  25.952  0.00  0.00    +0.038 A 
ATOM     11  C   UNL     1      -3.860 -50.215  25.386  0.00  0.00    +0.047 A 
ATOM     12  C   UNL     1      -4.140 -49.995  23.976  0.00  0.00    +0.035 A 
ATOM     32  C   UNL     1      -4.477 -51.122  23.170  0.00  0.00    +0.024 A 
ATOM     33  C   UNL     1      -4.539 -52.450  23.728  0.00  0.00    +0.007 A 
ATOM     34  C   UNL     1      -4.262 -52.673  25.119  0.00  0.00    -0.029 A 
ATOM     35  C   UNL     1      -4.336 -54.119  25.662  0.00  0.00    +0.045 C 
ENDROOT
BRANCH  10   9
ATOM      4  C   UNL     1      -5.294 -52.100  30.512  0.00  0.00    +0.077 A 
ATOM      5  C   UNL     1      -6.684 -52.071  30.159  0.00  0.00    +0.048 A 
ATOM      6  C   UNL     1      -7.002 -51.896  28.793  0.00  0.00    +0.116 A 
ATOM      7  N   UNL     1      -5.998 -51.762  27.860  0.00  0.00    -0.223 NA
ATOM      8  C   UNL     1      -4.667 -51.793  28.235  0.00  0.00    +0.220 A 
ATOM      9  N   UNL     1      -3.640 -51.668  27.312  0.00  0.00    -0.283 N 
ATOM     36  H   UNL     1      -2.671 -51.688  27.630  0.00  0.00    +0.155 HD
ATOM     37  N   UNL     1      -4.337 -51.957  29.533  0.00  0.00    -0.214 NA
BRANCH   4   3
ATOM      1  C   UNL     1      -3.643 -51.458  34.000  0.00  0.00    +0.020 A 
ATOM      2  C   UNL     1      -4.101 -51.232  32.648  0.00  0.00    +0.013 A 
ATOM      3  C   UNL     1      -4.798 -52.280  31.913  0.00  0.00    +0.019 A 
ATOM     38  C   UNL     1      -5.018 -53.555  32.581  0.00  0.00    +0.120 A 
ATOM     39  N   UNL     1      -4.564 -53.743  33.882  0.00  0.00    -0.263 NA
ATOM     40  C   UNL     1      -3.890 -52.743  34.599  0.00  0.00    +0.111 A 
ENDBRANCH   4   3
ENDBRANCH  10   9
BRANCH  12  13
ATOM     13  N   UNL     1      -4.089 -48.700  23.344  0.00  0.00    -0.281 N 
ATOM     14  C   UNL     1      -4.047 -47.456  23.953  0.00  0.00    +0.248 C 
ATOM     30  O   UNL     1      -4.263 -47.261  25.140  0.00  0.00    -0.270 OA
ATOM     31  H   UNL     1      -4.084 -48.700  22.324  0.00  0.00    +0.155 HD
BRANCH  14  15
ATOM     15  C   UNL     1      -3.734 -46.255  23.121  0.00  0.00    +0.037 A 
ATOM     16  C   UNL     1      -3.718 -44.911  23.703  0.00  0.00    +0.013 A 
ATOM     17  C   UNL     1      -3.430 -43.767  22.874  0.00  0.00    +0.005 A 
ATOM     18  C   UNL     1      -3.153 -43.964  21.453  0.00  0.00    -0.033 A 
ATOM     28  C   UNL     1      -3.170 -45.309  20.903  0.00  0.00    +0.005 A 
ATOM     29  C   UNL     1      -3.454 -46.432  21.712  0.00  0.00    +0.013 A 
BRANCH  18  19
ATOM     19  C   UNL     1      -2.857 -42.800  20.489  0.00  0.00    +0.119 C 
BRANCH  19  20
ATOM     20  N   UNL     1      -1.424 -42.525  20.169  0.00  0.00    -0.302 NA
ATOM     21  C   UNL     1      -1.019 -43.101  18.809  0.00  0.00    +0.066 C 
ATOM     22  C   UNL     1       0.476 -42.786  18.479  0.00  0.00    -0.064 C 
ATOM     23  N   UNL     1       1.368 -43.342  19.590  0.00  0.00    +0.379 N 
ATOM     24  C   UNL     1       2.779 -43.098  19.255  0.00  0.00    -0.096 C 
ATOM     25  H   UNL     1       1.215 -44.445  19.626  0.00  0.00    -0.082 HD
ATOM     26  C   UNL     1       0.971 -42.776  20.947  0.00  0.00    -0.064 C 
ATOM     27  C   UNL     1      -0.525 -43.070  21.251  0.00  0.00    +0.066 C 
ENDBRANCH  19  20
ENDBRANCH  18  19
ENDBRANCH  14  15
ENDBRANCH  12  13
TORSDOF 6
ENDMDL
MODEL 2
REMARK VINA RESULT:      -9.1      2.413     12.098
REMARK  Name = C:\Users\Docking\Desktop\test protocol\1iep_ligandH.pdb
REMARK  8 active torsions:
REMARK  status: ('A' for Active; 'I' for Inactive)
REMARK    1  A    between atoms: _5  and  _11
REMARK    2  A    between atoms: _19  and  _21
REMARK    3  A    between atoms: _22  and  _66
REMARK    4  A    between atoms: _27  and  _30
REMARK    5  A    between atoms: _32  and  _33
REMARK    6  A    between atoms: _38  and  _43
REMARK    7  A    between atoms: _43  and  _46
REMARK    8  A    between atoms: _53  and  _55
REMARK                            x       y       z     vdW  Elec       q    Type
REMARK                         _______ _______ _______ _____ _____    ______ ____
ROOT
ATOM     10  C   UNL     1      -4.424 -50.309  22.771  0.00  0.00    +0.038 A 
ATOM     11  C   UNL     1      -4.026 -50.615  24.097  0.00  0.00    +0.047 A 
ATOM     12  C   UNL     1      -4.600 -51.742  24.815  0.00  0.00    +0.035 A 
ATOM     32  C   UNL     1      -5.577 -52.539  24.150  0.00  0.00    +0.024 A 
ATOM     33  C   UNL     1      -5.995 -52.242  22.803  0.00  0.00    +0.007 A 
ATOM     34  C   UNL     1      -5.433 -51.130  22.091  0.00  0.00    -0.029 A 
ATOM     35  C   UNL     1      -5.924 -50.854  20.650  0.00  0.00    +0.045 C 
ENDROOT
BRANCH  10   9
ATOM      4  C   UNL     1      -4.019 -45.595  21.967  0.00  0.00    +0.077 A 
ATOM      5  C   UNL     1      -5.079 -45.287  22.883  0.00  0.00    +0.048 A 
ATOM      6  C   UNL     1      -5.708 -46.371  23.535  0.00  0.00    +0.116 A 
ATOM      7  N   UNL     1      -5.298 -47.663  23.283  0.00  0.00    -0.223 NA
ATOM      8  C   UNL     1      -4.273 -47.925  22.392  0.00  0.00    +0.220 A 
ATOM      9  N   UNL     1      -3.840 -49.215  22.129  0.00  0.00    -0.283 N 
ATOM     36  H   UNL     1      -3.086 -49.367  21.460  0.00  0.00    +0.155 HD
ATOM     37  N   UNL     1      -3.658 -46.907  21.755  0.00  0.00    -0.214 NA
BRANCH   4   3
ATOM      1  C   UNL     1      -2.267 -43.621  19.079  0.00  0.00    +0.020 A 
ATOM      2  C   UNL     1      -3.010 -44.650  19.769  0.00  0.00    +0.013 A 
ATOM      3  C   UNL     1      -3.255 -44.558  21.203  0.00  0.00    +0.019 A 
ATOM     38  C   UNL     1      -2.732 -43.401  21.914  0.00  0.00    +0.120 A 
ATOM     39  N   UNL     1      -2.019 -42.426  21.224  0.00  0.00    -0.263 NA
ATOM     40  C   UNL     1      -1.775 -42.506  19.844  0.00  0.00    +0.111 A 
ENDBRANCH   4   3
ENDBRANCH  10   9
BRANCH  12  13
ATOM     13  N   UNL     1      -4.240 -52.096  26.166  0.00  0.00    -0.281 N 
ATOM     14  C   UNL     1      -4.944 -52.892  27.054  0.00  0.00    +0.248 C 
ATOM     30  O   UNL     1      -6.102 -53.250  26.893  0.00  0.00    -0.270 OA
ATOM     31  H   UNL     1      -3.359 -51.712  26.509  0.00  0.00    +0.155 HD
BRANCH  14  15
ATOM     15  C   UNL     1      -4.270 -53.345  28.308  0.00  0.00    +0.037 A 
ATOM     16  C   UNL     1      -5.043 -53.838  29.451  0.00  0.00    +0.013 A 
ATOM     17  C   UNL     1      -4.369 -54.253  30.656  0.00  0.00    +0.005 A 
ATOM     18  C   UNL     1      -2.911 -54.178  30.722  0.00  0.00    -0.033 A 
ATOM     28  C   UNL     1      -2.169 -53.691  29.572  0.00  0.00    +0.005 A 
ATOM     29  C   UNL     1      -2.826 -53.282  28.390  0.00  0.00    +0.013 A 
BRANCH  18  19
ATOM     19  C   UNL     1      -2.109 -54.580  31.975  0.00  0.00    +0.119 C 
BRANCH  19  20
ATOM     20  N   UNL     1      -1.506 -53.478  32.783  0.00  0.00    -0.302 NA
ATOM     21  C   UNL     1      -0.644 -54.013  33.930  0.00  0.00    +0.066 C 
ATOM     22  C   UNL     1      -0.003 -52.847  34.751  0.00  0.00    -0.064 C 
ATOM     23  N   UNL     1      -1.109 -51.935  35.285  0.00  0.00    +0.379 N 
ATOM     24  C   UNL     1      -0.513 -50.871  36.106  0.00  0.00    -0.096 C 
ATOM     25  H   UNL     1      -1.762 -52.548  35.948  0.00  0.00    -0.082 HD
ATOM     26  C   UNL     1      -1.972 -51.401  34.151  0.00  0.00    -0.064 C 
ATOM     27  C   UNL     1      -2.581 -52.567  33.323  0.00  0.00    +0.066 C 
ENDBRANCH  19  20
ENDBRANCH  18  19
ENDBRANCH  14  15
ENDBRANCH  12  13
TORSDOF 6
ENDMDL
MODEL 3
REMARK VINA RESULT:      -9.1      6.293     16.856
REMARK  Name = C:\Users\Docking\Desktop\test protocol\1iep_ligandH.pdb
REMARK  8 active torsions:
REMARK  status: ('A' for Active; 'I' for Inactive)
REMARK    1  A    between atoms: _5  and  _11
REMARK    2  A    between atoms: _19  and  _21
REMARK    3  A    between atoms: _22  and  _66
REMARK    4  A    between atoms: _27  and  _30
REMARK    5  A    between atoms: _32  and  _33
REMARK    6  A    between atoms: _38  and  _43
REMARK    7  A    between atoms: _43  and  _46
REMARK    8  A    between atoms: _53  and  _55
REMARK                            x       y       z     vdW  Elec       q    Type
REMARK                         _______ _______ _______ _____ _____    ______ ____
ROOT
ATOM     10  C   UNL     1       0.239 -40.335  14.852  0.00  0.00    +0.038 A 
ATOM     11  C   UNL     1      -0.267 -41.380  15.667  0.00  0.00    +0.047 A 
ATOM     12  C   UNL     1      -0.450 -41.196  17.098  0.00  0.00    +0.035 A 
ATOM     32  C   UNL     1      -0.110 -39.934  17.666  0.00  0.00    +0.024 A 
ATOM     33  C   UNL     1       0.407 -38.862  16.853  0.00  0.00    +0.007 A 
ATOM     34  C   UNL     1       0.592 -39.037  15.441  0.00  0.00    -0.029 A 
ATOM     35  C   UNL     1       1.155 -37.855  14.619  0.00  0.00    +0.045 C 
ENDROOT
BRANCH  10   9
ATOM      4  C   UNL     1      -1.511 -40.726  10.400  0.00  0.00    +0.077 A 
ATOM      5  C   UNL     1      -2.852 -40.476  10.841  0.00  0.00    +0.048 A 
ATOM      6  C   UNL     1      -3.051 -40.259  12.223  0.00  0.00    +0.116 A 
ATOM      7  N   UNL     1      -1.979 -40.291  13.090  0.00  0.00    -0.223 NA
ATOM      8  C   UNL     1      -0.698 -40.536  12.631  0.00  0.00    +0.220 A 
ATOM      9  N   UNL     1       0.395 -40.565  13.483  0.00  0.00    -0.283 N 
ATOM     36  H   UNL     1       1.323 -40.757  13.107  0.00  0.00    +0.155 HD
ATOM     37  N   UNL     1      -0.483 -40.748  11.316  0.00  0.00    -0.214 NA
BRANCH   4   3
ATOM      1  C   UNL     1      -0.021 -42.309   7.148  0.00  0.00    +0.020 A 
ATOM      2  C   UNL     1      -0.352 -42.119   8.541  0.00  0.00    +0.013 A 
ATOM      3  C   UNL     1      -1.140 -40.971   8.970  0.00  0.00    +0.019 A 
ATOM     38  C   UNL     1      -1.583 -40.026   7.955  0.00  0.00    +0.120 A 
ATOM     39  N   UNL     1      -1.248 -40.235   6.621  0.00  0.00    -0.263 NA
ATOM     40  C   UNL     1      -0.489 -41.335   6.197  0.00  0.00    +0.111 A 
ENDBRANCH   4   3
ENDBRANCH  10   9
BRANCH  12  13
ATOM     13  N   UNL     1      -0.952 -42.223  17.977  0.00  0.00    -0.281 N 
ATOM     14  C   UNL     1      -0.366 -42.719  19.130  0.00  0.00    +0.248 C 
ATOM     30  O   UNL     1       0.789 -42.502  19.466  0.00  0.00    -0.270 OA
ATOM     31  H   UNL     1      -1.849 -42.635  17.717  0.00  0.00    +0.155 HD
BRANCH  14  15
ATOM     15  C   UNL     1      -1.175 -43.594  20.032  0.00  0.00    +0.037 A 
ATOM     16  C   UNL     1      -2.319 -44.356  19.527  0.00  0.00    +0.013 A 
ATOM     17  C   UNL     1      -3.093 -45.179  20.422  0.00  0.00    +0.005 A 
ATOM     18  C   UNL     1      -2.723 -45.244  21.834  0.00  0.00    -0.033 A 
ATOM     28  C   UNL     1      -1.580 -44.482  22.308  0.00  0.00    +0.005 A 
ATOM     29  C   UNL     1      -0.820 -43.674  21.433  0.00  0.00    +0.013 A 
BRANCH  18  19
ATOM     19  C   UNL     1      -3.505 -46.079  22.866  0.00  0.00    +0.119 C 
BRANCH  19  20
ATOM     20  N   UNL     1      -4.132 -47.347  22.385  0.00  0.00    -0.302 NA
ATOM     21  C   UNL     1      -5.625 -47.173  22.092  0.00  0.00    +0.066 C 
ATOM     22  C   UNL     1      -6.261 -48.503  21.569  0.00  0.00    -0.064 C 
ATOM     23  N   UNL     1      -6.036 -49.611  22.599  0.00  0.00    +0.379 N 
ATOM     24  C   UNL     1      -6.682 -50.848  22.136  0.00  0.00    -0.096 C 
ATOM     25  H   UNL     1      -6.537 -49.301  23.545  0.00  0.00    -0.082 HD
ATOM     26  C   UNL     1      -4.554 -49.789  22.898  0.00  0.00    -0.064 C 
ATOM     27  C   UNL     1      -3.926 -48.454  23.389  0.00  0.00    +0.066 C 
ENDBRANCH  19  20
ENDBRANCH  18  19
ENDBRANCH  14  15
ENDBRANCH  12  13
TORSDOF 6
ENDMDL
MODEL 4
REMARK VINA RESULT:      -8.6      2.548     13.033
REMARK  Name = C:\Users\Docking\Desktop\test protocol\1iep_ligandH.pdb
REMARK  8 active torsions:
REMARK  status: ('A' for Active; 'I' for Inactive)
REMARK    1  A    between atoms: _5  and  _11
REMARK    2  A    between atoms: _19  and  _21
REMARK    3  A    between atoms: _22  and  _66
REMARK    4  A    between atoms: _27  and  _30
REMARK    5  A    between atoms: _32  and  _33
REMARK    6  A    between atoms: _38  and  _43
REMARK    7  A    between atoms: _43  and  _46
REMARK    8  A    between atoms: _53  and  _55
REMARK                            x       y       z     vdW  Elec       q    Type
REMARK                         _______ _______ _______ _____ _____    ______ ____
ROOT
ATOM     10  C   UNL     1      -4.439 -45.843  23.144  0.00  0.00    +0.038 A 
ATOM     11  C   UNL     1      -3.888 -47.054  23.635  0.00  0.00    +0.047 A 
ATOM     12  C   UNL     1      -4.093 -47.471  25.013  0.00  0.00    +0.035 A 
ATOM     32  C   UNL     1      -4.868 -46.630  25.865  0.00  0.00    +0.024 A 
ATOM     33  C   UNL     1      -5.435 -45.395  25.383  0.00  0.00    +0.007 A 
ATOM     34  C   UNL     1      -5.234 -44.978  24.025  0.00  0.00    -0.029 A 
ATOM     35  C   UNL     1      -5.860 -43.641  23.565  0.00  0.00    +0.045 C 
ENDROOT
BRANCH  10   9
ATOM      4  C   UNL     1      -2.129 -43.339  19.764  0.00  0.00    +0.077 A 
ATOM      5  C   UNL     1      -1.328 -42.652  20.736  0.00  0.00    +0.048 A 
ATOM      6  C   UNL     1      -1.547 -42.967  22.096  0.00  0.00    +0.116 A 
ATOM      7  N   UNL     1      -2.498 -43.901  22.446  0.00  0.00    -0.223 NA
ATOM      8  C   UNL     1      -3.254 -44.544  21.483  0.00  0.00    +0.220 A 
ATOM      9  N   UNL     1      -4.211 -45.492  21.812  0.00  0.00    -0.283 N 
ATOM     36  H   UNL     1      -4.753 -45.938  21.073  0.00  0.00    +0.155 HD
ATOM     37  N   UNL     1      -3.065 -44.259  20.178  0.00  0.00    -0.214 NA
BRANCH   4   3
ATOM      1  C   UNL     1      -2.767 -43.474  15.907  0.00  0.00    +0.020 A 
ATOM      2  C   UNL     1      -2.923 -43.721  17.322  0.00  0.00    +0.013 A 
ATOM      3  C   UNL     1      -2.013 -43.117  18.288  0.00  0.00    +0.019 A 
ATOM     38  C   UNL     1      -0.949 -42.262  17.785  0.00  0.00    +0.120 A 
ATOM     39  N   UNL     1      -0.823 -42.043  16.416  0.00  0.00    -0.263 NA
ATOM     40  C   UNL     1      -1.691 -42.620  15.478  0.00  0.00    +0.111 A 
ENDBRANCH   4   3
ENDBRANCH  10   9
BRANCH  12  13
ATOM     13  N   UNL     1      -3.551 -48.686  25.570  0.00  0.00    -0.281 N 
ATOM     14  C   UNL     1      -2.672 -48.818  26.632  0.00  0.00    +0.248 C 
ATOM     30  O   UNL     1      -2.048 -47.894  27.131  0.00  0.00    -0.270 OA
ATOM     31  H   UNL     1      -3.853 -49.554  25.127  0.00  0.00    +0.155 HD
BRANCH  14  15
ATOM     15  C   UNL     1      -2.442 -50.175  27.214  0.00  0.00    +0.037 A 
ATOM     16  C   UNL     1      -1.253 -50.465  28.019  0.00  0.00    +0.013 A 
ATOM     17  C   UNL     1      -1.046 -51.787  28.555  0.00  0.00    +0.005 A 
ATOM     18  C   UNL     1      -2.034 -52.830  28.287  0.00  0.00    -0.033 A 
ATOM     28  C   UNL     1      -3.207 -52.514  27.489  0.00  0.00    +0.005 A 
ATOM     29  C   UNL     1      -3.412 -51.220  26.962  0.00  0.00    +0.013 A 
BRANCH  18  19
ATOM     19  C   UNL     1      -1.884 -54.275  28.800  0.00  0.00    +0.119 C 
BRANCH  19  20
ATOM     20  N   UNL     1      -2.390 -54.567  30.175  0.00  0.00    -0.302 NA
ATOM     21  C   UNL     1      -3.850 -54.141  30.353  0.00  0.00    +0.066 C 
ATOM     22  C   UNL     1      -4.369 -54.476  31.789  0.00  0.00    -0.064 C 
ATOM     23  N   UNL     1      -3.475 -53.790  32.824  0.00  0.00    +0.379 N 
ATOM     24  C   UNL     1      -3.995 -54.055  34.173  0.00  0.00    -0.096 C 
ATOM     25  H   UNL     1      -3.535 -52.691  32.648  0.00  0.00    -0.082 HD
ATOM     26  C   UNL     1      -2.021 -54.206  32.652  0.00  0.00    -0.064 C 
ATOM     27  C   UNL     1      -1.524 -53.897  31.213  0.00  0.00    +0.066 C 
ENDBRANCH  19  20
ENDBRANCH  18  19
ENDBRANCH  14  15
ENDBRANCH  12  13
TORSDOF 6
ENDMDL
MODEL 5
REMARK VINA RESULT:      -8.5      5.522      9.859
REMARK  Name = C:\Users\Docking\Desktop\test protocol\1iep_ligandH.pdb
REMARK  8 active torsions:
REMARK  status: ('A' for Active; 'I' for Inactive)
REMARK    1  A    between atoms: _5  and  _11
REMARK    2  A    between atoms: _19  and  _21
REMARK    3  A    between atoms: _22  and  _66
REMARK    4  A    between atoms: _27  and  _30
REMARK    5  A    between atoms: _32  and  _33
REMARK    6  A    between atoms: _38  and  _43
REMARK    7  A    between atoms: _43  and  _46
REMARK    8  A    between atoms: _53  and  _55
REMARK                            x       y       z     vdW  Elec       q    Type
REMARK                         _______ _______ _______ _____ _____    ______ ____
ROOT
ATOM     10  C   UNL     1      -1.916 -44.235  20.658  0.00  0.00    +0.038 A 
ATOM     11  C   UNL     1      -1.235 -43.583  21.718  0.00  0.00    +0.047 A 
ATOM     12  C   UNL     1      -0.822 -42.193  21.605  0.00  0.00    +0.035 A 
ATOM     32  C   UNL     1      -1.121 -41.496  20.398  0.00  0.00    +0.024 A 
ATOM     33  C   UNL     1      -1.811 -42.143  19.310  0.00  0.00    +0.007 A 
ATOM     34  C   UNL     1      -2.219 -43.515  19.415  0.00  0.00    -0.029 A 
ATOM     35  C   UNL     1      -2.950 -44.160  18.215  0.00  0.00    +0.045 C 
ENDROOT
BRANCH  10   9
ATOM      4  C   UNL     1      -4.796 -47.637  22.438  0.00  0.00    +0.077 A 
ATOM      5  C   UNL     1      -5.609 -46.674  23.123  0.00  0.00    +0.048 A 
ATOM      6  C   UNL     1      -5.248 -45.314  22.997  0.00  0.00    +0.116 A 
ATOM      7  N   UNL     1      -4.153 -44.955  22.240  0.00  0.00    -0.223 NA
ATOM      8  C   UNL     1      -3.390 -45.909  21.594  0.00  0.00    +0.220 A 
ATOM      9  N   UNL     1      -2.290 -45.571  20.821  0.00  0.00    -0.283 N 
ATOM     36  H   UNL     1      -1.748 -46.305  20.366  0.00  0.00    +0.155 HD
ATOM     37  N   UNL     1      -3.713 -47.215  21.699  0.00  0.00    -0.214 NA
BRANCH   4   3
ATOM      1  C   UNL     1      -4.559 -51.449  23.284  0.00  0.00    +0.020 A 
ATOM      2  C   UNL     1      -4.271 -50.033  23.288  0.00  0.00    +0.013 A 
ATOM      3  C   UNL     1      -5.051 -49.112  22.471  0.00  0.00    +0.019 A 
ATOM     38  C   UNL     1      -6.124 -49.660  21.655  0.00  0.00    +0.120 A 
ATOM     39  N   UNL     1      -6.377 -51.029  21.671  0.00  0.00    -0.263 NA
ATOM     40  C   UNL     1      -5.632 -51.924  22.452  0.00  0.00    +0.111 A 
ENDBRANCH   4   3
ENDBRANCH  10   9
BRANCH  12  13
ATOM     13  N   UNL     1      -0.121 -41.481  22.644  0.00  0.00    -0.281 N 
ATOM     14  C   UNL     1       0.715 -42.002  23.618  0.00  0.00    +0.248 C 
ATOM     30  O   UNL     1       0.818 -43.192  23.876  0.00  0.00    -0.270 OA
ATOM     31  H   UNL     1      -0.257 -40.470  22.664  0.00  0.00    +0.155 HD
BRANCH  14  15
ATOM     15  C   UNL     1       1.546 -41.064  24.434  0.00  0.00    +0.037 A 
ATOM     16  C   UNL     1       1.030 -39.757  24.849  0.00  0.00    +0.013 A 
ATOM     17  C   UNL     1       1.859 -38.864  25.620  0.00  0.00    +0.005 A 
ATOM     18  C   UNL     1       3.212 -39.278  25.983  0.00  0.00    -0.033 A 
ATOM     28  C   UNL     1       3.696 -40.582  25.563  0.00  0.00    +0.005 A 
ATOM     29  C   UNL     1       2.887 -41.459  24.806  0.00  0.00    +0.013 A 
BRANCH  18  19
ATOM     19  C   UNL     1       4.173 -38.382  26.787  0.00  0.00    +0.119 C 
BRANCH  19  20
ATOM     20  N   UNL     1       5.537 -38.162  26.221  0.00  0.00    -0.302 NA
ATOM     21  C   UNL     1       6.574 -37.883  27.312  0.00  0.00    +0.066 C 
ATOM     22  C   UNL     1       8.000 -37.678  26.704  0.00  0.00    -0.064 C 
ATOM     23  N   UNL     1       7.959 -36.533  25.690  0.00  0.00    +0.379 N 
ATOM     24  C   UNL     1       9.310 -36.300  25.159  0.00  0.00    -0.096 C 
ATOM     25  H   UNL     1       7.645 -35.612  26.233  0.00  0.00    -0.082 HD
ATOM     26  C   UNL     1       6.929 -36.802  24.602  0.00  0.00    -0.064 C 
ATOM     27  C   UNL     1       5.521 -37.033  25.219  0.00  0.00    +0.066 C 
ENDBRANCH  19  20
ENDBRANCH  18  19
ENDBRANCH  14  15
ENDBRANCH  12  13
TORSDOF 6
ENDMDL
