MODEL 1
REMARK VINA RESULT:      -8.3      0.000      0.000
REMARK  Name = C:\Users\Docking\Desktop\test protocol\1iep_ligandH.pdb
REMARK  8 active torsions:
REMARK  status: ('A' for Active; 'I' for Inactive)
REMARK    1  A    between atoms: _5  and  _11
REMARK    2  A    between atoms: _19  and  _21
REMARK    3  A    between atoms: _22  and  _66
REMARK    4  A    between atoms: _27  and  _30
REMARK    5  A    between atoms: _32  and  _33
REMARK    6  A    between atoms: _38  and  _43
REMARK    7  A    between atoms: _43  and  _46
REMARK    8  A    between atoms: _53  and  _55
REMARK                            x       y       z     vdW  Elec       q    Type
REMARK                         _______ _______ _______ _____ _____    ______ ____
ROOT
ATOM     10  C   UNL     1      30.799   3.115  -3.316  0.00  0.00    +0.038 A 
ATOM     11  C   UNL     1      30.868   1.698  -3.284  0.00  0.00    +0.047 A 
ATOM     12  C   UNL     1      31.783   0.970  -4.149  0.00  0.00    +0.035 A 
ATOM     32  C   UNL     1      32.616   1.716  -5.033  0.00  0.00    +0.024 A 
ATOM     33  C   UNL     1      32.558   3.155  -5.079  0.00  0.00    +0.007 A 
ATOM     34  C   UNL     1      31.656   3.880  -4.231  0.00  0.00    -0.029 A 
ATOM     35  C   UNL     1      31.631   5.423  -4.328  0.00  0.00    +0.045 C 
ENDROOT
BRANCH  10   9
ATOM      4  C   UNL     1      26.363   4.455  -2.067  0.00  0.00    +0.077 A 
ATOM      5  C   UNL     1      25.786   3.833  -3.224  0.00  0.00    +0.048 A 
ATOM      6  C   UNL     1      26.666   3.186  -4.119  0.00  0.00    +0.116 A 
ATOM      7  N   UNL     1      28.020   3.166  -3.867  0.00  0.00    -0.223 NA
ATOM      8  C   UNL     1      28.544   3.777  -2.742  0.00  0.00    +0.220 A 
ATOM      9  N   UNL     1      29.903   3.763  -2.464  0.00  0.00    -0.283 N 
ATOM     36  H   UNL     1      30.251   4.231  -1.628  0.00  0.00    +0.155 HD
ATOM     37  N   UNL     1      27.725   4.403  -1.872  0.00  0.00    -0.214 NA
BRANCH   4   3
ATOM      1  C   UNL     1      23.761   5.277   0.736  0.00  0.00    +0.020 A 
ATOM      2  C   UNL     1      24.503   4.536  -0.258  0.00  0.00    +0.013 A 
ATOM      3  C   UNL     1      25.564   5.176  -1.026  0.00  0.00    +0.019 A 
ATOM     38  C   UNL     1      25.852   6.577  -0.761  0.00  0.00    +0.120 A 
ATOM     39  N   UNL     1      25.120   7.266   0.201  0.00  0.00    -0.263 NA
ATOM     40  C   UNL     1      24.095   6.661   0.945  0.00  0.00    +0.111 A 
ENDBRANCH   4   3
ENDBRANCH  10   9
BRANCH  12  13
ATOM     13  N   UNL     1      31.891  -0.468  -4.166  0.00  0.00    -0.281 N 
ATOM     14  C   UNL     1      32.042  -1.324  -3.086  0.00  0.00    +0.248 C 
ATOM     30  O   UNL     1      32.322  -0.964  -1.953  0.00  0.00    -0.270 OA
ATOM     31  H   UNL     1      31.852  -0.909  -5.085  0.00  0.00    +0.155 HD
BRANCH  14  15
ATOM     15  C   UNL     1      31.870  -2.793  -3.301  0.00  0.00    +0.037 A 
ATOM     16  C   UNL     1      33.024  -3.668  -3.526  0.00  0.00    +0.013 A 
ATOM     17  C   UNL     1      32.830  -5.079  -3.747  0.00  0.00    +0.005 A 
ATOM     18  C   UNL     1      31.474  -5.624  -3.742  0.00  0.00    -0.033 A 
ATOM     28  C   UNL     1      30.348  -4.735  -3.510  0.00  0.00    +0.005 A 
ATOM     29  C   UNL     1      30.535  -3.351  -3.295  0.00  0.00    +0.013 A 
BRANCH  18  19
ATOM     19  C   UNL     1      31.171  -7.114  -3.989  0.00  0.00    +0.119 C 
BRANCH  19  20
ATOM     20  N   UNL     1      31.708  -7.721  -5.244  0.00  0.00    -0.302 NA
ATOM     21  C   UNL     1      31.184  -7.011  -6.496  0.00  0.00    +0.066 C 
ATOM     22  C   UNL     1      31.773  -7.645  -7.798  0.00  0.00    -0.064 C 
ATOM     23  N   UNL     1      31.430  -9.135  -7.837  0.00  0.00    +0.379 N 
ATOM     24  C   UNL     1      31.932  -9.722  -9.088  0.00  0.00    -0.096 C 
ATOM     25  H   UNL     1      30.319  -9.226  -7.842  0.00  0.00    -0.082 HD
ATOM     26  C   UNL     1      31.945  -9.848  -6.594  0.00  0.00    -0.064 C 
ATOM     27  C   UNL     1      31.377  -9.192  -5.305  0.00  0.00    +0.066 C 
ENDBRANCH  19  20
ENDBRANCH  18  19
ENDBRANCH  14  15
ENDBRANCH  12  13
TORSDOF 6
ENDMDL
MODEL 2
REMARK VINA RESULT:      -7.9     13.915     18.345
REMARK  Name = C:\Users\Docking\Desktop\test protocol\1iep_ligandH.pdb
REMARK  8 active torsions:
REMARK  status: ('A' for Active; 'I' for Inactive)
REMARK    1  A    between atoms: _5  and  _11
REMARK    2  A    between atoms: _19  and  _21
REMARK    3  A    between atoms: _22  and  _66
REMARK    4  A    between atoms: _27  and  _30
REMARK    5  A    between atoms: _32  and  _33
REMARK    6  A    between atoms: _38  and  _43
REMARK    7  A    between atoms: _43  and  _46
REMARK    8  A    between atoms: _53  and  _55
REMARK                            x       y       z     vdW  Elec       q    Type
REMARK                         _______ _______ _______ _____ _____    ______ ____
ROOT
ATOM     10  C   UNL     1      27.663  -4.885 -21.362  0.00  0.00    +0.038 A 
ATOM     11  C   UNL     1      27.354  -6.126 -20.748  0.00  0.00    +0.047 A 
ATOM     12  C   UNL     1      27.210  -7.340 -21.536  0.00  0.00    +0.035 A 
ATOM     32  C   UNL     1      27.390  -7.254 -22.948  0.00  0.00    +0.024 A 
ATOM     33  C   UNL     1      27.703  -6.001 -23.588  0.00  0.00    +0.007 A 
ATOM     34  C   UNL     1      27.844  -4.800 -22.816  0.00  0.00    -0.029 A 
ATOM     35  C   UNL     1      28.174  -3.483 -23.556  0.00  0.00    +0.045 C 
ENDROOT
BRANCH  10   9
ATOM      4  C   UNL     1      30.119  -2.117 -18.305  0.00  0.00    +0.077 A 
ATOM      5  C   UNL     1      31.233  -3.021 -18.290  0.00  0.00    +0.048 A 
ATOM      6  C   UNL     1      31.131  -4.190 -19.076  0.00  0.00    +0.116 A 
ATOM      7  N   UNL     1      29.995  -4.427 -19.820  0.00  0.00    -0.223 NA
ATOM      8  C   UNL     1      28.938  -3.536 -19.811  0.00  0.00    +0.220 A 
ATOM      9  N   UNL     1      27.789  -3.751 -20.557  0.00  0.00    -0.283 N 
ATOM     36  H   UNL     1      27.029  -3.073 -20.517  0.00  0.00    +0.155 HD
ATOM     37  N   UNL     1      29.010  -2.413 -19.066  0.00  0.00    -0.214 NA
BRANCH   4   3
ATOM      1  C   UNL     1      30.104   0.470 -15.371  0.00  0.00    +0.020 A 
ATOM      2  C   UNL     1      30.148  -0.792 -16.073  0.00  0.00    +0.013 A 
ATOM      3  C   UNL     1      30.078  -0.838 -17.528  0.00  0.00    +0.019 A 
ATOM     38  C   UNL     1      29.964   0.421 -18.249  0.00  0.00    +0.120 A 
ATOM     39  N   UNL     1      29.923   1.621 -17.546  0.00  0.00    -0.263 NA
ATOM     40  C   UNL     1      29.987   1.678 -16.146  0.00  0.00    +0.111 A 
ENDBRANCH   4   3
ENDBRANCH  10   9
BRANCH  12  13
ATOM     13  N   UNL     1      26.889  -8.626 -20.970  0.00  0.00    -0.281 N 
ATOM     14  C   UNL     1      25.667  -9.279 -20.975  0.00  0.00    +0.248 C 
ATOM     30  O   UNL     1      24.606  -8.757 -21.285  0.00  0.00    -0.270 OA
ATOM     31  H   UNL     1      27.656  -9.115 -20.508  0.00  0.00    +0.155 HD
BRANCH  14  15
ATOM     15  C   UNL     1      25.613 -10.715 -20.565  0.00  0.00    +0.037 A 
ATOM     16  C   UNL     1      24.380 -11.496 -20.691  0.00  0.00    +0.013 A 
ATOM     17  C   UNL     1      24.351 -12.875 -20.272  0.00  0.00    +0.005 A 
ATOM     18  C   UNL     1      25.561 -13.482 -19.723  0.00  0.00    -0.033 A 
ATOM     28  C   UNL     1      26.772 -12.686 -19.613  0.00  0.00    +0.005 A 
ATOM     29  C   UNL     1      26.804 -11.334 -20.022  0.00  0.00    +0.013 A 
BRANCH  18  19
ATOM     19  C   UNL     1      25.616 -14.940 -19.230  0.00  0.00    +0.119 C 
BRANCH  19  20
ATOM     20  N   UNL     1      25.847 -15.161 -17.771  0.00  0.00    -0.302 NA
ATOM     21  C   UNL     1      25.326 -16.524 -17.307  0.00  0.00    +0.066 C 
ATOM     22  C   UNL     1      25.597 -16.748 -15.784  0.00  0.00    -0.064 C 
ATOM     23  N   UNL     1      24.948 -15.619 -14.982  0.00  0.00    +0.379 N 
ATOM     24  C   UNL     1      25.151 -15.857 -13.545  0.00  0.00    -0.096 C 
ATOM     25  H   UNL     1      23.851 -15.652 -15.179  0.00  0.00    -0.082 HD
ATOM     26  C   UNL     1      25.458 -14.259 -15.439  0.00  0.00    -0.064 C 
ATOM     27  C   UNL     1      25.211 -14.059 -16.960  0.00  0.00    +0.066 C 
ENDBRANCH  19  20
ENDBRANCH  18  19
ENDBRANCH  14  15
ENDBRANCH  12  13
TORSDOF 6
ENDMDL
MODEL 3
REMARK VINA RESULT:      -7.7     14.119     18.986
REMARK  Name = C:\Users\Docking\Desktop\test protocol\1iep_ligandH.pdb
REMARK  8 active torsions:
REMARK  status: ('A' for Active; 'I' for Inactive)
REMARK    1  A    between atoms: _5  and  _11
REMARK    2  A    between atoms: _19  and  _21
REMARK    3  A    between atoms: _22  and  _66
REMARK    4  A    between atoms: _27  and  _30
REMARK    5  A    between atoms: _32  and  _33
REMARK    6  A    between atoms: _38  and  _43
REMARK    7  A    between atoms: _43  and  _46
REMARK    8  A    between atoms: _53  and  _55
REMARK                            x       y       z     vdW  Elec       q    Type
REMARK                         _______ _______ _______ _____ _____    ______ ____
ROOT
ATOM     10  C   UNL     1      27.655  -4.894 -21.285  0.00  0.00    +0.038 A 
ATOM     11  C   UNL     1      27.399  -6.158 -20.695  0.00  0.00    +0.047 A 
ATOM     12  C   UNL     1      27.235  -7.351 -21.513  0.00  0.00    +0.035 A 
ATOM     32  C   UNL     1      27.342  -7.219 -22.928  0.00  0.00    +0.024 A 
ATOM     33  C   UNL     1      27.601  -5.942 -23.544  0.00  0.00    +0.007 A 
ATOM     34  C   UNL     1      27.761  -4.762 -22.743  0.00  0.00    -0.029 A 
ATOM     35  C   UNL     1      28.031  -3.418 -23.458  0.00  0.00    +0.045 C 
ENDROOT
BRANCH  10   9
ATOM      4  C   UNL     1      30.286  -2.050 -18.452  0.00  0.00    +0.077 A 
ATOM      5  C   UNL     1      31.456  -2.862 -18.623  0.00  0.00    +0.048 A 
ATOM      6  C   UNL     1      31.337  -4.007 -19.442  0.00  0.00    +0.116 A 
ATOM      7  N   UNL     1      30.133  -4.307 -20.041  0.00  0.00    -0.223 NA
ATOM      8  C   UNL     1      29.023  -3.504 -19.854  0.00  0.00    +0.220 A 
ATOM      9  N   UNL     1      27.804  -3.783 -20.453  0.00  0.00    -0.283 N 
ATOM     36  H   UNL     1      27.007  -3.169 -20.284  0.00  0.00    +0.155 HD
ATOM     37  N   UNL     1      29.111  -2.406 -19.075  0.00  0.00    -0.214 NA
BRANCH   4   3
ATOM      1  C   UNL     1      30.029   0.406 -15.418  0.00  0.00    +0.020 A 
ATOM      2  C   UNL     1      30.051  -0.824 -16.176  0.00  0.00    +0.013 A 
ATOM      3  C   UNL     1      30.254  -0.806 -17.619  0.00  0.00    +0.019 A 
ATOM     38  C   UNL     1      30.434   0.483 -18.270  0.00  0.00    +0.120 A 
ATOM     39  N   UNL     1      30.406   1.651 -17.514  0.00  0.00    -0.263 NA
ATOM     40  C   UNL     1      30.210   1.646 -16.125  0.00  0.00    +0.111 A 
ENDBRANCH   4   3
ENDBRANCH  10   9
BRANCH  12  13
ATOM     13  N   UNL     1      26.965  -8.659 -20.971  0.00  0.00    -0.281 N 
ATOM     14  C   UNL     1      25.763  -9.347 -20.964  0.00  0.00    +0.248 C 
ATOM     30  O   UNL     1      24.680  -8.849 -21.236  0.00  0.00    -0.270 OA
ATOM     31  H   UNL     1      27.757  -9.137 -20.539  0.00  0.00    +0.155 HD
BRANCH  14  15
ATOM     15  C   UNL     1      25.760 -10.793 -20.588  0.00  0.00    +0.037 A 
ATOM     16  C   UNL     1      26.865 -11.383 -19.828  0.00  0.00    +0.013 A 
ATOM     17  C   UNL     1      26.846 -12.785 -19.493  0.00  0.00    +0.005 A 
ATOM     18  C   UNL     1      25.715 -13.607 -19.917  0.00  0.00    -0.033 A 
ATOM     28  C   UNL     1      24.630 -12.995 -20.665  0.00  0.00    +0.005 A 
ATOM     29  C   UNL     1      24.646 -11.622 -20.996  0.00  0.00    +0.013 A 
BRANCH  18  19
ATOM     19  C   UNL     1      25.621 -15.116 -19.622  0.00  0.00    +0.119 C 
BRANCH  19  20
ATOM     20  N   UNL     1      26.718 -15.984 -20.144  0.00  0.00    -0.302 NA
ATOM     21  C   UNL     1      27.041 -15.683 -21.610  0.00  0.00    +0.066 C 
ATOM     22  C   UNL     1      28.205 -16.585 -22.134  0.00  0.00    -0.064 C 
ATOM     23  N   UNL     1      27.827 -18.056 -21.954  0.00  0.00    +0.379 N 
ATOM     24  C   UNL     1      28.896 -18.907 -22.498  0.00  0.00    -0.096 C 
ATOM     25  H   UNL     1      26.906 -18.244 -22.554  0.00  0.00    -0.082 HD
ATOM     26  C   UNL     1      27.502 -18.364 -20.499  0.00  0.00    -0.064 C 
ATOM     27  C   UNL     1      26.363 -17.442 -19.980  0.00  0.00    +0.066 C 
ENDBRANCH  19  20
ENDBRANCH  18  19
ENDBRANCH  14  15
ENDBRANCH  12  13
TORSDOF 6
ENDMDL
MODEL 4
REMARK VINA RESULT:      -7.7      6.181     10.598
REMARK  Name = C:\Users\Docking\Desktop\test protocol\1iep_ligandH.pdb
REMARK  8 active torsions:
REMARK  status: ('A' for Active; 'I' for Inactive)
REMARK    1  A    between atoms: _5  and  _11
REMARK    2  A    between atoms: _19  and  _21
REMARK    3  A    between atoms: _22  and  _66
REMARK    4  A    between atoms: _27  and  _30
REMARK    5  A    between atoms: _32  and  _33
REMARK    6  A    between atoms: _38  and  _43
REMARK    7  A    between atoms: _43  and  _46
REMARK    8  A    between atoms: _53  and  _55
REMARK                            x       y       z     vdW  Elec       q    Type
REMARK                         _______ _______ _______ _____ _____    ______ ____
ROOT
ATOM     10  C   UNL     1      23.244   5.141   2.920  0.00  0.00    +0.038 A 
ATOM     11  C   UNL     1      24.161   4.488   2.057  0.00  0.00    +0.047 A 
ATOM     12  C   UNL     1      24.771   5.189   0.939  0.00  0.00    +0.035 A 
ATOM     32  C   UNL     1      24.428   6.556   0.729  0.00  0.00    +0.024 A 
ATOM     33  C   UNL     1      23.497   7.236   1.596  0.00  0.00    +0.007 A 
ATOM     34  C   UNL     1      22.890   6.549   2.700  0.00  0.00    -0.029 A 
ATOM     35  C   UNL     1      21.894   7.325   3.593  0.00  0.00    +0.045 C 
ENDROOT
BRANCH  10   9
ATOM      4  C   UNL     1      23.331   3.495   7.428  0.00  0.00    +0.077 A 
ATOM      5  C   UNL     1      24.606   4.100   7.687  0.00  0.00    +0.048 A 
ATOM      6  C   UNL     1      25.208   4.821   6.632  0.00  0.00    +0.116 A 
ATOM      7  N   UNL     1      24.575   4.922   5.412  0.00  0.00    -0.223 NA
ATOM      8  C   UNL     1      23.347   4.325   5.195  0.00  0.00    +0.220 A 
ATOM      9  N   UNL     1      22.688   4.420   3.979  0.00  0.00    -0.283 N 
ATOM     36  H   UNL     1      21.786   3.959   3.857  0.00  0.00    +0.155 HD
ATOM     37  N   UNL     1      22.751   3.630   6.187  0.00  0.00    -0.214 NA
BRANCH   4   3
ATOM      1  C   UNL     1      20.597   2.349   9.980  0.00  0.00    +0.020 A 
ATOM      2  C   UNL     1      21.296   3.150   9.002  0.00  0.00    +0.013 A 
ATOM      3  C   UNL     1      22.566   2.704   8.444  0.00  0.00    +0.019 A 
ATOM     38  C   UNL     1      23.106   1.432   8.899  0.00  0.00    +0.120 A 
ATOM     39  N   UNL     1      22.411   0.682   9.843  0.00  0.00    -0.263 NA
ATOM     40  C   UNL     1      21.189   1.102  10.389  0.00  0.00    +0.111 A 
ENDBRANCH   4   3
ENDBRANCH  10   9
BRANCH  12  13
ATOM     13  N   UNL     1      25.702   4.575   0.024  0.00  0.00    -0.281 N 
ATOM     14  C   UNL     1      25.464   4.138  -1.268  0.00  0.00    +0.248 C 
ATOM     30  O   UNL     1      24.353   4.014  -1.762  0.00  0.00    -0.270 OA
ATOM     31  H   UNL     1      26.653   4.448   0.373  0.00  0.00    +0.155 HD
BRANCH  14  15
ATOM     15  C   UNL     1      26.627   3.773  -2.133  0.00  0.00    +0.037 A 
ATOM     16  C   UNL     1      27.972   4.280  -1.851  0.00  0.00    +0.013 A 
ATOM     17  C   UNL     1      29.074   3.927  -2.712  0.00  0.00    +0.005 A 
ATOM     18  C   UNL     1      28.833   3.059  -3.862  0.00  0.00    -0.033 A 
ATOM     28  C   UNL     1      27.490   2.565  -4.115  0.00  0.00    +0.005 A 
ATOM     29  C   UNL     1      26.408   2.911  -3.275  0.00  0.00    +0.013 A 
BRANCH  18  19
ATOM     19  C   UNL     1      29.945   2.647  -4.845  0.00  0.00    +0.119 C 
BRANCH  19  20
ATOM     20  N   UNL     1      31.325   3.143  -4.564  0.00  0.00    -0.302 NA
ATOM     21  C   UNL     1      31.747   4.249  -5.536  0.00  0.00    +0.066 C 
ATOM     22  C   UNL     1      33.184   4.773  -5.213  0.00  0.00    -0.064 C 
ATOM     23  N   UNL     1      34.172   3.605  -5.260  0.00  0.00    +0.379 N 
ATOM     24  C   UNL     1      35.533   4.104  -5.014  0.00  0.00    -0.096 C 
ATOM     25  H   UNL     1      34.147   3.183  -6.291  0.00  0.00    -0.082 HD
ATOM     26  C   UNL     1      33.758   2.500  -4.299  0.00  0.00    -0.064 C 
ATOM     27  C   UNL     1      32.317   2.007  -4.610  0.00  0.00    +0.066 C 
ENDBRANCH  19  20
ENDBRANCH  18  19
ENDBRANCH  14  15
ENDBRANCH  12  13
TORSDOF 6
ENDMDL
MODEL 5
REMARK VINA RESULT:      -7.7     34.426     36.557
REMARK  Name = C:\Users\Docking\Desktop\test protocol\1iep_ligandH.pdb
REMARK  8 active torsions:
REMARK  status: ('A' for Active; 'I' for Inactive)
REMARK    1  A    between atoms: _5  and  _11
REMARK    2  A    between atoms: _19  and  _21
REMARK    3  A    between atoms: _22  and  _66
REMARK    4  A    between atoms: _27  and  _30
REMARK    5  A    between atoms: _32  and  _33
REMARK    6  A    between atoms: _38  and  _43
REMARK    7  A    between atoms: _43  and  _46
REMARK    8  A    between atoms: _53  and  _55
REMARK                            x       y       z     vdW  Elec       q    Type
REMARK                         _______ _______ _______ _____ _____    ______ ____
ROOT
ATOM     10  C   UNL     1      -5.364 -10.852  -4.613  0.00  0.00    +0.038 A 
ATOM     11  C   UNL     1      -4.985 -12.117  -4.094  0.00  0.00    +0.047 A 
ATOM     12  C   UNL     1      -4.203 -12.225  -2.872  0.00  0.00    +0.035 A 
ATOM     32  C   UNL     1      -3.827 -11.024  -2.203  0.00  0.00    +0.024 A 
ATOM     33  C   UNL     1      -4.203  -9.730  -2.717  0.00  0.00    +0.007 A 
ATOM     34  C   UNL     1      -4.972  -9.618  -3.923  0.00  0.00    -0.029 A 
ATOM     35  C   UNL     1      -5.341  -8.205  -4.432  0.00  0.00    +0.045 C 
ENDROOT
BRANCH  10   9
ATOM      4  C   UNL     1      -5.743 -10.416  -9.378  0.00  0.00    +0.077 A 
ATOM      5  C   UNL     1      -4.328 -10.236  -9.533  0.00  0.00    +0.048 A 
ATOM      6  C   UNL     1      -3.539 -10.255  -8.361  0.00  0.00    +0.116 A 
ATOM      7  N   UNL     1      -4.131 -10.441  -7.131  0.00  0.00    -0.223 NA
ATOM      8  C   UNL     1      -5.499 -10.610  -7.016  0.00  0.00    +0.220 A 
ATOM      9  N   UNL     1      -6.115 -10.807  -5.790  0.00  0.00    -0.283 N 
ATOM     36  H   UNL     1      -7.128 -10.921  -5.747  0.00  0.00    +0.155 HD
ATOM     37  N   UNL     1      -6.275 -10.595  -8.120  0.00  0.00    -0.214 NA
BRANCH   4   3
ATOM      1  C   UNL     1      -7.405 -11.081 -12.856  0.00  0.00    +0.020 A 
ATOM      2  C   UNL     1      -6.439 -11.103 -11.782  0.00  0.00    +0.013 A 
ATOM      3  C   UNL     1      -6.709 -10.423 -10.522  0.00  0.00    +0.019 A 
ATOM     38  C   UNL     1      -7.977  -9.725 -10.378  0.00  0.00    +0.120 A 
ATOM     39  N   UNL     1      -8.888  -9.719 -11.430  0.00  0.00    -0.263 NA
ATOM     40  C   UNL     1      -8.639 -10.368 -12.648  0.00  0.00    +0.111 A 
ENDBRANCH   4   3
ENDBRANCH  10   9
BRANCH  12  13
ATOM     13  N   UNL     1      -3.782 -13.480  -2.302  0.00  0.00    -0.281 N 
ATOM     14  C   UNL     1      -2.775 -14.322  -2.746  0.00  0.00    +0.248 C 
ATOM     30  O   UNL     1      -2.222 -14.225  -3.831  0.00  0.00    -0.270 OA
ATOM     31  H   UNL     1      -4.288 -13.786  -1.471  0.00  0.00    +0.155 HD
BRANCH  14  15
ATOM     15  C   UNL     1      -2.327 -15.441  -1.861  0.00  0.00    +0.037 A 
ATOM     16  C   UNL     1      -1.368 -16.443  -2.331  0.00  0.00    +0.013 A 
ATOM     17  C   UNL     1      -0.966 -17.522  -1.464  0.00  0.00    +0.005 A 
ATOM     18  C   UNL     1      -1.523 -17.603  -0.116  0.00  0.00    -0.033 A 
ATOM     28  C   UNL     1      -2.470 -16.592   0.326  0.00  0.00    +0.005 A 
ATOM     29  C   UNL     1      -2.867 -15.534  -0.522  0.00  0.00    +0.013 A 
BRANCH  18  19
ATOM     19  C   UNL     1      -1.167 -18.731   0.870  0.00  0.00    +0.119 C 
BRANCH  19  20
ATOM     20  N   UNL     1       0.144 -18.632   1.578  0.00  0.00    -0.302 NA
ATOM     21  C   UNL     1       0.817 -19.999   1.733  0.00  0.00    +0.066 C 
ATOM     22  C   UNL     1       2.198 -19.874   2.455  0.00  0.00    -0.064 C 
ATOM     23  N   UNL     1       2.000 -19.210   3.819  0.00  0.00    +0.379 N 
ATOM     24  C   UNL     1       3.288 -19.144   4.524  0.00  0.00    -0.096 C 
ATOM     25  H   UNL     1       1.320 -19.861   4.416  0.00  0.00    -0.082 HD
ATOM     26  C   UNL     1       1.329 -17.852   3.673  0.00  0.00    -0.064 C 
ATOM     27  C   UNL     1      -0.029 -17.983   2.929  0.00  0.00    +0.066 C 
ENDBRANCH  19  20
ENDBRANCH  18  19
ENDBRANCH  14  15
ENDBRANCH  12  13
TORSDOF 6
ENDMDL
