MODEL 1
REMARK VINA RESULT:     -11.5      0.000      0.000
REMARK  Name = C:\Users\Docking\Desktop\test protocol\1iep_ligandH.pdb
REMARK  8 active torsions:
REMARK  status: ('A' for Active; 'I' for Inactive)
REMARK    1  A    between atoms: _5  and  _11
REMARK    2  A    between atoms: _19  and  _21
REMARK    3  A    between atoms: _22  and  _66
REMARK    4  A    between atoms: _27  and  _30
REMARK    5  A    between atoms: _32  and  _33
REMARK    6  A    between atoms: _38  and  _43
REMARK    7  A    between atoms: _43  and  _46
REMARK    8  A    between atoms: _53  and  _55
REMARK                            x       y       z     vdW  Elec       q    Type
REMARK                         _______ _______ _______ _____ _____    ______ ____
ROOT
ATOM     10  C   UNL     1       0.482  34.019  14.478  0.00  0.00    +0.038 A 
ATOM     11  C   UNL     1       0.838  35.252  15.081  0.00  0.00    +0.047 A 
ATOM     12  C   UNL     1       1.101  36.435  14.276  0.00  0.00    +0.035 A 
ATOM     32  C   UNL     1       0.992  36.326  12.859  0.00  0.00    +0.024 A 
ATOM     33  C   UNL     1       0.633  35.080  12.230  0.00  0.00    +0.007 A 
ATOM     34  C   UNL     1       0.374  33.909  13.018  0.00  0.00    -0.029 A 
ATOM     35  C   UNL     1      -0.001  32.598  12.289  0.00  0.00    +0.045 C 
ENDROOT
BRANCH  10   9
ATOM      4  C   UNL     1       1.883  29.985  16.670  0.00  0.00    +0.077 A 
ATOM      5  C   UNL     1       3.202  30.069  16.111  0.00  0.00    +0.048 A 
ATOM      6  C   UNL     1       3.477  31.162  15.259  0.00  0.00    +0.116 A 
ATOM      7  N   UNL     1       2.499  32.095  14.993  0.00  0.00    -0.223 NA
ATOM      8  C   UNL     1       1.237  31.984  15.546  0.00  0.00    +0.220 A 
ATOM      9  N   UNL     1       0.240  32.915  15.299  0.00  0.00    -0.283 N 
ATOM     36  H   UNL     1      -0.680  32.793  15.721  0.00  0.00    +0.155 HD
ATOM     37  N   UNL     1       0.949  30.948  16.362  0.00  0.00    -0.214 NA
BRANCH   4   3
ATOM      1  C   UNL     1       1.778  26.683  18.764  0.00  0.00    +0.020 A 
ATOM      2  C   UNL     1       2.252  27.711  17.866  0.00  0.00    +0.013 A 
ATOM      3  C   UNL     1       1.441  28.891  17.591  0.00  0.00    +0.019 A 
ATOM     38  C   UNL     1       0.146  29.001  18.246  0.00  0.00    +0.120 A 
ATOM     39  N   UNL     1      -0.284  27.994  19.104  0.00  0.00    -0.263 NA
ATOM     40  C   UNL     1       0.486  26.854  19.376  0.00  0.00    +0.111 A 
ENDBRANCH   4   3
ENDBRANCH  10   9
BRANCH  12  13
ATOM     13  N   UNL     1       1.474  37.712  14.832  0.00  0.00    -0.281 N 
ATOM     14  C   UNL     1       2.383  38.628  14.329  0.00  0.00    +0.248 C 
ATOM     30  O   UNL     1       3.177  38.391  13.430  0.00  0.00    -0.270 OA
ATOM     31  H   UNL     1       1.011  37.973  15.703  0.00  0.00    +0.155 HD
BRANCH  14  15
ATOM     15  C   UNL     1       2.427  40.001  14.918  0.00  0.00    +0.037 A 
ATOM     16  C   UNL     1       1.431  41.014  14.560  0.00  0.00    +0.013 A 
ATOM     17  C   UNL     1       1.507  42.336  15.130  0.00  0.00    +0.005 A 
ATOM     18  C   UNL     1       2.583  42.651  16.066  0.00  0.00    -0.033 A 
ATOM     28  C   UNL     1       3.555  41.625  16.408  0.00  0.00    +0.005 A 
ATOM     29  C   UNL     1       3.484  40.329  15.851  0.00  0.00    +0.013 A 
BRANCH  18  19
ATOM     19  C   UNL     1       2.753  44.041  16.706  0.00  0.00    +0.119 C 
BRANCH  19  20
ATOM     20  N   UNL     1       2.378  45.226  15.879  0.00  0.00    -0.302 NA
ATOM     21  C   UNL     1       3.435  46.332  15.945  0.00  0.00    +0.066 C 
ATOM     22  C   UNL     1       3.036  47.555  15.056  0.00  0.00    -0.064 C 
ATOM     23  N   UNL     1       1.672  48.083  15.501  0.00  0.00    +0.379 N 
ATOM     24  C   UNL     1       1.320  49.268  14.705  0.00  0.00    -0.096 C 
ATOM     25  H   UNL     1       1.765  48.404  16.564  0.00  0.00    -0.082 HD
ATOM     26  C   UNL     1       0.615  46.989  15.441  0.00  0.00    -0.064 C 
ATOM     27  C   UNL     1       1.035  45.767  16.305  0.00  0.00    +0.066 C 
ENDBRANCH  19  20
ENDBRANCH  18  19
ENDBRANCH  14  15
ENDBRANCH  12  13
TORSDOF 6
ENDMDL
MODEL 2
REMARK VINA RESULT:      -9.8      6.646     13.016
REMARK  Name = C:\Users\Docking\Desktop\test protocol\1iep_ligandH.pdb
REMARK  8 active torsions:
REMARK  status: ('A' for Active; 'I' for Inactive)
REMARK    1  A    between atoms: _5  and  _11
REMARK    2  A    between atoms: _19  and  _21
REMARK    3  A    between atoms: _22  and  _66
REMARK    4  A    between atoms: _27  and  _30
REMARK    5  A    between atoms: _32  and  _33
REMARK    6  A    between atoms: _38  and  _43
REMARK    7  A    between atoms: _43  and  _46
REMARK    8  A    between atoms: _53  and  _55
REMARK                            x       y       z     vdW  Elec       q    Type
REMARK                         _______ _______ _______ _____ _____    ______ ____
ROOT
ATOM     10  C   UNL     1       1.244  23.879  22.901  0.00  0.00    +0.038 A 
ATOM     11  C   UNL     1       1.745  24.847  21.995  0.00  0.00    +0.047 A 
ATOM     12  C   UNL     1       0.853  25.772  21.312  0.00  0.00    +0.035 A 
ATOM     32  C   UNL     1      -0.544  25.684  21.578  0.00  0.00    +0.024 A 
ATOM     33  C   UNL     1      -1.071  24.705  22.496  0.00  0.00    +0.007 A 
ATOM     34  C   UNL     1      -0.196  23.788  23.171  0.00  0.00    -0.029 A 
ATOM     35  C   UNL     1      -0.817  22.755  24.140  0.00  0.00    +0.045 C 
ENDROOT
BRANCH  10   9
ATOM      4  C   UNL     1       4.369  22.831  26.390  0.00  0.00    +0.077 A 
ATOM      5  C   UNL     1       4.213  24.121  26.999  0.00  0.00    +0.048 A 
ATOM      6  C   UNL     1       3.324  25.027  26.379  0.00  0.00    +0.116 A 
ATOM      7  N   UNL     1       2.647  24.660  25.236  0.00  0.00    -0.223 NA
ATOM      8  C   UNL     1       2.822  23.409  24.674  0.00  0.00    +0.220 A 
ATOM      9  N   UNL     1       2.145  23.016  23.529  0.00  0.00    -0.283 N 
ATOM     36  H   UNL     1       2.307  22.087  23.141  0.00  0.00    +0.155 HD
ATOM     37  N   UNL     1       3.666  22.526  25.246  0.00  0.00    -0.214 NA
BRANCH   4   3
ATOM      1  C   UNL     1       7.452  20.500  26.992  0.00  0.00    +0.020 A 
ATOM      2  C   UNL     1       6.623  21.545  26.436  0.00  0.00    +0.013 A 
ATOM      3  C   UNL     1       5.269  21.763  26.929  0.00  0.00    +0.019 A 
ATOM     38  C   UNL     1       4.780  20.899  27.993  0.00  0.00    +0.120 A 
ATOM     39  N   UNL     1       5.600  19.900  28.508  0.00  0.00    -0.263 NA
ATOM     40  C   UNL     1       6.904  19.680  28.040  0.00  0.00    +0.111 A 
ENDBRANCH   4   3
ENDBRANCH  10   9
BRANCH  12  13
ATOM     13  N   UNL     1       1.304  26.771  20.375  0.00  0.00    -0.281 N 
ATOM     14  C   UNL     1       1.835  26.574  19.110  0.00  0.00    +0.248 C 
ATOM     30  O   UNL     1       2.203  25.493  18.676  0.00  0.00    -0.270 OA
ATOM     31  H   UNL     1       1.221  27.740  20.680  0.00  0.00    +0.155 HD
BRANCH  14  15
ATOM     15  C   UNL     1       1.993  27.751  18.203  0.00  0.00    +0.037 A 
ATOM     16  C   UNL     1       0.851  28.599  17.851  0.00  0.00    +0.013 A 
ATOM     17  C   UNL     1       1.028  29.718  16.960  0.00  0.00    +0.005 A 
ATOM     18  C   UNL     1       2.355  29.997  16.415  0.00  0.00    -0.033 A 
ATOM     28  C   UNL     1       3.471  29.143  16.785  0.00  0.00    +0.005 A 
ATOM     29  C   UNL     1       3.301  28.045  17.658  0.00  0.00    +0.013 A 
BRANCH  18  19
ATOM     19  C   UNL     1       2.632  31.157  15.441  0.00  0.00    +0.119 C 
BRANCH  19  20
ATOM     20  N   UNL     1       1.738  32.350  15.527  0.00  0.00    -0.302 NA
ATOM     21  C   UNL     1       0.934  32.560  14.241  0.00  0.00    +0.066 C 
ATOM     22  C   UNL     1      -0.012  33.800  14.357  0.00  0.00    -0.064 C 
ATOM     23  N   UNL     1       0.818  35.042  14.685  0.00  0.00    +0.379 N 
ATOM     24  C   UNL     1      -0.061  36.219  14.738  0.00  0.00    -0.096 C 
ATOM     25  H   UNL     1       1.541  35.196  13.851  0.00  0.00    -0.082 HD
ATOM     26  C   UNL     1       1.623  34.841  15.962  0.00  0.00    -0.064 C 
ATOM     27  C   UNL     1       2.538  33.590  15.847  0.00  0.00    +0.066 C 
ENDBRANCH  19  20
ENDBRANCH  18  19
ENDBRANCH  14  15
ENDBRANCH  12  13
TORSDOF 6
ENDMDL
MODEL 3
REMARK VINA RESULT:      -9.7      5.063     10.822
REMARK  Name = C:\Users\Docking\Desktop\test protocol\1iep_ligandH.pdb
REMARK  8 active torsions:
REMARK  status: ('A' for Active; 'I' for Inactive)
REMARK    1  A    between atoms: _5  and  _11
REMARK    2  A    between atoms: _19  and  _21
REMARK    3  A    between atoms: _22  and  _66
REMARK    4  A    between atoms: _27  and  _30
REMARK    5  A    between atoms: _32  and  _33
REMARK    6  A    between atoms: _38  and  _43
REMARK    7  A    between atoms: _43  and  _46
REMARK    8  A    between atoms: _53  and  _55
REMARK                            x       y       z     vdW  Elec       q    Type
REMARK                         _______ _______ _______ _____ _____    ______ ____
ROOT
ATOM     10  C   UNL     1       2.227  24.901  20.246  0.00  0.00    +0.038 A 
ATOM     11  C   UNL     1       2.226  26.038  19.398  0.00  0.00    +0.047 A 
ATOM     12  C   UNL     1       1.289  27.131  19.606  0.00  0.00    +0.035 A 
ATOM     32  C   UNL     1       0.367  27.034  20.689  0.00  0.00    +0.024 A 
ATOM     33  C   UNL     1       0.353  25.885  21.560  0.00  0.00    +0.007 A 
ATOM     34  C   UNL     1       1.274  24.803  21.359  0.00  0.00    -0.029 A 
ATOM     35  C   UNL     1       1.209  23.593  22.319  0.00  0.00    +0.045 C 
ENDROOT
BRANCH  10   9
ATOM      4  C   UNL     1       3.485  20.724  18.244  0.00  0.00    +0.077 A 
ATOM      5  C   UNL     1       2.188  20.546  17.658  0.00  0.00    +0.048 A 
ATOM      6  C   UNL     1       1.223  21.549  17.902  0.00  0.00    +0.116 A 
ATOM      7  N   UNL     1       1.543  22.644  18.675  0.00  0.00    -0.223 NA
ATOM      8  C   UNL     1       2.803  22.784  19.227  0.00  0.00    +0.220 A 
ATOM      9  N   UNL     1       3.149  23.881  20.001  0.00  0.00    -0.283 N 
ATOM     36  H   UNL     1       4.087  23.943  20.396  0.00  0.00    +0.155 HD
ATOM     37  N   UNL     1       3.742  21.839  19.010  0.00  0.00    -0.214 NA
BRANCH   4   3
ATOM      1  C   UNL     1       7.062  19.181  17.890  0.00  0.00    +0.020 A 
ATOM      2  C   UNL     1       6.012  20.159  18.056  0.00  0.00    +0.013 A 
ATOM      3  C   UNL     1       4.612  19.753  18.074  0.00  0.00    +0.019 A 
ATOM     38  C   UNL     1       4.307  18.339  17.922  0.00  0.00    +0.120 A 
ATOM     39  N   UNL     1       5.340  17.420  17.762  0.00  0.00    -0.263 NA
ATOM     40  C   UNL     1       6.690  17.799  17.741  0.00  0.00    +0.111 A 
ENDBRANCH   4   3
ENDBRANCH  10   9
BRANCH  12  13
ATOM     13  N   UNL     1       1.236  28.306  18.773  0.00  0.00    -0.281 N 
ATOM     14  C   UNL     1       2.230  28.813  17.952  0.00  0.00    +0.248 C 
ATOM     30  O   UNL     1       3.397  28.450  17.973  0.00  0.00    -0.270 OA
ATOM     31  H   UNL     1       0.360  28.828  18.790  0.00  0.00    +0.155 HD
BRANCH  14  15
ATOM     15  C   UNL     1       1.881  29.890  16.976  0.00  0.00    +0.037 A 
ATOM     16  C   UNL     1       2.919  30.604  16.227  0.00  0.00    +0.013 A 
ATOM     17  C   UNL     1       2.556  31.650  15.305  0.00  0.00    +0.005 A 
ATOM     18  C   UNL     1       1.146  31.989  15.125  0.00  0.00    -0.033 A 
ATOM     28  C   UNL     1       0.136  31.262  15.877  0.00  0.00    +0.005 A 
ATOM     29  C   UNL     1       0.489  30.236  16.782  0.00  0.00    +0.013 A 
BRANCH  18  19
ATOM     19  C   UNL     1       0.668  33.105  14.178  0.00  0.00    +0.119 C 
BRANCH  19  20
ATOM     20  N   UNL     1       1.381  34.415  14.251  0.00  0.00    -0.302 NA
ATOM     21  C   UNL     1       1.133  35.132  15.581  0.00  0.00    +0.066 C 
ATOM     22  C   UNL     1       1.905  36.490  15.649  0.00  0.00    -0.064 C 
ATOM     23  N   UNL     1       1.484  37.372  14.472  0.00  0.00    +0.379 N 
ATOM     24  C   UNL     1       2.165  38.671  14.565  0.00  0.00    -0.096 C 
ATOM     25  H   UNL     1       0.388  37.556  14.562  0.00  0.00    -0.082 HD
ATOM     26  C   UNL     1       1.726  36.666  13.145  0.00  0.00    -0.064 C 
ATOM     27  C   UNL     1       0.978  35.304  13.100  0.00  0.00    +0.066 C 
ENDBRANCH  19  20
ENDBRANCH  18  19
ENDBRANCH  14  15
ENDBRANCH  12  13
TORSDOF 6
ENDMDL
MODEL 4
REMARK VINA RESULT:      -9.5      1.342      2.106
REMARK  Name = C:\Users\Docking\Desktop\test protocol\1iep_ligandH.pdb
REMARK  8 active torsions:
REMARK  status: ('A' for Active; 'I' for Inactive)
REMARK    1  A    between atoms: _5  and  _11
REMARK    2  A    between atoms: _19  and  _21
REMARK    3  A    between atoms: _22  and  _66
REMARK    4  A    between atoms: _27  and  _30
REMARK    5  A    between atoms: _32  and  _33
REMARK    6  A    between atoms: _38  and  _43
REMARK    7  A    between atoms: _43  and  _46
REMARK    8  A    between atoms: _53  and  _55
REMARK                            x       y       z     vdW  Elec       q    Type
REMARK                         _______ _______ _______ _____ _____    ______ ____
ROOT
ATOM     10  C   UNL     1       0.365  33.857  14.406  0.00  0.00    +0.038 A 
ATOM     11  C   UNL     1       0.597  35.138  14.969  0.00  0.00    +0.047 A 
ATOM     12  C   UNL     1       0.834  36.299  14.126  0.00  0.00    +0.035 A 
ATOM     32  C   UNL     1       0.825  36.120  12.712  0.00  0.00    +0.024 A 
ATOM     33  C   UNL     1       0.592  34.825  12.123  0.00  0.00    +0.007 A 
ATOM     34  C   UNL     1       0.360  33.675  12.950  0.00  0.00    -0.029 A 
ATOM     35  C   UNL     1       0.122  32.310  12.264  0.00  0.00    +0.045 C 
ENDROOT
BRANCH  10   9
ATOM      4  C   UNL     1       1.861  29.972  16.795  0.00  0.00    +0.077 A 
ATOM      5  C   UNL     1       3.191  30.089  16.270  0.00  0.00    +0.048 A 
ATOM      6  C   UNL     1       3.447  31.158  15.383  0.00  0.00    +0.116 A 
ATOM      7  N   UNL     1       2.440  32.040  15.053  0.00  0.00    -0.223 NA
ATOM      8  C   UNL     1       1.168  31.898  15.576  0.00  0.00    +0.220 A 
ATOM      9  N   UNL     1       0.143  32.777  15.263  0.00  0.00    -0.283 N 
ATOM     36  H   UNL     1      -0.784  32.633  15.664  0.00  0.00    +0.155 HD
ATOM     37  N   UNL     1       0.898  30.884  16.424  0.00  0.00    -0.214 NA
BRANCH   4   3
ATOM      1  C   UNL     1       0.065  28.038  19.682  0.00  0.00    +0.020 A 
ATOM      2  C   UNL     1       0.441  29.111  18.790  0.00  0.00    +0.013 A 
ATOM      3  C   UNL     1       1.436  28.897  17.746  0.00  0.00    +0.019 A 
ATOM     38  C   UNL     1       2.035  27.576  17.631  0.00  0.00    +0.120 A 
ATOM     39  N   UNL     1       1.655  26.563  18.506  0.00  0.00    -0.263 NA
ATOM     40  C   UNL     1       0.700  26.758  19.515  0.00  0.00    +0.111 A 
ENDBRANCH   4   3
ENDBRANCH  10   9
BRANCH  12  13
ATOM     13  N   UNL     1       1.083  37.623  14.641  0.00  0.00    -0.281 N 
ATOM     14  C   UNL     1       2.099  38.496  14.288  0.00  0.00    +0.248 C 
ATOM     30  O   UNL     1       3.078  38.186  13.626  0.00  0.00    -0.270 OA
ATOM     31  H   UNL     1       0.432  37.956  15.351  0.00  0.00    +0.155 HD
BRANCH  14  15
ATOM     15  C   UNL     1       2.023  39.916  14.750  0.00  0.00    +0.037 A 
ATOM     16  C   UNL     1       0.762  40.660  14.714  0.00  0.00    +0.013 A 
ATOM     17  C   UNL     1       0.720  42.034  15.149  0.00  0.00    +0.005 A 
ATOM     18  C   UNL     1       1.944  42.672  15.625  0.00  0.00    -0.033 A 
ATOM     28  C   UNL     1       3.181  41.908  15.655  0.00  0.00    +0.005 A 
ATOM     29  C   UNL     1       3.226  40.562  15.229  0.00  0.00    +0.013 A 
BRANCH  18  19
ATOM     19  C   UNL     1       1.997  44.140  16.089  0.00  0.00    +0.119 C 
BRANCH  19  20
ATOM     20  N   UNL     1       3.306  44.651  16.593  0.00  0.00    -0.302 NA
ATOM     21  C   UNL     1       3.658  44.072  17.966  0.00  0.00    +0.066 C 
ATOM     22  C   UNL     1       5.042  44.600  18.469  0.00  0.00    -0.064 C 
ATOM     23  N   UNL     1       5.014  46.128  18.516  0.00  0.00    +0.379 N 
ATOM     24  C   UNL     1       6.294  46.626  19.043  0.00  0.00    -0.096 C 
ATOM     25  H   UNL     1       4.214  46.430  19.231  0.00  0.00    -0.082 HD
ATOM     26  C   UNL     1       4.662  46.712  17.155  0.00  0.00    -0.064 C 
ATOM     27  C   UNL     1       3.300  46.159  16.652  0.00  0.00    +0.066 C 
ENDBRANCH  19  20
ENDBRANCH  18  19
ENDBRANCH  14  15
ENDBRANCH  12  13
TORSDOF 6
ENDMDL
MODEL 5
REMARK VINA RESULT:      -9.5      5.984     12.235
REMARK  Name = C:\Users\Docking\Desktop\test protocol\1iep_ligandH.pdb
REMARK  8 active torsions:
REMARK  status: ('A' for Active; 'I' for Inactive)
REMARK    1  A    between atoms: _5  and  _11
REMARK    2  A    between atoms: _19  and  _21
REMARK    3  A    between atoms: _22  and  _66
REMARK    4  A    between atoms: _27  and  _30
REMARK    5  A    between atoms: _32  and  _33
REMARK    6  A    between atoms: _38  and  _43
REMARK    7  A    between atoms: _43  and  _46
REMARK    8  A    between atoms: _53  and  _55
REMARK                            x       y       z     vdW  Elec       q    Type
REMARK                         _______ _______ _______ _____ _____    ______ ____
ROOT
ATOM     10  C   UNL     1       0.332  26.250  24.258  0.00  0.00    +0.038 A 
ATOM     11  C   UNL     1       0.775  26.901  23.078  0.00  0.00    +0.047 A 
ATOM     12  C   UNL     1      -0.144  27.666  22.250  0.00  0.00    +0.035 A 
ATOM     32  C   UNL     1      -1.508  27.750  22.655  0.00  0.00    +0.024 A 
ATOM     33  C   UNL     1      -1.976  27.094  23.850  0.00  0.00    +0.007 A 
ATOM     34  C   UNL     1      -1.075  26.336  24.670  0.00  0.00    -0.029 A 
ATOM     35  C   UNL     1      -1.633  25.648  25.938  0.00  0.00    +0.045 C 
ENDROOT
BRANCH  10   9
ATOM      4  C   UNL     1       3.793  22.954  24.695  0.00  0.00    +0.077 A 
ATOM      5  C   UNL     1       3.734  22.622  23.301  0.00  0.00    +0.048 A 
ATOM      6  C   UNL     1       2.795  23.317  22.507  0.00  0.00    +0.116 A 
ATOM      7  N   UNL     1       1.980  24.272  23.076  0.00  0.00    -0.223 NA
ATOM      8  C   UNL     1       2.061  24.567  24.424  0.00  0.00    +0.220 A 
ATOM      9  N   UNL     1       1.257  25.529  25.016  0.00  0.00    -0.283 N 
ATOM     36  H   UNL     1       1.342  25.712  26.015  0.00  0.00    +0.155 HD
ATOM     37  N   UNL     1       2.949  23.916  25.204  0.00  0.00    -0.214 NA
BRANCH   4   3
ATOM      1  C   UNL     1       7.019  21.482  26.346  0.00  0.00    +0.020 A 
ATOM      2  C   UNL     1       6.151  22.110  25.377  0.00  0.00    +0.013 A 
ATOM      3  C   UNL     1       4.736  22.309  25.663  0.00  0.00    +0.019 A 
ATOM     38  C   UNL     1       4.227  21.859  26.949  0.00  0.00    +0.120 A 
ATOM     39  N   UNL     1       5.086  21.256  27.862  0.00  0.00    -0.263 NA
ATOM     40  C   UNL     1       6.449  21.057  27.598  0.00  0.00    +0.111 A 
ENDBRANCH   4   3
ENDBRANCH  10   9
BRANCH  12  13
ATOM     13  N   UNL     1       0.247  28.341  21.037  0.00  0.00    -0.281 N 
ATOM     14  C   UNL     1       0.568  27.776  19.814  0.00  0.00    +0.248 C 
ATOM     30  O   UNL     1       0.775  26.585  19.635  0.00  0.00    -0.270 OA
ATOM     31  H   UNL     1       0.293  29.358  21.087  0.00  0.00    +0.155 HD
BRANCH  14  15
ATOM     15  C   UNL     1       0.691  28.664  18.618  0.00  0.00    +0.037 A 
ATOM     16  C   UNL     1      -0.495  29.188  17.936  0.00  0.00    +0.013 A 
ATOM     17  C   UNL     1      -0.349  30.029  16.774  0.00  0.00    +0.005 A 
ATOM     18  C   UNL     1       0.990  30.353  16.289  0.00  0.00    -0.033 A 
ATOM     28  C   UNL     1       2.150  29.824  16.988  0.00  0.00    +0.005 A 
ATOM     29  C   UNL     1       2.010  28.999  18.126  0.00  0.00    +0.013 A 
BRANCH  18  19
ATOM     19  C   UNL     1       1.240  31.226  15.045  0.00  0.00    +0.119 C 
BRANCH  19  20
ATOM     20  N   UNL     1       1.092  32.703  15.205  0.00  0.00    -0.302 NA
ATOM     21  C   UNL     1       0.512  33.362  13.950  0.00  0.00    +0.066 C 
ATOM     22  C   UNL     1       0.342  34.904  14.143  0.00  0.00    -0.064 C 
ATOM     23  N   UNL     1       1.695  35.522  14.503  0.00  0.00    +0.379 N 
ATOM     24  C   UNL     1       1.551  36.979  14.628  0.00  0.00    -0.096 C 
ATOM     25  H   UNL     1       2.393  35.322  13.657  0.00  0.00    -0.082 HD
ATOM     26  C   UNL     1       2.280  34.871  15.748  0.00  0.00    -0.064 C 
ATOM     27  C   UNL     1       2.417  33.334  15.556  0.00  0.00    +0.066 C 
ENDBRANCH  19  20
ENDBRANCH  18  19
ENDBRANCH  14  15
ENDBRANCH  12  13
TORSDOF 6
ENDMDL
