MODEL 1
REMARK VINA RESULT:     -12.8      0.000      0.000
REMARK  Name = C:\Users\Docking\Desktop\test protocol\1iep_ligandH.pdb
REMARK  8 active torsions:
REMARK  status: ('A' for Active; 'I' for Inactive)
REMARK    1  A    between atoms: _5  and  _11
REMARK    2  A    between atoms: _19  and  _21
REMARK    3  A    between atoms: _22  and  _66
REMARK    4  A    between atoms: _27  and  _30
REMARK    5  A    between atoms: _32  and  _33
REMARK    6  A    between atoms: _38  and  _43
REMARK    7  A    between atoms: _43  and  _46
REMARK    8  A    between atoms: _53  and  _55
REMARK                            x       y       z     vdW  Elec       q    Type
REMARK                         _______ _______ _______ _____ _____    ______ ____
ROOT
ATOM     10  C   UNL     1      -5.106 -34.835   9.246  0.00  0.00    +0.038 A 
ATOM     11  C   UNL     1      -4.163 -33.947   8.667  0.00  0.00    +0.047 A 
ATOM     12  C   UNL     1      -2.918 -33.625   9.346  0.00  0.00    +0.035 A 
ATOM     32  C   UNL     1      -2.664 -34.226  10.613  0.00  0.00    +0.024 A 
ATOM     33  C   UNL     1      -3.612 -35.130  11.217  0.00  0.00    +0.007 A 
ATOM     34  C   UNL     1      -4.843 -35.450  10.552  0.00  0.00    -0.029 A 
ATOM     35  C   UNL     1      -5.825 -36.420  11.250  0.00  0.00    +0.045 C 
ENDROOT
BRANCH  10   9
ATOM      4  C   UNL     1      -7.761 -37.572   6.331  0.00  0.00    +0.077 A 
ATOM      5  C   UNL     1      -6.700 -38.521   6.159  0.00  0.00    +0.048 A 
ATOM      6  C   UNL     1      -5.484 -38.265   6.832  0.00  0.00    +0.116 A 
ATOM      7  N   UNL     1      -5.352 -37.140   7.616  0.00  0.00    -0.223 NA
ATOM      8  C   UNL     1      -6.395 -36.243   7.760  0.00  0.00    +0.220 A 
ATOM      9  N   UNL     1      -6.286 -35.109   8.550  0.00  0.00    -0.283 N 
ATOM     36  H   UNL     1      -7.076 -34.469   8.624  0.00  0.00    +0.155 HD
ATOM     37  N   UNL     1      -7.565 -36.465   7.126  0.00  0.00    -0.214 NA
BRANCH   4   3
ATOM      1  C   UNL     1     -11.458 -36.910   5.236  0.00  0.00    +0.020 A 
ATOM      2  C   UNL     1     -10.177 -36.735   5.880  0.00  0.00    +0.013 A 
ATOM      3  C   UNL     1      -9.107 -37.705   5.688  0.00  0.00    +0.019 A 
ATOM     38  C   UNL     1      -9.367 -38.851   4.829  0.00  0.00    +0.120 A 
ATOM     39  N   UNL     1     -10.611 -38.994   4.222  0.00  0.00    -0.263 NA
ATOM     40  C   UNL     1     -11.649 -38.068   4.402  0.00  0.00    +0.111 A 
ENDBRANCH   4   3
ENDBRANCH  10   9
BRANCH  12  13
ATOM     13  N   UNL     1      -1.927 -32.725   8.811  0.00  0.00    -0.281 N 
ATOM     14  C   UNL     1      -2.131 -31.603   8.024  0.00  0.00    +0.248 C 
ATOM     30  O   UNL     1      -3.190 -31.323   7.481  0.00  0.00    -0.270 OA
ATOM     31  H   UNL     1      -0.957 -32.941   9.040  0.00  0.00    +0.155 HD
BRANCH  14  15
ATOM     15  C   UNL     1      -0.991 -30.663   7.797  0.00  0.00    +0.037 A 
ATOM     16  C   UNL     1       0.248 -30.771   8.570  0.00  0.00    +0.013 A 
ATOM     17  C   UNL     1       1.326 -29.841   8.342  0.00  0.00    +0.005 A 
ATOM     18  C   UNL     1       1.168 -28.795   7.334  0.00  0.00    -0.033 A 
ATOM     28  C   UNL     1      -0.070 -28.715   6.577  0.00  0.00    +0.005 A 
ATOM     29  C   UNL     1      -1.129 -29.624   6.799  0.00  0.00    +0.013 A 
BRANCH  18  19
ATOM     19  C   UNL     1       2.258 -27.747   7.039  0.00  0.00    +0.119 C 
BRANCH  19  20
ATOM     20  N   UNL     1       3.680 -28.186   7.160  0.00  0.00    -0.302 NA
ATOM     21  C   UNL     1       4.629 -27.005   7.377  0.00  0.00    +0.066 C 
ATOM     22  C   UNL     1       6.110 -27.484   7.524  0.00  0.00    -0.064 C 
ATOM     23  N   UNL     1       6.512 -28.281   6.282  0.00  0.00    +0.379 N 
ATOM     24  C   UNL     1       7.921 -28.683   6.392  0.00  0.00    -0.096 C 
ATOM     25  H   UNL     1       6.421 -27.603   5.402  0.00  0.00    -0.082 HD
ATOM     26  C   UNL     1       5.571 -29.456   6.058  0.00  0.00    -0.064 C 
ATOM     27  C   UNL     1       4.099 -28.972   5.942  0.00  0.00    +0.066 C 
ENDBRANCH  19  20
ENDBRANCH  18  19
ENDBRANCH  14  15
ENDBRANCH  12  13
TORSDOF 6
ENDMDL
MODEL 2
REMARK VINA RESULT:      -9.9      7.379     13.691
REMARK  Name = C:\Users\Docking\Desktop\test protocol\1iep_ligandH.pdb
REMARK  8 active torsions:
REMARK  status: ('A' for Active; 'I' for Inactive)
REMARK    1  A    between atoms: _5  and  _11
REMARK    2  A    between atoms: _19  and  _21
REMARK    3  A    between atoms: _22  and  _66
REMARK    4  A    between atoms: _27  and  _30
REMARK    5  A    between atoms: _32  and  _33
REMARK    6  A    between atoms: _38  and  _43
REMARK    7  A    between atoms: _43  and  _46
REMARK    8  A    between atoms: _53  and  _55
REMARK                            x       y       z     vdW  Elec       q    Type
REMARK                         _______ _______ _______ _____ _____    ______ ____
ROOT
ATOM     10  C   UNL     1       5.608 -32.159  10.416  0.00  0.00    +0.038 A 
ATOM     11  C   UNL     1       5.254 -33.487  10.068  0.00  0.00    +0.047 A 
ATOM     12  C   UNL     1       5.990 -34.625  10.597  0.00  0.00    +0.035 A 
ATOM     32  C   UNL     1       7.080 -34.374  11.480  0.00  0.00    +0.024 A 
ATOM     33  C   UNL     1       7.455 -33.030  11.843  0.00  0.00    +0.007 A 
ATOM     34  C   UNL     1       6.734 -31.903  11.322  0.00  0.00    -0.029 A 
ATOM     35  C   UNL     1       7.184 -30.484  11.741  0.00  0.00    +0.045 C 
ENDROOT
BRANCH  10   9
ATOM      4  C   UNL     1       4.556 -29.099   6.870  0.00  0.00    +0.077 A 
ATOM      5  C   UNL     1       5.587 -29.630   6.026  0.00  0.00    +0.048 A 
ATOM      6  C   UNL     1       6.371 -30.686   6.545  0.00  0.00    +0.116 A 
ATOM      7  N   UNL     1       6.132 -31.166   7.814  0.00  0.00    -0.223 NA
ATOM      8  C   UNL     1       5.131 -30.630   8.603  0.00  0.00    +0.220 A 
ATOM      9  N   UNL     1       4.868 -31.104   9.879  0.00  0.00    -0.283 N 
ATOM     36  H   UNL     1       4.125 -30.677  10.432  0.00  0.00    +0.155 HD
ATOM     37  N   UNL     1       4.369 -29.621   8.131  0.00  0.00    -0.214 NA
BRANCH   4   3
ATOM      1  C   UNL     1       3.020 -25.545   6.316  0.00  0.00    +0.020 A 
ATOM      2  C   UNL     1       3.936 -26.583   6.730  0.00  0.00    +0.013 A 
ATOM      3  C   UNL     1       3.642 -27.985   6.464  0.00  0.00    +0.019 A 
ATOM     38  C   UNL     1       2.405 -28.306   5.769  0.00  0.00    +0.120 A 
ATOM     39  N   UNL     1       1.541 -27.286   5.383  0.00  0.00    -0.263 NA
ATOM     40  C   UNL     1       1.812 -25.933   5.636  0.00  0.00    +0.111 A 
ENDBRANCH   4   3
ENDBRANCH  10   9
BRANCH  12  13
ATOM     13  N   UNL     1       5.681 -35.996  10.273  0.00  0.00    -0.281 N 
ATOM     14  C   UNL     1       4.991 -36.919  11.043  0.00  0.00    +0.248 C 
ATOM     30  O   UNL     1       4.719 -36.767  12.225  0.00  0.00    -0.270 OA
ATOM     31  H   UNL     1       6.010 -36.327   9.366  0.00  0.00    +0.155 HD
BRANCH  14  15
ATOM     15  C   UNL     1       4.554 -38.201  10.414  0.00  0.00    +0.037 A 
ATOM     16  C   UNL     1       4.604 -38.391   8.962  0.00  0.00    +0.013 A 
ATOM     17  C   UNL     1       4.160 -39.633   8.379  0.00  0.00    +0.005 A 
ATOM     18  C   UNL     1       3.662 -40.695   9.250  0.00  0.00    -0.033 A 
ATOM     28  C   UNL     1       3.627 -40.482  10.687  0.00  0.00    +0.005 A 
ATOM     29  C   UNL     1       4.061 -39.266  11.262  0.00  0.00    +0.013 A 
BRANCH  18  19
ATOM     19  C   UNL     1       3.147 -42.044   8.713  0.00  0.00    +0.119 C 
BRANCH  19  20
ATOM     20  N   UNL     1       1.702 -42.128   8.347  0.00  0.00    -0.302 NA
ATOM     21  C   UNL     1       0.999 -43.295   9.047  0.00  0.00    +0.066 C 
ATOM     22  C   UNL     1      -0.517 -43.354   8.670  0.00  0.00    -0.064 C 
ATOM     23  N   UNL     1      -0.658 -43.469   7.152  0.00  0.00    +0.379 N 
ATOM     24  C   UNL     1      -2.081 -43.583   6.799  0.00  0.00    -0.096 C 
ATOM     25  H   UNL     1      -0.154 -44.412   6.835  0.00  0.00    -0.082 HD
ATOM     26  C   UNL     1       0.040 -42.314   6.448  0.00  0.00    -0.064 C 
ATOM     27  C   UNL     1       1.539 -42.246   6.852  0.00  0.00    +0.066 C 
ENDBRANCH  19  20
ENDBRANCH  18  19
ENDBRANCH  14  15
ENDBRANCH  12  13
TORSDOF 6
ENDMDL
MODEL 3
REMARK VINA RESULT:      -9.8      6.892     13.457
REMARK  Name = C:\Users\Docking\Desktop\test protocol\1iep_ligandH.pdb
REMARK  8 active torsions:
REMARK  status: ('A' for Active; 'I' for Inactive)
REMARK    1  A    between atoms: _5  and  _11
REMARK    2  A    between atoms: _19  and  _21
REMARK    3  A    between atoms: _22  and  _66
REMARK    4  A    between atoms: _27  and  _30
REMARK    5  A    between atoms: _32  and  _33
REMARK    6  A    between atoms: _38  and  _43
REMARK    7  A    between atoms: _43  and  _46
REMARK    8  A    between atoms: _53  and  _55
REMARK                            x       y       z     vdW  Elec       q    Type
REMARK                         _______ _______ _______ _____ _____    ______ ____
ROOT
ATOM     10  C   UNL     1       5.625 -32.381   9.822  0.00  0.00    +0.038 A 
ATOM     11  C   UNL     1       5.086 -33.636   9.440  0.00  0.00    +0.047 A 
ATOM     12  C   UNL     1       5.235 -34.808  10.288  0.00  0.00    +0.035 A 
ATOM     32  C   UNL     1       5.938 -34.666  11.520  0.00  0.00    +0.024 A 
ATOM     33  C   UNL     1       6.494 -33.398  11.923  0.00  0.00    +0.007 A 
ATOM     34  C   UNL     1       6.352 -32.238  11.089  0.00  0.00    -0.029 A 
ATOM     35  C   UNL     1       6.973 -30.906  11.568  0.00  0.00    +0.045 C 
ENDROOT
BRANCH  10   9
ATOM      4  C   UNL     1       2.865 -29.155   7.583  0.00  0.00    +0.077 A 
ATOM      5  C   UNL     1       1.664 -29.711   8.137  0.00  0.00    +0.048 A 
ATOM      6  C   UNL     1       1.799 -30.830   8.988  0.00  0.00    +0.116 A 
ATOM      7  N   UNL     1       3.047 -31.348   9.257  0.00  0.00    -0.223 NA
ATOM      8  C   UNL     1       4.185 -30.789   8.705  0.00  0.00    +0.220 A 
ATOM      9  N   UNL     1       5.452 -31.288   8.969  0.00  0.00    -0.283 N 
ATOM     36  H   UNL     1       6.266 -30.852   8.536  0.00  0.00    +0.155 HD
ATOM     37  N   UNL     1       4.083 -29.720   7.888  0.00  0.00    -0.214 NA
BRANCH   4   3
ATOM      1  C   UNL     1       3.319 -25.533   6.176  0.00  0.00    +0.020 A 
ATOM      2  C   UNL     1       3.317 -26.645   7.099  0.00  0.00    +0.013 A 
ATOM      3  C   UNL     1       2.886 -27.969   6.669  0.00  0.00    +0.019 A 
ATOM     38  C   UNL     1       2.459 -28.136   5.288  0.00  0.00    +0.120 A 
ATOM     39  N   UNL     1       2.470 -27.047   4.422  0.00  0.00    -0.263 NA
ATOM     40  C   UNL     1       2.882 -25.767   4.825  0.00  0.00    +0.111 A 
ENDBRANCH   4   3
ENDBRANCH  10   9
BRANCH  12  13
ATOM     13  N   UNL     1       4.716 -36.110   9.949  0.00  0.00    -0.281 N 
ATOM     14  C   UNL     1       5.422 -37.289   9.774  0.00  0.00    +0.248 C 
ATOM     30  O   UNL     1       6.638 -37.358   9.672  0.00  0.00    -0.270 OA
ATOM     31  H   UNL     1       3.705 -36.169   9.823  0.00  0.00    +0.155 HD
BRANCH  14  15
ATOM     15  C   UNL     1       4.667 -38.576   9.684  0.00  0.00    +0.037 A 
ATOM     16  C   UNL     1       4.196 -39.266  10.888  0.00  0.00    +0.013 A 
ATOM     17  C   UNL     1       3.485 -40.515  10.774  0.00  0.00    +0.005 A 
ATOM     18  C   UNL     1       3.239 -41.081   9.450  0.00  0.00    -0.033 A 
ATOM     28  C   UNL     1       3.713 -40.373   8.272  0.00  0.00    +0.005 A 
ATOM     29  C   UNL     1       4.411 -39.149   8.380  0.00  0.00    +0.013 A 
BRANCH  18  19
ATOM     19  C   UNL     1       2.507 -42.419   9.235  0.00  0.00    +0.119 C 
BRANCH  19  20
ATOM     20  N   UNL     1       1.196 -42.374   8.523  0.00  0.00    -0.302 NA
ATOM     21  C   UNL     1       0.198 -43.387   9.093  0.00  0.00    +0.066 C 
ATOM     22  C   UNL     1      -1.176 -43.311   8.351  0.00  0.00    -0.064 C 
ATOM     23  N   UNL     1      -0.959 -43.547   6.855  0.00  0.00    +0.379 N 
ATOM     24  C   UNL     1      -2.256 -43.534   6.163  0.00  0.00    -0.096 C 
ATOM     25  H   UNL     1      -0.521 -44.565   6.734  0.00  0.00    -0.082 HD
ATOM     26  C   UNL     1       0.034 -42.546   6.281  0.00  0.00    -0.064 C 
ATOM     27  C   UNL     1       1.386 -42.609   7.045  0.00  0.00    +0.066 C 
ENDBRANCH  19  20
ENDBRANCH  18  19
ENDBRANCH  14  15
ENDBRANCH  12  13
TORSDOF 6
ENDMDL
