MODEL 1
REMARK VINA RESULT:      -7.8      0.000      0.000
REMARK  Name = C:\Users\Docking\Desktop\test protocol\1iep_ligandH.pdb
REMARK  8 active torsions:
REMARK  status: ('A' for Active; 'I' for Inactive)
REMARK    1  A    between atoms: _5  and  _11
REMARK    2  A    between atoms: _19  and  _21
REMARK    3  A    between atoms: _22  and  _66
REMARK    4  A    between atoms: _27  and  _30
REMARK    5  A    between atoms: _32  and  _33
REMARK    6  A    between atoms: _38  and  _43
REMARK    7  A    between atoms: _43  and  _46
REMARK    8  A    between atoms: _53  and  _55
REMARK                            x       y       z     vdW  Elec       q    Type
REMARK                         _______ _______ _______ _____ _____    ______ ____
ROOT
ATOM     10  C   UNL     1       7.747  34.806  46.632  0.00  0.00    +0.038 A 
ATOM     11  C   UNL     1       9.156  34.950  46.719  0.00  0.00    +0.047 A 
ATOM     12  C   UNL     1       9.762  35.843  47.693  0.00  0.00    +0.035 A 
ATOM     32  C   UNL     1       8.905  36.573  48.566  0.00  0.00    +0.024 A 
ATOM     33  C   UNL     1       7.471  36.440  48.491  0.00  0.00    +0.007 A 
ATOM     34  C   UNL     1       6.866  35.563  47.530  0.00  0.00    -0.029 A 
ATOM     35  C   UNL     1       5.324  35.464  47.491  0.00  0.00    +0.045 C 
ENDROOT
BRANCH  10   9
ATOM      4  C   UNL     1       6.310  33.785  42.168  0.00  0.00    +0.077 A 
ATOM      5  C   UNL     1       6.614  35.108  41.704  0.00  0.00    +0.048 A 
ATOM      6  C   UNL     1       7.131  36.023  42.647  0.00  0.00    +0.116 A 
ATOM      7  N   UNL     1       7.327  35.634  43.955  0.00  0.00    -0.223 NA
ATOM      8  C   UNL     1       7.022  34.350  44.370  0.00  0.00    +0.220 A 
ATOM      9  N   UNL     1       7.218  33.935  45.678  0.00  0.00    -0.283 N 
ATOM     36  H   UNL     1       6.974  32.982  45.946  0.00  0.00    +0.155 HD
ATOM     37  N   UNL     1       6.525  33.458  43.488  0.00  0.00    -0.214 NA
BRANCH   4   3
ATOM      1  C   UNL     1       5.557  31.504  39.080  0.00  0.00    +0.020 A 
ATOM      2  C   UNL     1       6.117  32.567  39.884  0.00  0.00    +0.013 A 
ATOM      3  C   UNL     1       5.760  32.703  41.290  0.00  0.00    +0.019 A 
ATOM     38  C   UNL     1       4.828  31.741  41.858  0.00  0.00    +0.120 A 
ATOM     39  N   UNL     1       4.305  30.729  41.059  0.00  0.00    -0.263 NA
ATOM     40  C   UNL     1       4.639  30.588  39.704  0.00  0.00    +0.111 A 
ENDBRANCH   4   3
ENDBRANCH  10   9
BRANCH  12  13
ATOM     13  N   UNL     1      11.186  36.036  47.822  0.00  0.00    -0.281 N 
ATOM     14  C   UNL     1      11.994  35.714  48.900  0.00  0.00    +0.248 C 
ATOM     30  O   UNL     1      11.580  35.406  50.007  0.00  0.00    -0.270 OA
ATOM     31  H   UNL     1      11.654  36.461  47.022  0.00  0.00    +0.155 HD
BRANCH  14  15
ATOM     15  C   UNL     1      13.478  35.756  48.727  0.00  0.00    +0.037 A 
ATOM     16  C   UNL     1      14.102  35.440  47.439  0.00  0.00    +0.013 A 
ATOM     17  C   UNL     1      15.537  35.471  47.304  0.00  0.00    +0.005 A 
ATOM     18  C   UNL     1      16.358  35.820  48.461  0.00  0.00    -0.033 A 
ATOM     28  C   UNL     1      15.713  36.134  49.725  0.00  0.00    +0.005 A 
ATOM     29  C   UNL     1      14.307  36.104  49.861  0.00  0.00    +0.013 A 
BRANCH  18  19
ATOM     19  C   UNL     1      17.897  35.857  48.414  0.00  0.00    +0.119 C 
BRANCH  19  20
ATOM     20  N   UNL     1      18.620  34.575  48.664  0.00  0.00    -0.302 NA
ATOM     21  C   UNL     1      19.439  34.620  49.957  0.00  0.00    +0.066 C 
ATOM     22  C   UNL     1      20.171  33.263  50.216  0.00  0.00    -0.064 C 
ATOM     23  N   UNL     1      21.065  32.933  49.019  0.00  0.00    +0.379 N 
ATOM     24  C   UNL     1      21.799  31.687  49.284  0.00  0.00    -0.096 C 
ATOM     25  H   UNL     1      21.814  33.753  48.922  0.00  0.00    -0.082 HD
ATOM     26  C   UNL     1      20.259  32.889  47.729  0.00  0.00    -0.064 C 
ATOM     27  C   UNL     1      19.512  34.232  47.497  0.00  0.00    +0.066 C 
ENDBRANCH  19  20
ENDBRANCH  18  19
ENDBRANCH  14  15
ENDBRANCH  12  13
TORSDOF 6
ENDMDL
MODEL 2
REMARK VINA RESULT:      -7.7      1.809     12.764
REMARK  Name = C:\Users\Docking\Desktop\test protocol\1iep_ligandH.pdb
REMARK  8 active torsions:
REMARK  status: ('A' for Active; 'I' for Inactive)
REMARK    1  A    between atoms: _5  and  _11
REMARK    2  A    between atoms: _19  and  _21
REMARK    3  A    between atoms: _22  and  _66
REMARK    4  A    between atoms: _27  and  _30
REMARK    5  A    between atoms: _32  and  _33
REMARK    6  A    between atoms: _38  and  _43
REMARK    7  A    between atoms: _43  and  _46
REMARK    8  A    between atoms: _53  and  _55
REMARK                            x       y       z     vdW  Elec       q    Type
REMARK                         _______ _______ _______ _____ _____    ______ ____
ROOT
ATOM     10  C   UNL     1      15.426  36.881  48.521  0.00  0.00    +0.038 A 
ATOM     11  C   UNL     1      14.249  36.323  47.959  0.00  0.00    +0.047 A 
ATOM     12  C   UNL     1      13.322  37.139  47.191  0.00  0.00    +0.035 A 
ATOM     32  C   UNL     1      13.626  38.520  47.012  0.00  0.00    +0.024 A 
ATOM     33  C   UNL     1      14.817  39.104  47.577  0.00  0.00    +0.007 A 
ATOM     34  C   UNL     1      15.734  38.304  48.338  0.00  0.00    -0.029 A 
ATOM     35  C   UNL     1      16.993  38.984  48.926  0.00  0.00    +0.045 C 
ENDROOT
BRANCH  10   9
ATOM      4  C   UNL     1      19.268  34.025  48.873  0.00  0.00    +0.077 A 
ATOM      5  C   UNL     1      19.583  34.179  47.482  0.00  0.00    +0.048 A 
ATOM      6  C   UNL     1      18.727  34.995  46.709  0.00  0.00    +0.116 A 
ATOM      7  N   UNL     1      17.640  35.608  47.294  0.00  0.00    -0.223 NA
ATOM      8  C   UNL     1      17.364  35.438  48.638  0.00  0.00    +0.220 A 
ATOM      9  N   UNL     1      16.281  36.050  49.249  0.00  0.00    -0.283 N 
ATOM     36  H   UNL     1      16.107  35.894  50.242  0.00  0.00    +0.155 HD
ATOM     37  N   UNL     1      18.165  34.662  49.398  0.00  0.00    -0.214 NA
BRANCH   4   3
ATOM      1  C   UNL     1      20.613  32.312  52.122  0.00  0.00    +0.020 A 
ATOM      2  C   UNL     1      19.800  33.128  51.250  0.00  0.00    +0.013 A 
ATOM      3  C   UNL     1      20.079  33.197  49.821  0.00  0.00    +0.019 A 
ATOM     38  C   UNL     1      21.196  32.423  49.302  0.00  0.00    +0.120 A 
ATOM     39  N   UNL     1      21.963  31.648  50.166  0.00  0.00    -0.263 NA
ATOM     40  C   UNL     1      21.705  31.575  51.543  0.00  0.00    +0.111 A 
ENDBRANCH   4   3
ENDBRANCH  10   9
BRANCH  12  13
ATOM     13  N   UNL     1      12.107  36.630  46.604  0.00  0.00    -0.281 N 
ATOM     14  C   UNL     1      10.861  36.508  47.196  0.00  0.00    +0.248 C 
ATOM     30  O   UNL     1      10.652  36.620  48.395  0.00  0.00    -0.270 OA
ATOM     31  H   UNL     1      12.175  36.323  45.633  0.00  0.00    +0.155 HD
BRANCH  14  15
ATOM     15  C   UNL     1       9.679  36.203  46.334  0.00  0.00    +0.037 A 
ATOM     16  C   UNL     1       9.281  37.099  45.245  0.00  0.00    +0.013 A 
ATOM     17  C   UNL     1       8.126  36.789  44.439  0.00  0.00    +0.005 A 
ATOM     18  C   UNL     1       7.362  35.576  44.720  0.00  0.00    -0.033 A 
ATOM     28  C   UNL     1       7.782  34.703  45.803  0.00  0.00    +0.005 A 
ATOM     29  C   UNL     1       8.912  35.003  46.595  0.00  0.00    +0.013 A 
BRANCH  18  19
ATOM     19  C   UNL     1       6.104  35.178  43.925  0.00  0.00    +0.119 C 
BRANCH  19  20
ATOM     20  N   UNL     1       6.264  34.136  42.868  0.00  0.00    -0.302 NA
ATOM     21  C   UNL     1       6.868  34.710  41.583  0.00  0.00    +0.066 C 
ATOM     22  C   UNL     1       7.049  33.601  40.495  0.00  0.00    -0.064 C 
ATOM     23  N   UNL     1       5.698  32.942  40.212  0.00  0.00    +0.379 N 
ATOM     24  C   UNL     1       5.855  31.939  39.148  0.00  0.00    -0.096 C 
ATOM     25  H   UNL     1       5.010  33.733  39.833  0.00  0.00    -0.082 HD
ATOM     26  C   UNL     1       5.090  32.371  41.485  0.00  0.00    -0.064 C 
ATOM     27  C   UNL     1       4.941  33.475  42.569  0.00  0.00    +0.066 C 
ENDBRANCH  19  20
ENDBRANCH  18  19
ENDBRANCH  14  15
ENDBRANCH  12  13
TORSDOF 6
ENDMDL
MODEL 3
REMARK VINA RESULT:      -7.6      3.182      6.062
REMARK  Name = C:\Users\Docking\Desktop\test protocol\1iep_ligandH.pdb
REMARK  8 active torsions:
REMARK  status: ('A' for Active; 'I' for Inactive)
REMARK    1  A    between atoms: _5  and  _11
REMARK    2  A    between atoms: _19  and  _21
REMARK    3  A    between atoms: _22  and  _66
REMARK    4  A    between atoms: _27  and  _30
REMARK    5  A    between atoms: _32  and  _33
REMARK    6  A    between atoms: _38  and  _43
REMARK    7  A    between atoms: _43  and  _46
REMARK    8  A    between atoms: _53  and  _55
REMARK                            x       y       z     vdW  Elec       q    Type
REMARK                         _______ _______ _______ _____ _____    ______ ____
ROOT
ATOM     10  C   UNL     1      13.024  36.597  46.730  0.00  0.00    +0.038 A 
ATOM     11  C   UNL     1      14.024  35.665  47.108  0.00  0.00    +0.047 A 
ATOM     12  C   UNL     1      15.345  36.107  47.527  0.00  0.00    +0.035 A 
ATOM     32  C   UNL     1      15.613  37.507  47.552  0.00  0.00    +0.024 A 
ATOM     33  C   UNL     1      14.609  38.468  47.170  0.00  0.00    +0.007 A 
ATOM     34  C   UNL     1      13.305  38.038  46.754  0.00  0.00    -0.029 A 
ATOM     35  C   UNL     1      12.269  39.113  46.350  0.00  0.00    +0.045 C 
ENDROOT
BRANCH  10   9
ATOM      4  C   UNL     1       8.453  35.453  47.640  0.00  0.00    +0.077 A 
ATOM      5  C   UNL     1       8.575  35.816  49.022  0.00  0.00    +0.048 A 
ATOM      6  C   UNL     1       9.833  36.286  49.461  0.00  0.00    +0.116 A 
ATOM      7  N   UNL     1      10.884  36.382  48.574  0.00  0.00    -0.223 NA
ATOM      8  C   UNL     1      10.732  36.022  47.248  0.00  0.00    +0.220 A 
ATOM      9  N   UNL     1      11.773  36.118  46.337  0.00  0.00    -0.283 N 
ATOM     36  H   UNL     1      11.623  35.835  45.369  0.00  0.00    +0.155 HD
ATOM     37  N   UNL     1       9.541  35.569  46.804  0.00  0.00    -0.214 NA
BRANCH   4   3
ATOM      1  C   UNL     1       4.673  34.849  46.834  0.00  0.00    +0.020 A 
ATOM      2  C   UNL     1       5.864  35.372  47.462  0.00  0.00    +0.013 A 
ATOM      3  C   UNL     1       7.187  34.943  47.025  0.00  0.00    +0.019 A 
ATOM     38  C   UNL     1       7.269  33.975  45.941  0.00  0.00    +0.120 A 
ATOM     39  N   UNL     1       6.105  33.487  45.356  0.00  0.00    -0.263 NA
ATOM     40  C   UNL     1       4.827  33.892  45.770  0.00  0.00    +0.111 A 
ENDBRANCH   4   3
ENDBRANCH  10   9
BRANCH  12  13
ATOM     13  N   UNL     1      16.403  35.206  47.913  0.00  0.00    -0.281 N 
ATOM     14  C   UNL     1      17.680  35.115  47.384  0.00  0.00    +0.248 C 
ATOM     30  O   UNL     1      18.039  35.654  46.348  0.00  0.00    -0.270 OA
ATOM     31  H   UNL     1      16.184  34.557  48.669  0.00  0.00    +0.155 HD
BRANCH  14  15
ATOM     15  C   UNL     1      18.703  34.296  48.103  0.00  0.00    +0.037 A 
ATOM     16  C   UNL     1      18.920  34.445  49.544  0.00  0.00    +0.013 A 
ATOM     17  C   UNL     1      19.925  33.654  50.210  0.00  0.00    +0.005 A 
ATOM     18  C   UNL     1      20.719  32.705  49.433  0.00  0.00    -0.033 A 
ATOM     28  C   UNL     1      20.480  32.574  48.006  0.00  0.00    +0.005 A 
ATOM     29  C   UNL     1      19.496  33.348  47.350  0.00  0.00    +0.013 A 
BRANCH  18  19
ATOM     19  C   UNL     1      21.827  31.835  50.057  0.00  0.00    +0.119 C 
BRANCH  19  20
ATOM     20  N   UNL     1      23.234  32.319  49.922  0.00  0.00    -0.302 NA
ATOM     21  C   UNL     1      23.439  33.682  50.589  0.00  0.00    +0.066 C 
ATOM     22  C   UNL     1      24.921  34.163  50.458  0.00  0.00    -0.064 C 
ATOM     23  N   UNL     1      25.306  34.221  48.979  0.00  0.00    +0.379 N 
ATOM     24  C   UNL     1      26.680  34.728  48.849  0.00  0.00    -0.096 C 
ATOM     25  H   UNL     1      24.627  34.952  48.481  0.00  0.00    -0.082 HD
ATOM     26  C   UNL     1      25.103  32.870  48.307  0.00  0.00    -0.064 C 
ATOM     27  C   UNL     1      23.634  32.388  48.468  0.00  0.00    +0.066 C 
ENDBRANCH  19  20
ENDBRANCH  18  19
ENDBRANCH  14  15
ENDBRANCH  12  13
TORSDOF 6
ENDMDL
MODEL 4
REMARK VINA RESULT:      -7.5      4.429      8.683
REMARK  Name = C:\Users\Docking\Desktop\test protocol\1iep_ligandH.pdb
REMARK  8 active torsions:
REMARK  status: ('A' for Active; 'I' for Inactive)
REMARK    1  A    between atoms: _5  and  _11
REMARK    2  A    between atoms: _19  and  _21
REMARK    3  A    between atoms: _22  and  _66
REMARK    4  A    between atoms: _27  and  _30
REMARK    5  A    between atoms: _32  and  _33
REMARK    6  A    between atoms: _38  and  _43
REMARK    7  A    between atoms: _43  and  _46
REMARK    8  A    between atoms: _53  and  _55
REMARK                            x       y       z     vdW  Elec       q    Type
REMARK                         _______ _______ _______ _____ _____    ______ ____
ROOT
ATOM     10  C   UNL     1      16.386  36.278  47.069  0.00  0.00    +0.038 A 
ATOM     11  C   UNL     1      16.760  35.328  48.053  0.00  0.00    +0.047 A 
ATOM     12  C   UNL     1      18.064  35.382  48.695  0.00  0.00    +0.035 A 
ATOM     32  C   UNL     1      18.963  36.419  48.311  0.00  0.00    +0.024 A 
ATOM     33  C   UNL     1      18.601  37.393  47.311  0.00  0.00    +0.007 A 
ATOM     34  C   UNL     1      17.316  37.343  46.673  0.00  0.00    -0.029 A 
ATOM     35  C   UNL     1      16.983  38.409  45.603  0.00  0.00    +0.045 C 
ENDROOT
BRANCH  10   9
ATOM      4  C   UNL     1      11.661  37.121  47.040  0.00  0.00    +0.077 A 
ATOM      5  C   UNL     1      11.713  37.791  48.307  0.00  0.00    +0.048 A 
ATOM      6  C   UNL     1      12.974  37.891  48.937  0.00  0.00    +0.116 A 
ATOM      7  N   UNL     1      14.093  37.358  48.335  0.00  0.00    -0.223 NA
ATOM      8  C   UNL     1      14.008  36.716  47.113  0.00  0.00    +0.220 A 
ATOM      9  N   UNL     1      15.121  36.179  46.485  0.00  0.00    -0.283 N 
ATOM     36  H   UNL     1      15.015  35.707  45.588  0.00  0.00    +0.155 HD
ATOM     37  N   UNL     1      12.815  36.606  46.492  0.00  0.00    -0.214 NA
BRANCH   4   3
ATOM      1  C   UNL     1       8.665  37.723  44.599  0.00  0.00    +0.020 A 
ATOM      2  C   UNL     1       9.884  37.950  45.339  0.00  0.00    +0.013 A 
ATOM      3  C   UNL     1      10.403  36.937  46.250  0.00  0.00    +0.019 A 
ATOM     38  C   UNL     1       9.658  35.695  46.388  0.00  0.00    +0.120 A 
ATOM     39  N   UNL     1       8.486  35.505  45.663  0.00  0.00    -0.263 NA
ATOM     40  C   UNL     1       7.976  36.473  44.786  0.00  0.00    +0.111 A 
ENDBRANCH   4   3
ENDBRANCH  10   9
BRANCH  12  13
ATOM     13  N   UNL     1      18.501  34.440  49.695  0.00  0.00    -0.281 N 
ATOM     14  C   UNL     1      19.660  33.681  49.701  0.00  0.00    +0.248 C 
ATOM     30  O   UNL     1      20.398  33.538  48.737  0.00  0.00    -0.270 OA
ATOM     31  H   UNL     1      17.882  34.318  50.496  0.00  0.00    +0.155 HD
BRANCH  14  15
ATOM     15  C   UNL     1      20.048  32.965  50.954  0.00  0.00    +0.037 A 
ATOM     16  C   UNL     1      21.118  31.964  50.958  0.00  0.00    +0.013 A 
ATOM     17  C   UNL     1      21.461  31.276  52.177  0.00  0.00    +0.005 A 
ATOM     18  C   UNL     1      20.733  31.589  53.405  0.00  0.00    -0.033 A 
ATOM     28  C   UNL     1      19.680  32.590  53.374  0.00  0.00    +0.005 A 
ATOM     29  C   UNL     1      19.340  33.266  52.180  0.00  0.00    +0.013 A 
BRANCH  18  19
ATOM     19  C   UNL     1      21.017  30.889  54.747  0.00  0.00    +0.119 C 
BRANCH  19  20
ATOM     20  N   UNL     1      19.854  30.642  55.650  0.00  0.00    -0.302 NA
ATOM     21  C   UNL     1      20.295  30.262  57.065  0.00  0.00    +0.066 C 
ATOM     22  C   UNL     1      19.065  30.029  58.002  0.00  0.00    -0.064 C 
ATOM     23  N   UNL     1      18.170  28.943  57.403  0.00  0.00    +0.379 N 
ATOM     24  C   UNL     1      17.043  28.681  58.311  0.00  0.00    -0.096 C 
ATOM     25  H   UNL     1      18.773  28.008  57.334  0.00  0.00    -0.082 HD
ATOM     26  C   UNL     1      17.728  29.312  55.994  0.00  0.00    -0.064 C 
ATOM     27  C   UNL     1      18.958  29.570  55.080  0.00  0.00    +0.066 C 
ENDBRANCH  19  20
ENDBRANCH  18  19
ENDBRANCH  14  15
ENDBRANCH  12  13
TORSDOF 6
ENDMDL
MODEL 5
REMARK VINA RESULT:      -7.5      4.642      9.185
REMARK  Name = C:\Users\Docking\Desktop\test protocol\1iep_ligandH.pdb
REMARK  8 active torsions:
REMARK  status: ('A' for Active; 'I' for Inactive)
REMARK    1  A    between atoms: _5  and  _11
REMARK    2  A    between atoms: _19  and  _21
REMARK    3  A    between atoms: _22  and  _66
REMARK    4  A    between atoms: _27  and  _30
REMARK    5  A    between atoms: _32  and  _33
REMARK    6  A    between atoms: _38  and  _43
REMARK    7  A    between atoms: _43  and  _46
REMARK    8  A    between atoms: _53  and  _55
REMARK                            x       y       z     vdW  Elec       q    Type
REMARK                         _______ _______ _______ _____ _____    ______ ____
ROOT
ATOM     10  C   UNL     1      17.056  35.646  47.338  0.00  0.00    +0.038 A 
ATOM     11  C   UNL     1      17.507  34.769  48.358  0.00  0.00    +0.047 A 
ATOM     12  C   UNL     1      18.861  34.858  48.882  0.00  0.00    +0.035 A 
ATOM     32  C   UNL     1      19.729  35.853  48.347  0.00  0.00    +0.024 A 
ATOM     33  C   UNL     1      19.287  36.752  47.309  0.00  0.00    +0.007 A 
ATOM     34  C   UNL     1      17.954  36.668  46.787  0.00  0.00    -0.029 A 
ATOM     35  C   UNL     1      17.537  37.653  45.670  0.00  0.00    +0.045 C 
ENDROOT
BRANCH  10   9
ATOM      4  C   UNL     1      12.398  36.802  47.427  0.00  0.00    +0.077 A 
ATOM      5  C   UNL     1      12.586  37.721  48.512  0.00  0.00    +0.048 A 
ATOM      6  C   UNL     1      13.896  37.862  49.024  0.00  0.00    +0.116 A 
ATOM      7  N   UNL     1      14.932  37.133  48.482  0.00  0.00    -0.223 NA
ATOM      8  C   UNL     1      14.716  36.254  47.437  0.00  0.00    +0.220 A 
ATOM      9  N   UNL     1      15.746  35.517  46.872  0.00  0.00    -0.283 N 
ATOM     36  H   UNL     1      15.544  34.873  46.107  0.00  0.00    +0.155 HD
ATOM     37  N   UNL     1      13.475  36.100  46.932  0.00  0.00    -0.214 NA
BRANCH   4   3
ATOM      1  C   UNL     1       9.120  37.232  45.337  0.00  0.00    +0.020 A 
ATOM      2  C   UNL     1      10.398  37.530  45.942  0.00  0.00    +0.013 A 
ATOM      3  C   UNL     1      11.074  36.545  46.777  0.00  0.00    +0.019 A 
ATOM     38  C   UNL     1      10.426  35.259  46.981  0.00  0.00    +0.120 A 
ATOM     39  N   UNL     1       9.195  35.001  46.387  0.00  0.00    -0.263 NA
ATOM     40  C   UNL     1       8.534  35.941  45.582  0.00  0.00    +0.111 A 
ENDBRANCH   4   3
ENDBRANCH  10   9
BRANCH  12  13
ATOM     13  N   UNL     1      19.377  33.989  49.911  0.00  0.00    -0.281 N 
ATOM     14  C   UNL     1      19.140  34.050  51.275  0.00  0.00    +0.248 C 
ATOM     30  O   UNL     1      18.615  34.996  51.843  0.00  0.00    -0.270 OA
ATOM     31  H   UNL     1      19.991  33.238  49.596  0.00  0.00    +0.155 HD
BRANCH  14  15
ATOM     15  C   UNL     1      19.559  32.900  52.133  0.00  0.00    +0.037 A 
ATOM     16  C   UNL     1      20.661  32.019  51.737  0.00  0.00    +0.013 A 
ATOM     17  C   UNL     1      21.034  30.907  52.574  0.00  0.00    +0.005 A 
ATOM     18  C   UNL     1      20.305  30.671  53.818  0.00  0.00    -0.033 A 
ATOM     28  C   UNL     1      19.220  31.564  54.189  0.00  0.00    +0.005 A 
ATOM     29  C   UNL     1      18.851  32.655  53.370  0.00  0.00    +0.013 A 
BRANCH  18  19
ATOM     19  C   UNL     1      20.621  29.496  54.763  0.00  0.00    +0.119 C 
BRANCH  19  20
ATOM     20  N   UNL     1      21.078  29.833  56.144  0.00  0.00    -0.302 NA
ATOM     21  C   UNL     1      22.197  30.878  56.140  0.00  0.00    +0.066 C 
ATOM     22  C   UNL     1      22.648  31.236  57.593  0.00  0.00    -0.064 C 
ATOM     23  N   UNL     1      23.098  29.963  58.312  0.00  0.00    +0.379 N 
ATOM     24  C   UNL     1      23.577  30.304  59.660  0.00  0.00    -0.096 C 
ATOM     25  H   UNL     1      23.959  29.541  57.744  0.00  0.00    -0.082 HD
ATOM     26  C   UNL     1      21.992  28.917  58.319  0.00  0.00    -0.064 C 
ATOM     27  C   UNL     1      21.531  28.591  56.871  0.00  0.00    +0.066 C 
ENDBRANCH  19  20
ENDBRANCH  18  19
ENDBRANCH  14  15
ENDBRANCH  12  13
TORSDOF 6
ENDMDL
