MODEL 1
REMARK VINA RESULT:     -11.6      0.000      0.000
REMARK  Name = C:\Users\Docking\Desktop\test protocol\1iep_ligandH.pdb
REMARK  8 active torsions:
REMARK  status: ('A' for Active; 'I' for Inactive)
REMARK    1  A    between atoms: _5  and  _11
REMARK    2  A    between atoms: _19  and  _21
REMARK    3  A    between atoms: _22  and  _66
REMARK    4  A    between atoms: _27  and  _30
REMARK    5  A    between atoms: _32  and  _33
REMARK    6  A    between atoms: _38  and  _43
REMARK    7  A    between atoms: _43  and  _46
REMARK    8  A    between atoms: _53  and  _55
REMARK                            x       y       z     vdW  Elec       q    Type
REMARK                         _______ _______ _______ _____ _____    ______ ____
ROOT
ATOM     10  C   UNL     1       3.066  -5.656   4.737  0.00  0.00    +0.038 A 
ATOM     11  C   UNL     1       2.989  -4.273   4.431  0.00  0.00    +0.047 A 
ATOM     12  C   UNL     1       1.816  -3.711   3.779  0.00  0.00    +0.035 A 
ATOM     32  C   UNL     1       0.739  -4.586   3.455  0.00  0.00    +0.024 A 
ATOM     33  C   UNL     1       0.801  -5.994   3.758  0.00  0.00    +0.007 A 
ATOM     34  C   UNL     1       1.956  -6.555   4.399  0.00  0.00    -0.029 A 
ATOM     35  C   UNL     1       1.971  -8.073   4.694  0.00  0.00    +0.045 C 
ENDROOT
BRANCH  10   9
ATOM      4  C   UNL     1       5.540  -6.922   8.650  0.00  0.00    +0.077 A 
ATOM      5  C   UNL     1       4.460  -6.559   9.523  0.00  0.00    +0.048 A 
ATOM      6  C   UNL     1       3.288  -6.044   8.925  0.00  0.00    +0.116 A 
ATOM      7  N   UNL     1       3.213  -5.906   7.556  0.00  0.00    -0.223 NA
ATOM      8  C   UNL     1       4.273  -6.264   6.743  0.00  0.00    +0.220 A 
ATOM      9  N   UNL     1       4.216  -6.142   5.364  0.00  0.00    -0.283 N 
ATOM     36  H   UNL     1       5.022  -6.410   4.800  0.00  0.00    +0.155 HD
ATOM     37  N   UNL     1       5.404  -6.757   7.290  0.00  0.00    -0.214 NA
BRANCH   4   3
ATOM      1  C   UNL     1       8.357  -8.388  10.933  0.00  0.00    +0.020 A 
ATOM      2  C   UNL     1       7.082  -7.849  10.521  0.00  0.00    +0.013 A 
ATOM      3  C   UNL     1       6.842  -7.483   9.131  0.00  0.00    +0.019 A 
ATOM     38  C   UNL     1       7.922  -7.677   8.175  0.00  0.00    +0.120 A 
ATOM     39  N   UNL     1       9.140  -8.197   8.601  0.00  0.00    -0.263 NA
ATOM     40  C   UNL     1       9.383  -8.551   9.937  0.00  0.00    +0.111 A 
ENDBRANCH   4   3
ENDBRANCH  10   9
BRANCH  12  13
ATOM     13  N   UNL     1       1.684  -2.317   3.436  0.00  0.00    -0.281 N 
ATOM     14  C   UNL     1       1.455  -1.248   4.288  0.00  0.00    +0.248 C 
ATOM     30  O   UNL     1       1.114  -1.357   5.456  0.00  0.00    -0.270 OA
ATOM     31  H   UNL     1       1.771  -2.089   2.446  0.00  0.00    +0.155 HD
BRANCH  14  15
ATOM     15  C   UNL     1       1.613   0.142   3.762  0.00  0.00    +0.037 A 
ATOM     16  C   UNL     1       2.259   0.397   2.472  0.00  0.00    +0.013 A 
ATOM     17  C   UNL     1       2.415   1.748   1.995  0.00  0.00    +0.005 A 
ATOM     18  C   UNL     1       1.921   2.856   2.810  0.00  0.00    -0.033 A 
ATOM     28  C   UNL     1       1.280   2.574   4.084  0.00  0.00    +0.005 A 
ATOM     29  C   UNL     1       1.127   1.251   4.554  0.00  0.00    +0.013 A 
BRANCH  18  19
ATOM     19  C   UNL     1       2.063   4.331   2.391  0.00  0.00    +0.119 C 
BRANCH  19  20
ATOM     20  N   UNL     1       3.256   5.074   2.896  0.00  0.00    -0.302 NA
ATOM     21  C   UNL     1       3.097   5.489   4.361  0.00  0.00    +0.066 C 
ATOM     22  C   UNL     1       4.363   6.245   4.879  0.00  0.00    -0.064 C 
ATOM     23  N   UNL     1       4.622   7.466   3.995  0.00  0.00    +0.379 N 
ATOM     24  C   UNL     1       5.778   8.212   4.515  0.00  0.00    -0.096 C 
ATOM     25  H   UNL     1       3.730   8.131   4.068  0.00  0.00    -0.082 HD
ATOM     26  C   UNL     1       4.779   7.063   2.536  0.00  0.00    -0.064 C 
ATOM     27  C   UNL     1       3.528   6.286   2.040  0.00  0.00    +0.066 C 
ENDBRANCH  19  20
ENDBRANCH  18  19
ENDBRANCH  14  15
ENDBRANCH  12  13
TORSDOF 6
ENDMDL
MODEL 2
REMARK VINA RESULT:     -11.2      1.890      2.111
REMARK  Name = C:\Users\Docking\Desktop\test protocol\1iep_ligandH.pdb
REMARK  8 active torsions:
REMARK  status: ('A' for Active; 'I' for Inactive)
REMARK    1  A    between atoms: _5  and  _11
REMARK    2  A    between atoms: _19  and  _21
REMARK    3  A    between atoms: _22  and  _66
REMARK    4  A    between atoms: _27  and  _30
REMARK    5  A    between atoms: _32  and  _33
REMARK    6  A    between atoms: _38  and  _43
REMARK    7  A    between atoms: _43  and  _46
REMARK    8  A    between atoms: _53  and  _55
REMARK                            x       y       z     vdW  Elec       q    Type
REMARK                         _______ _______ _______ _____ _____    ______ ____
ROOT
ATOM     10  C   UNL     1       3.062  -5.938   5.236  0.00  0.00    +0.038 A 
ATOM     11  C   UNL     1       2.843  -4.545   5.092  0.00  0.00    +0.047 A 
ATOM     12  C   UNL     1       1.575  -4.029   4.599  0.00  0.00    +0.035 A 
ATOM     32  C   UNL     1       0.551  -4.963   4.264  0.00  0.00    +0.024 A 
ATOM     33  C   UNL     1       0.757  -6.383   4.403  0.00  0.00    +0.007 A 
ATOM     34  C   UNL     1       2.007  -6.897   4.887  0.00  0.00    -0.029 A 
ATOM     35  C   UNL     1       2.174  -8.429   5.010  0.00  0.00    +0.045 C 
ENDROOT
BRANCH  10   9
ATOM      4  C   UNL     1       6.034  -7.140   8.809  0.00  0.00    +0.077 A 
ATOM      5  C   UNL     1       5.049  -6.841   9.808  0.00  0.00    +0.048 A 
ATOM      6  C   UNL     1       3.793  -6.374   9.361  0.00  0.00    +0.116 A 
ATOM      7  N   UNL     1       3.550  -6.221   8.013  0.00  0.00    -0.223 NA
ATOM      8  C   UNL     1       4.523  -6.516   7.076  0.00  0.00    +0.220 A 
ATOM      9  N   UNL     1       4.299  -6.378   5.715  0.00  0.00    -0.283 N 
ATOM     36  H   UNL     1       5.044  -6.599   5.056  0.00  0.00    +0.155 HD
ATOM     37  N   UNL     1       5.732  -6.963   7.477  0.00  0.00    -0.214 NA
BRANCH   4   3
ATOM      1  C   UNL     1       9.153  -8.537  10.711  0.00  0.00    +0.020 A 
ATOM      2  C   UNL     1       7.814  -8.056  10.461  0.00  0.00    +0.013 A 
ATOM      3  C   UNL     1       7.408  -7.645   9.123  0.00  0.00    +0.019 A 
ATOM     38  C   UNL     1       8.388  -7.735   8.051  0.00  0.00    +0.120 A 
ATOM     39  N   UNL     1       9.671  -8.201   8.322  0.00  0.00    -0.263 NA
ATOM     40  C   UNL     1      10.074  -8.598   9.606  0.00  0.00    +0.111 A 
ENDBRANCH   4   3
ENDBRANCH  10   9
BRANCH  12  13
ATOM     13  N   UNL     1       1.298  -2.625   4.424  0.00  0.00    -0.281 N 
ATOM     14  C   UNL     1       1.117  -1.934   3.237  0.00  0.00    +0.248 C 
ATOM     30  O   UNL     1       1.379  -2.381   2.130  0.00  0.00    -0.270 OA
ATOM     31  H   UNL     1       1.226  -2.074   5.279  0.00  0.00    +0.155 HD
BRANCH  14  15
ATOM     15  C   UNL     1       0.580  -0.540   3.288  0.00  0.00    +0.037 A 
ATOM     16  C   UNL     1      -0.509  -0.113   2.406  0.00  0.00    +0.013 A 
ATOM     17  C   UNL     1      -0.997   1.243   2.464  0.00  0.00    +0.005 A 
ATOM     18  C   UNL     1      -0.394   2.181   3.408  0.00  0.00    -0.033 A 
ATOM     28  C   UNL     1       0.682   1.729   4.274  0.00  0.00    +0.005 A 
ATOM     29  C   UNL     1       1.163   0.401   4.220  0.00  0.00    +0.013 A 
BRANCH  18  19
ATOM     19  C   UNL     1      -0.837   3.652   3.523  0.00  0.00    +0.119 C 
BRANCH  19  20
ATOM     20  N   UNL     1       0.190   4.698   3.239  0.00  0.00    -0.302 NA
ATOM     21  C   UNL     1      -0.350   6.112   3.477  0.00  0.00    +0.066 C 
ATOM     22  C   UNL     1       0.744   7.193   3.198  0.00  0.00    -0.064 C 
ATOM     23  N   UNL     1       1.252   7.042   1.763  0.00  0.00    +0.379 N 
ATOM     24  C   UNL     1       2.239   8.094   1.478  0.00  0.00    -0.096 C 
ATOM     25  H   UNL     1       0.385   7.197   1.079  0.00  0.00    -0.082 HD
ATOM     26  C   UNL     1       1.788   5.638   1.517  0.00  0.00    -0.064 C 
ATOM     27  C   UNL     1       0.702   4.570   1.826  0.00  0.00    +0.066 C 
ENDBRANCH  19  20
ENDBRANCH  18  19
ENDBRANCH  14  15
ENDBRANCH  12  13
TORSDOF 6
ENDMDL
MODEL 3
REMARK VINA RESULT:     -11.2      1.439      1.727
REMARK  Name = C:\Users\Docking\Desktop\test protocol\1iep_ligandH.pdb
REMARK  8 active torsions:
REMARK  status: ('A' for Active; 'I' for Inactive)
REMARK    1  A    between atoms: _5  and  _11
REMARK    2  A    between atoms: _19  and  _21
REMARK    3  A    between atoms: _22  and  _66
REMARK    4  A    between atoms: _27  and  _30
REMARK    5  A    between atoms: _32  and  _33
REMARK    6  A    between atoms: _38  and  _43
REMARK    7  A    between atoms: _43  and  _46
REMARK    8  A    between atoms: _53  and  _55
REMARK                            x       y       z     vdW  Elec       q    Type
REMARK                         _______ _______ _______ _____ _____    ______ ____
ROOT
ATOM     10  C   UNL     1       2.858  -5.479   4.709  0.00  0.00    +0.038 A 
ATOM     11  C   UNL     1       2.817  -4.113   4.331  0.00  0.00    +0.047 A 
ATOM     12  C   UNL     1       1.636  -3.541   3.702  0.00  0.00    +0.035 A 
ATOM     32  C   UNL     1       0.514  -4.390   3.474  0.00  0.00    +0.024 A 
ATOM     33  C   UNL     1       0.540  -5.782   3.851  0.00  0.00    +0.007 A 
ATOM     34  C   UNL     1       1.702  -6.352   4.469  0.00  0.00    -0.029 A 
ATOM     35  C   UNL     1       1.676  -7.852   4.846  0.00  0.00    +0.045 C 
ENDROOT
BRANCH  10   9
ATOM      4  C   UNL     1       5.389  -6.816   8.562  0.00  0.00    +0.077 A 
ATOM      5  C   UNL     1       4.322  -6.472   9.456  0.00  0.00    +0.048 A 
ATOM      6  C   UNL     1       3.141  -5.947   8.885  0.00  0.00    +0.116 A 
ATOM      7  N   UNL     1       3.045  -5.784   7.520  0.00  0.00    -0.223 NA
ATOM      8  C   UNL     1       4.094  -6.124   6.686  0.00  0.00    +0.220 A 
ATOM      9  N   UNL     1       4.017  -5.976   5.309  0.00  0.00    -0.283 N 
ATOM     36  H   UNL     1       4.816  -6.231   4.729  0.00  0.00    +0.155 HD
ATOM     37  N   UNL     1       5.233  -6.626   7.207  0.00  0.00    -0.214 NA
BRANCH   4   3
ATOM      1  C   UNL     1       8.222  -8.376  10.763  0.00  0.00    +0.020 A 
ATOM      2  C   UNL     1       6.939  -7.834  10.378  0.00  0.00    +0.013 A 
ATOM      3  C   UNL     1       6.699  -7.384   9.013  0.00  0.00    +0.019 A 
ATOM     38  C   UNL     1       7.786  -7.499   8.053  0.00  0.00    +0.120 A 
ATOM     39  N   UNL     1       9.011  -8.024   8.452  0.00  0.00    -0.263 NA
ATOM     40  C   UNL     1       9.254  -8.458   9.764  0.00  0.00    +0.111 A 
ENDBRANCH   4   3
ENDBRANCH  10   9
BRANCH  12  13
ATOM     13  N   UNL     1       1.539  -2.163   3.290  0.00  0.00    -0.281 N 
ATOM     14  C   UNL     1       1.417  -1.041   4.093  0.00  0.00    +0.248 C 
ATOM     30  O   UNL     1       1.158  -1.070   5.287  0.00  0.00    -0.270 OA
ATOM     31  H   UNL     1       1.563  -1.994   2.284  0.00  0.00    +0.155 HD
BRANCH  14  15
ATOM     15  C   UNL     1       1.596   0.310   3.478  0.00  0.00    +0.037 A 
ATOM     16  C   UNL     1       1.977   0.460   2.071  0.00  0.00    +0.013 A 
ATOM     17  C   UNL     1       2.159   1.774   1.508  0.00  0.00    +0.005 A 
ATOM     18  C   UNL     1       1.959   2.950   2.352  0.00  0.00    -0.033 A 
ATOM     28  C   UNL     1       1.577   2.772   3.743  0.00  0.00    +0.005 A 
ATOM     29  C   UNL     1       1.398   1.485   4.299  0.00  0.00    +0.013 A 
BRANCH  18  19
ATOM     19  C   UNL     1       2.152   4.389   1.841  0.00  0.00    +0.119 C 
BRANCH  19  20
ATOM     20  N   UNL     1       1.620   5.495   2.692  0.00  0.00    -0.302 NA
ATOM     21  C   UNL     1       0.147   5.790   2.395  0.00  0.00    +0.066 C 
ATOM     22  C   UNL     1      -0.401   6.933   3.310  0.00  0.00    -0.064 C 
ATOM     23  N   UNL     1       0.452   8.188   3.118  0.00  0.00    +0.379 N 
ATOM     24  C   UNL     1      -0.095   9.282   3.933  0.00  0.00    -0.096 C 
ATOM     25  H   UNL     1       0.372   8.491   2.048  0.00  0.00    -0.082 HD
ATOM     26  C   UNL     1       1.919   7.903   3.409  0.00  0.00    -0.064 C 
ATOM     27  C   UNL     1       2.445   6.746   2.515  0.00  0.00    +0.066 C 
ENDBRANCH  19  20
ENDBRANCH  18  19
ENDBRANCH  14  15
ENDBRANCH  12  13
TORSDOF 6
ENDMDL
MODEL 4
REMARK VINA RESULT:     -10.9      2.132     12.294
REMARK  Name = C:\Users\Docking\Desktop\test protocol\1iep_ligandH.pdb
REMARK  8 active torsions:
REMARK  status: ('A' for Active; 'I' for Inactive)
REMARK    1  A    between atoms: _5  and  _11
REMARK    2  A    between atoms: _19  and  _21
REMARK    3  A    between atoms: _22  and  _66
REMARK    4  A    between atoms: _27  and  _30
REMARK    5  A    between atoms: _32  and  _33
REMARK    6  A    between atoms: _38  and  _43
REMARK    7  A    between atoms: _43  and  _46
REMARK    8  A    between atoms: _53  and  _55
REMARK                            x       y       z     vdW  Elec       q    Type
REMARK                         _______ _______ _______ _____ _____    ______ ____
ROOT
ATOM     10  C   UNL     1       1.009  -1.456   3.801  0.00  0.00    +0.038 A 
ATOM     11  C   UNL     1       1.761  -2.046   4.849  0.00  0.00    +0.047 A 
ATOM     12  C   UNL     1       2.200  -3.431   4.772  0.00  0.00    +0.035 A 
ATOM     32  C   UNL     1       1.857  -4.185   3.612  0.00  0.00    +0.024 A 
ATOM     33  C   UNL     1       1.092  -3.601   2.538  0.00  0.00    +0.007 A 
ATOM     34  C   UNL     1       0.655  -2.236   2.609  0.00  0.00    -0.029 A 
ATOM     35  C   UNL     1      -0.168  -1.664   1.432  0.00  0.00    +0.045 C 
ENDROOT
BRANCH  10   9
ATOM      4  C   UNL     1       1.584   3.229   2.932  0.00  0.00    +0.077 A 
ATOM      5  C   UNL     1       2.788   3.004   2.185  0.00  0.00    +0.048 A 
ATOM      6  C   UNL     1       3.229   1.668   2.055  0.00  0.00    +0.116 A 
ATOM      7  N   UNL     1       2.512   0.642   2.631  0.00  0.00    -0.223 NA
ATOM      8  C   UNL     1       1.355   0.895   3.346  0.00  0.00    +0.220 A 
ATOM      9  N   UNL     1       0.614  -0.122   3.928  0.00  0.00    -0.283 N 
ATOM     36  H   UNL     1      -0.230   0.106   4.453  0.00  0.00    +0.155 HD
ATOM     37  N   UNL     1       0.914   2.162   3.487  0.00  0.00    -0.214 NA
BRANCH   4   3
ATOM      1  C   UNL     1      -0.968   6.172   3.294  0.00  0.00    +0.020 A 
ATOM      2  C   UNL     1      -0.444   4.845   3.069  0.00  0.00    +0.013 A 
ATOM      3  C   UNL     1       0.988   4.585   3.155  0.00  0.00    +0.019 A 
ATOM     38  C   UNL     1       1.869   5.698   3.475  0.00  0.00    +0.120 A 
ATOM     39  N   UNL     1       1.336   6.966   3.685  0.00  0.00    -0.263 NA
ATOM     40  C   UNL     1      -0.040   7.229   3.603  0.00  0.00    +0.111 A 
ENDBRANCH   4   3
ENDBRANCH  10   9
BRANCH  12  13
ATOM     13  N   UNL     1       2.958  -4.087   5.808  0.00  0.00    -0.281 N 
ATOM     14  C   UNL     1       2.566  -5.146   6.610  0.00  0.00    +0.248 C 
ATOM     30  O   UNL     1       1.418  -5.553   6.704  0.00  0.00    -0.270 OA
ATOM     31  H   UNL     1       3.899  -3.727   5.969  0.00  0.00    +0.155 HD
BRANCH  14  15
ATOM     15  C   UNL     1       3.595  -5.844   7.439  0.00  0.00    +0.037 A 
ATOM     16  C   UNL     1       4.912  -6.180   6.891  0.00  0.00    +0.013 A 
ATOM     17  C   UNL     1       5.881  -6.869   7.707  0.00  0.00    +0.005 A 
ATOM     18  C   UNL     1       5.536  -7.225   9.081  0.00  0.00    -0.033 A 
ATOM     28  C   UNL     1       4.224  -6.876   9.600  0.00  0.00    +0.005 A 
ATOM     29  C   UNL     1       3.272  -6.202   8.804  0.00  0.00    +0.013 A 
BRANCH  18  19
ATOM     19  C   UNL     1       6.499  -7.980  10.016  0.00  0.00    +0.119 C 
BRANCH  19  20
ATOM     20  N   UNL     1       7.953  -7.942   9.675  0.00  0.00    -0.302 NA
ATOM     21  C   UNL     1       8.272  -8.773   8.429  0.00  0.00    +0.066 C 
ATOM     22  C   UNL     1       9.793  -8.704   8.074  0.00  0.00    -0.064 C 
ATOM     23  N   UNL     1      10.616  -9.184   9.271  0.00  0.00    +0.379 N 
ATOM     24  C   UNL     1      12.044  -9.175   8.920  0.00  0.00    -0.096 C 
ATOM     25  H   UNL     1      10.325 -10.240   9.480  0.00  0.00    -0.082 HD
ATOM     26  C   UNL     1      10.302  -8.365  10.515  0.00  0.00    -0.064 C 
ATOM     27  C   UNL     1       8.784  -8.416  10.842  0.00  0.00    +0.066 C 
ENDBRANCH  19  20
ENDBRANCH  18  19
ENDBRANCH  14  15
ENDBRANCH  12  13
TORSDOF 6
ENDMDL
MODEL 5
REMARK VINA RESULT:     -10.8      5.865     13.315
REMARK  Name = C:\Users\Docking\Desktop\test protocol\1iep_ligandH.pdb
REMARK  8 active torsions:
REMARK  status: ('A' for Active; 'I' for Inactive)
REMARK    1  A    between atoms: _5  and  _11
REMARK    2  A    between atoms: _19  and  _21
REMARK    3  A    between atoms: _22  and  _66
REMARK    4  A    between atoms: _27  and  _30
REMARK    5  A    between atoms: _32  and  _33
REMARK    6  A    between atoms: _38  and  _43
REMARK    7  A    between atoms: _43  and  _46
REMARK    8  A    between atoms: _53  and  _55
REMARK                            x       y       z     vdW  Elec       q    Type
REMARK                         _______ _______ _______ _____ _____    ______ ____
ROOT
ATOM     10  C   UNL     1       3.672  -5.777   6.708  0.00  0.00    +0.038 A 
ATOM     11  C   UNL     1       5.019  -6.198   6.852  0.00  0.00    +0.047 A 
ATOM     12  C   UNL     1       5.489  -6.812   8.084  0.00  0.00    +0.035 A 
ATOM     32  C   UNL     1       4.558  -6.985   9.150  0.00  0.00    +0.024 A 
ATOM     33  C   UNL     1       3.186  -6.562   9.022  0.00  0.00    +0.007 A 
ATOM     34  C   UNL     1       2.718  -5.953   7.809  0.00  0.00    -0.029 A 
ATOM     35  C   UNL     1       1.237  -5.513   7.730  0.00  0.00    +0.045 C 
ENDROOT
BRANCH  10   9
ATOM      4  C   UNL     1       1.530  -5.966   2.418  0.00  0.00    +0.077 A 
ATOM      5  C   UNL     1       1.195  -7.351   2.580  0.00  0.00    +0.048 A 
ATOM      6  C   UNL     1       1.599  -7.981   3.779  0.00  0.00    +0.116 A 
ATOM      7  N   UNL     1       2.285  -7.267   4.737  0.00  0.00    -0.223 NA
ATOM      8  C   UNL     1       2.593  -5.932   4.549  0.00  0.00    +0.220 A 
ATOM      9  N   UNL     1       3.276  -5.194   5.503  0.00  0.00    -0.283 N 
ATOM     36  H   UNL     1       3.490  -4.213   5.323  0.00  0.00    +0.155 HD
ATOM     37  N   UNL     1       2.220  -5.309   3.412  0.00  0.00    -0.214 NA
BRANCH   4   3
ATOM      1  C   UNL     1       0.484  -4.944  -1.211  0.00  0.00    +0.020 A 
ATOM      2  C   UNL     1       0.826  -5.767  -0.073  0.00  0.00    +0.013 A 
ATOM      3  C   UNL     1       1.169  -5.161   1.208  0.00  0.00    +0.019 A 
ATOM     38  C   UNL     1       1.156  -3.709   1.305  0.00  0.00    +0.120 A 
ATOM     39  N   UNL     1       0.824  -2.943   0.192  0.00  0.00    -0.263 NA
ATOM     40  C   UNL     1       0.494  -3.514  -1.046  0.00  0.00    +0.111 A 
ENDBRANCH   4   3
ENDBRANCH  10   9
BRANCH  12  13
ATOM     13  N   UNL     1       6.846  -7.252   8.291  0.00  0.00    -0.281 N 
ATOM     14  C   UNL     1       7.485  -7.508   9.493  0.00  0.00    +0.248 C 
ATOM     30  O   UNL     1       7.048  -7.190  10.589  0.00  0.00    -0.270 OA
ATOM     31  H   UNL     1       7.404  -7.392   7.448  0.00  0.00    +0.155 HD
BRANCH  14  15
ATOM     15  C   UNL     1       8.807  -8.204   9.474  0.00  0.00    +0.037 A 
ATOM     16  C   UNL     1       9.389  -8.764  10.697  0.00  0.00    +0.013 A 
ATOM     17  C   UNL     1      10.674  -9.416  10.654  0.00  0.00    +0.005 A 
ATOM     18  C   UNL     1      11.385  -9.513   9.382  0.00  0.00    -0.033 A 
ATOM     28  C   UNL     1      10.783  -8.954   8.183  0.00  0.00    +0.005 A 
ATOM     29  C   UNL     1       9.524  -8.313   8.221  0.00  0.00    +0.013 A 
BRANCH  18  19
ATOM     19  C   UNL     1      12.771 -10.173   9.246  0.00  0.00    +0.119 C 
BRANCH  19  20
ATOM     20  N   UNL     1      13.566 -10.356  10.497  0.00  0.00    -0.302 NA
ATOM     21  C   UNL     1      13.793  -9.033  11.233  0.00  0.00    +0.066 C 
ATOM     22  C   UNL     1      14.607  -9.247  12.550  0.00  0.00    -0.064 C 
ATOM     23  N   UNL     1      15.941  -9.918  12.219  0.00  0.00    +0.379 N 
ATOM     24  C   UNL     1      16.733 -10.068  13.449  0.00  0.00    -0.096 C 
ATOM     25  H   UNL     1      16.501  -9.239  11.536  0.00  0.00    -0.082 HD
ATOM     26  C   UNL     1      15.724 -11.234  11.485  0.00  0.00    -0.064 C 
ATOM     27  C   UNL     1      14.889 -11.015  10.193  0.00  0.00    +0.066 C 
ENDBRANCH  19  20
ENDBRANCH  18  19
ENDBRANCH  14  15
ENDBRANCH  12  13
TORSDOF 6
ENDMDL
