MODEL 1
REMARK VINA RESULT:     -11.0      0.000      0.000
REMARK  Name = C:\Users\Docking\Desktop\test protocol\1iep_ligandH.pdb
REMARK  8 active torsions:
REMARK  status: ('A' for Active; 'I' for Inactive)
REMARK    1  A    between atoms: _5  and  _11
REMARK    2  A    between atoms: _19  and  _21
REMARK    3  A    between atoms: _22  and  _66
REMARK    4  A    between atoms: _27  and  _30
REMARK    5  A    between atoms: _32  and  _33
REMARK    6  A    between atoms: _38  and  _43
REMARK    7  A    between atoms: _43  and  _46
REMARK    8  A    between atoms: _53  and  _55
REMARK                            x       y       z     vdW  Elec       q    Type
REMARK                         _______ _______ _______ _____ _____    ______ ____
ROOT
ATOM     10  C   UNL     1      -1.155  -1.620  -3.830  0.00  0.00    +0.038 A 
ATOM     11  C   UNL     1      -1.902  -2.187  -4.895  0.00  0.00    +0.047 A 
ATOM     12  C   UNL     1      -2.369  -3.563  -4.838  0.00  0.00    +0.035 A 
ATOM     32  C   UNL     1      -2.059  -4.334  -3.679  0.00  0.00    +0.024 A 
ATOM     33  C   UNL     1      -1.301  -3.774  -2.588  0.00  0.00    +0.007 A 
ATOM     34  C   UNL     1      -0.835  -2.418  -2.640  0.00  0.00    -0.029 A 
ATOM     35  C   UNL     1      -0.021  -1.872  -1.444  0.00  0.00    +0.045 C 
ENDROOT
BRANCH  10   9
ATOM      4  C   UNL     1      -1.709   3.079  -3.022  0.00  0.00    +0.077 A 
ATOM      5  C   UNL     1      -2.961   2.876  -2.352  0.00  0.00    +0.048 A 
ATOM      6  C   UNL     1      -3.431   1.548  -2.242  0.00  0.00    +0.116 A 
ATOM      7  N   UNL     1      -2.695   0.508  -2.767  0.00  0.00    -0.223 NA
ATOM      8  C   UNL     1      -1.492   0.738  -3.410  0.00  0.00    +0.220 A 
ATOM      9  N   UNL     1      -0.732  -0.293  -3.938  0.00  0.00    -0.283 N 
ATOM     36  H   UNL     1       0.146  -0.081  -4.411  0.00  0.00    +0.155 HD
ATOM     37  N   UNL     1      -1.023   1.997  -3.528  0.00  0.00    -0.214 NA
BRANCH   4   3
ATOM      1  C   UNL     1       0.906   5.980  -3.238  0.00  0.00    +0.020 A 
ATOM      2  C   UNL     1       0.348   4.662  -3.040  0.00  0.00    +0.013 A 
ATOM      3  C   UNL     1      -1.080   4.423  -3.215  0.00  0.00    +0.019 A 
ATOM     38  C   UNL     1      -1.921   5.548  -3.594  0.00  0.00    +0.120 A 
ATOM     39  N   UNL     1      -1.356   6.806  -3.777  0.00  0.00    -0.263 NA
ATOM     40  C   UNL     1       0.016   7.048  -3.610  0.00  0.00    +0.111 A 
ENDBRANCH   4   3
ENDBRANCH  10   9
BRANCH  12  13
ATOM     13  N   UNL     1      -3.123  -4.195  -5.891  0.00  0.00    -0.281 N 
ATOM     14  C   UNL     1      -2.915  -5.441  -6.459  0.00  0.00    +0.248 C 
ATOM     30  O   UNL     1      -1.911  -6.118  -6.291  0.00  0.00    -0.270 OA
ATOM     31  H   UNL     1      -3.906  -3.658  -6.265  0.00  0.00    +0.155 HD
BRANCH  14  15
ATOM     15  C   UNL     1      -3.968  -6.013  -7.353  0.00  0.00    +0.037 A 
ATOM     16  C   UNL     1      -5.345  -6.194  -6.886  0.00  0.00    +0.013 A 
ATOM     17  C   UNL     1      -6.337  -6.764  -7.763  0.00  0.00    +0.005 A 
ATOM     18  C   UNL     1      -5.955  -7.155  -9.118  0.00  0.00    -0.033 A 
ATOM     28  C   UNL     1      -4.583  -6.959  -9.557  0.00  0.00    +0.005 A 
ATOM     29  C   UNL     1      -3.608  -6.402  -8.699  0.00  0.00    +0.013 A 
BRANCH  18  19
ATOM     19  C   UNL     1      -6.942  -7.790 -10.115  0.00  0.00    +0.119 C 
BRANCH  19  20
ATOM     20  N   UNL     1      -8.383  -7.822  -9.723  0.00  0.00    -0.302 NA
ATOM     21  C   UNL     1      -8.612  -8.630  -8.443  0.00  0.00    +0.066 C 
ATOM     22  C   UNL     1     -10.121  -8.635  -8.035  0.00  0.00    -0.064 C 
ATOM     23  N   UNL     1     -10.956  -9.197  -9.187  0.00  0.00    +0.379 N 
ATOM     24  C   UNL     1     -12.369  -9.257  -8.786  0.00  0.00    -0.096 C 
ATOM     25  H   UNL     1     -10.613 -10.241  -9.375  0.00  0.00    -0.082 HD
ATOM     26  C   UNL     1     -10.732  -8.401 -10.465  0.00  0.00    -0.064 C 
ATOM     27  C   UNL     1      -9.225  -8.378 -10.845  0.00  0.00    +0.066 C 
ENDBRANCH  19  20
ENDBRANCH  18  19
ENDBRANCH  14  15
ENDBRANCH  12  13
TORSDOF 6
ENDMDL
MODEL 2
REMARK VINA RESULT:     -10.6      2.195     12.421
REMARK  Name = C:\Users\Docking\Desktop\test protocol\1iep_ligandH.pdb
REMARK  8 active torsions:
REMARK  status: ('A' for Active; 'I' for Inactive)
REMARK    1  A    between atoms: _5  and  _11
REMARK    2  A    between atoms: _19  and  _21
REMARK    3  A    between atoms: _22  and  _66
REMARK    4  A    between atoms: _27  and  _30
REMARK    5  A    between atoms: _32  and  _33
REMARK    6  A    between atoms: _38  and  _43
REMARK    7  A    between atoms: _43  and  _46
REMARK    8  A    between atoms: _53  and  _55
REMARK                            x       y       z     vdW  Elec       q    Type
REMARK                         _______ _______ _______ _____ _____    ______ ____
ROOT
ATOM     10  C   UNL     1      -2.677  -4.816  -4.823  0.00  0.00    +0.038 A 
ATOM     11  C   UNL     1      -2.719  -3.454  -4.429  0.00  0.00    +0.047 A 
ATOM     12  C   UNL     1      -1.542  -2.790  -3.891  0.00  0.00    +0.035 A 
ATOM     32  C   UNL     1      -0.337  -3.542  -3.770  0.00  0.00    +0.024 A 
ATOM     33  C   UNL     1      -0.277  -4.928  -4.164  0.00  0.00    +0.007 A 
ATOM     34  C   UNL     1      -1.436  -5.589  -4.693  0.00  0.00    -0.029 A 
ATOM     35  C   UNL     1      -1.315  -7.078  -5.094  0.00  0.00    +0.045 C 
ENDROOT
BRANCH  10   9
ATOM      4  C   UNL     1      -5.307  -6.534  -8.451  0.00  0.00    +0.077 A 
ATOM      5  C   UNL     1      -4.296  -6.209  -9.416  0.00  0.00    +0.048 A 
ATOM      6  C   UNL     1      -3.117  -5.594  -8.938  0.00  0.00    +0.116 A 
ATOM      7  N   UNL     1      -2.971  -5.329  -7.594  0.00  0.00    -0.223 NA
ATOM      8  C   UNL     1      -3.966  -5.654  -6.690  0.00  0.00    +0.220 A 
ATOM      9  N   UNL     1      -3.836  -5.404  -5.333  0.00  0.00    -0.283 N 
ATOM     36  H   UNL     1      -4.596  -5.652  -4.700  0.00  0.00    +0.155 HD
ATOM     37  N   UNL     1      -5.102  -6.241  -7.122  0.00  0.00    -0.214 NA
BRANCH   4   3
ATOM      1  C   UNL     1      -8.141  -8.407 -10.391  0.00  0.00    +0.020 A 
ATOM      2  C   UNL     1      -6.868  -7.786 -10.105  0.00  0.00    +0.013 A 
ATOM      3  C   UNL     1      -6.607  -7.190  -8.801  0.00  0.00    +0.019 A 
ATOM     38  C   UNL     1      -7.661  -7.242  -7.800  0.00  0.00    +0.120 A 
ATOM     39  N   UNL     1      -8.877  -7.846  -8.104  0.00  0.00    -0.263 NA
ATOM     40  C   UNL     1      -9.141  -8.421  -9.357  0.00  0.00    +0.111 A 
ENDBRANCH   4   3
ENDBRANCH  10   9
BRANCH  12  13
ATOM     13  N   UNL     1      -1.527  -1.411  -3.467  0.00  0.00    -0.281 N 
ATOM     14  C   UNL     1      -1.436  -0.278  -4.259  0.00  0.00    +0.248 C 
ATOM     30  O   UNL     1      -1.137  -0.285  -5.444  0.00  0.00    -0.270 OA
ATOM     31  H   UNL     1      -1.591  -1.252  -2.462  0.00  0.00    +0.155 HD
BRANCH  14  15
ATOM     15  C   UNL     1      -1.701   1.057  -3.641  0.00  0.00    +0.037 A 
ATOM     16  C   UNL     1      -2.931   1.315  -2.889  0.00  0.00    +0.013 A 
ATOM     17  C   UNL     1      -3.170   2.617  -2.318  0.00  0.00    +0.005 A 
ATOM     18  C   UNL     1      -2.174   3.671  -2.497  0.00  0.00    -0.033 A 
ATOM     28  C   UNL     1      -0.960   3.386  -3.243  0.00  0.00    +0.005 A 
ATOM     29  C   UNL     1      -0.723   2.111  -3.805  0.00  0.00    +0.013 A 
BRANCH  18  19
ATOM     19  C   UNL     1      -2.355   5.096  -1.941  0.00  0.00    +0.119 C 
BRANCH  19  20
ATOM     20  N   UNL     1      -3.488   5.903  -2.484  0.00  0.00    -0.302 NA
ATOM     21  C   UNL     1      -3.473   5.957  -4.015  0.00  0.00    +0.066 C 
ATOM     22  C   UNL     1      -4.677   6.786  -4.567  0.00  0.00    -0.064 C 
ATOM     23  N   UNL     1      -4.635   8.197  -3.976  0.00  0.00    +0.379 N 
ATOM     24  C   UNL     1      -5.733   8.997  -4.538  0.00  0.00    -0.096 C 
ATOM     25  H   UNL     1      -3.676   8.668  -4.293  0.00  0.00    -0.082 HD
ATOM     26  C   UNL     1      -4.647   8.153  -2.454  0.00  0.00    -0.064 C 
ATOM     27  C   UNL     1      -3.463   7.301  -1.916  0.00  0.00    +0.066 C 
ENDBRANCH  19  20
ENDBRANCH  18  19
ENDBRANCH  14  15
ENDBRANCH  12  13
TORSDOF 6
ENDMDL
MODEL 3
REMARK VINA RESULT:     -10.3      2.027     13.036
REMARK  Name = C:\Users\Docking\Desktop\test protocol\1iep_ligandH.pdb
REMARK  8 active torsions:
REMARK  status: ('A' for Active; 'I' for Inactive)
REMARK    1  A    between atoms: _5  and  _11
REMARK    2  A    between atoms: _19  and  _21
REMARK    3  A    between atoms: _22  and  _66
REMARK    4  A    between atoms: _27  and  _30
REMARK    5  A    between atoms: _32  and  _33
REMARK    6  A    between atoms: _38  and  _43
REMARK    7  A    between atoms: _43  and  _46
REMARK    8  A    between atoms: _53  and  _55
REMARK                            x       y       z     vdW  Elec       q    Type
REMARK                         _______ _______ _______ _____ _____    ______ ____
ROOT
ATOM     10  C   UNL     1      -3.052  -5.761  -5.504  0.00  0.00    +0.038 A 
ATOM     11  C   UNL     1      -2.854  -4.370  -5.314  0.00  0.00    +0.047 A 
ATOM     12  C   UNL     1      -1.558  -3.842  -4.915  0.00  0.00    +0.035 A 
ATOM     32  C   UNL     1      -0.485  -4.760  -4.722  0.00  0.00    +0.024 A 
ATOM     33  C   UNL     1      -0.669  -6.177  -4.911  0.00  0.00    +0.007 A 
ATOM     34  C   UNL     1      -1.945  -6.704  -5.301  0.00  0.00    -0.029 A 
ATOM     35  C   UNL     1      -2.087  -8.233  -5.482  0.00  0.00    +0.045 C 
ENDROOT
BRANCH  10   9
ATOM      4  C   UNL     1      -6.260  -7.042  -8.837  0.00  0.00    +0.077 A 
ATOM      5  C   UNL     1      -5.348  -6.760  -9.908  0.00  0.00    +0.048 A 
ATOM      6  C   UNL     1      -4.065  -6.281  -9.559  0.00  0.00    +0.116 A 
ATOM      7  N   UNL     1      -3.731  -6.100  -8.234  0.00  0.00    -0.223 NA
ATOM      8  C   UNL     1      -4.635  -6.380  -7.226  0.00  0.00    +0.220 A 
ATOM      9  N   UNL     1      -4.317  -6.214  -5.887  0.00  0.00    -0.283 N 
ATOM     36  H   UNL     1      -5.014  -6.424  -5.173  0.00  0.00    +0.155 HD
ATOM     37  N   UNL     1      -5.866  -6.837  -7.533  0.00  0.00    -0.214 NA
BRANCH   4   3
ATOM      1  C   UNL     1      -9.490  -8.506 -10.486  0.00  0.00    +0.020 A 
ATOM      2  C   UNL     1      -8.139  -8.017 -10.339  0.00  0.00    +0.013 A 
ATOM      3  C   UNL     1      -7.650  -7.557  -9.045  0.00  0.00    +0.019 A 
ATOM     38  C   UNL     1      -8.561  -7.606  -7.911  0.00  0.00    +0.120 A 
ATOM     39  N   UNL     1      -9.857  -8.081  -8.083  0.00  0.00    -0.263 NA
ATOM     40  C   UNL     1     -10.340  -8.524  -9.324  0.00  0.00    +0.111 A 
ENDBRANCH   4   3
ENDBRANCH  10   9
BRANCH  12  13
ATOM     13  N   UNL     1      -1.300  -2.440  -4.699  0.00  0.00    -0.281 N 
ATOM     14  C   UNL     1      -1.364  -1.736  -3.508  0.00  0.00    +0.248 C 
ATOM     30  O   UNL     1      -1.864  -2.164  -2.478  0.00  0.00    -0.270 OA
ATOM     31  H   UNL     1      -1.037  -1.901  -5.525  0.00  0.00    +0.155 HD
BRANCH  14  15
ATOM     15  C   UNL     1      -0.805  -0.351  -3.457  0.00  0.00    +0.037 A 
ATOM     16  C   UNL     1      -1.308   0.705  -4.339  0.00  0.00    +0.013 A 
ATOM     17  C   UNL     1      -0.739   2.028  -4.281  0.00  0.00    +0.005 A 
ATOM     18  C   UNL     1       0.340   2.303  -3.335  0.00  0.00    -0.033 A 
ATOM     28  C   UNL     1       0.816   1.239  -2.467  0.00  0.00    +0.005 A 
ATOM     29  C   UNL     1       0.262  -0.060  -2.522  0.00  0.00    +0.013 A 
BRANCH  18  19
ATOM     19  C   UNL     1       1.020   3.680  -3.219  0.00  0.00    +0.119 C 
BRANCH  19  20
ATOM     20  N   UNL     1       0.132   4.872  -3.077  0.00  0.00    -0.302 NA
ATOM     21  C   UNL     1       0.826   6.162  -3.522  0.00  0.00    +0.066 C 
ATOM     22  C   UNL     1      -0.125   7.396  -3.389  0.00  0.00    -0.064 C 
ATOM     23  N   UNL     1      -0.606   7.511  -1.941  0.00  0.00    +0.379 N 
ATOM     24  C   UNL     1      -1.454   8.704  -1.799  0.00  0.00    -0.096 C 
ATOM     25  H   UNL     1       0.293   7.657  -1.297  0.00  0.00    -0.082 HD
ATOM     26  C   UNL     1      -1.295   6.231  -1.489  0.00  0.00    -0.064 C 
ATOM     27  C   UNL     1      -0.351   5.008  -1.654  0.00  0.00    +0.066 C 
ENDBRANCH  19  20
ENDBRANCH  18  19
ENDBRANCH  14  15
ENDBRANCH  12  13
TORSDOF 6
ENDMDL
MODEL 4
REMARK VINA RESULT:     -10.2      5.864     16.143
REMARK  Name = C:\Users\Docking\Desktop\test protocol\1iep_ligandH.pdb
REMARK  8 active torsions:
REMARK  status: ('A' for Active; 'I' for Inactive)
REMARK    1  A    between atoms: _5  and  _11
REMARK    2  A    between atoms: _19  and  _21
REMARK    3  A    between atoms: _22  and  _66
REMARK    4  A    between atoms: _27  and  _30
REMARK    5  A    between atoms: _32  and  _33
REMARK    6  A    between atoms: _38  and  _43
REMARK    7  A    between atoms: _43  and  _46
REMARK    8  A    between atoms: _53  and  _55
REMARK                            x       y       z     vdW  Elec       q    Type
REMARK                         _______ _______ _______ _____ _____    ______ ____
ROOT
ATOM     10  C   UNL     1     -13.185  -9.976  -8.831  0.00  0.00    +0.038 A 
ATOM     11  C   UNL     1     -11.870  -9.615  -8.439  0.00  0.00    +0.047 A 
ATOM     12  C   UNL     1     -10.970  -8.938  -9.359  0.00  0.00    +0.035 A 
ATOM     32  C   UNL     1     -11.442  -8.642 -10.671  0.00  0.00    +0.024 A 
ATOM     33  C   UNL     1     -12.775  -9.003 -11.086  0.00  0.00    +0.007 A 
ATOM     34  C   UNL     1     -13.666  -9.673 -10.184  0.00  0.00    -0.029 A 
ATOM     35  C   UNL     1     -15.082 -10.043 -10.685  0.00  0.00    +0.045 C 
ENDROOT
BRANCH  10   9
ATOM      4  C   UNL     1     -15.757 -13.758  -7.377  0.00  0.00    +0.077 A 
ATOM      5  C   UNL     1     -15.460 -14.495  -8.571  0.00  0.00    +0.048 A 
ATOM      6  C   UNL     1     -14.648 -13.861  -9.539  0.00  0.00    +0.116 A 
ATOM      7  N   UNL     1     -14.173 -12.587  -9.317  0.00  0.00    -0.223 NA
ATOM      8  C   UNL     1     -14.480 -11.904  -8.154  0.00  0.00    +0.220 A 
ATOM      9  N   UNL     1     -14.007 -10.625  -7.906  0.00  0.00    -0.283 N 
ATOM     36  H   UNL     1     -14.262 -10.152  -7.040  0.00  0.00    +0.155 HD
ATOM     37  N   UNL     1     -15.255 -12.486  -7.216  0.00  0.00    -0.214 NA
BRANCH   4   3
ATOM      1  C   UNL     1     -17.204 -14.508  -3.821  0.00  0.00    +0.020 A 
ATOM      2  C   UNL     1     -16.361 -13.965  -4.860  0.00  0.00    +0.013 A 
ATOM      3  C   UNL     1     -16.600 -14.293  -6.260  0.00  0.00    +0.019 A 
ATOM     38  C   UNL     1     -17.710 -15.179  -6.577  0.00  0.00    +0.120 A 
ATOM     39  N   UNL     1     -18.504 -15.688  -5.554  0.00  0.00    -0.263 NA
ATOM     40  C   UNL     1     -18.283 -15.381  -4.203  0.00  0.00    +0.111 A 
ENDBRANCH   4   3
ENDBRANCH  10   9
BRANCH  12  13
ATOM     13  N   UNL     1      -9.622  -8.553  -9.020  0.00  0.00    -0.281 N 
ATOM     14  C   UNL     1      -8.572  -8.282  -9.881  0.00  0.00    +0.248 C 
ATOM     30  O   UNL     1      -8.574  -8.537 -11.076  0.00  0.00    -0.270 OA
ATOM     31  H   UNL     1      -9.418  -8.472  -8.024  0.00  0.00    +0.155 HD
BRANCH  14  15
ATOM     15  C   UNL     1      -7.334  -7.648  -9.333  0.00  0.00    +0.037 A 
ATOM     16  C   UNL     1      -7.273  -7.172  -7.949  0.00  0.00    +0.013 A 
ATOM     17  C   UNL     1      -6.073  -6.549  -7.451  0.00  0.00    +0.005 A 
ATOM     18  C   UNL     1      -4.922  -6.399  -8.338  0.00  0.00    -0.033 A 
ATOM     28  C   UNL     1      -5.008  -6.885  -9.705  0.00  0.00    +0.005 A 
ATOM     29  C   UNL     1      -6.183  -7.496 -10.197  0.00  0.00    +0.013 A 
BRANCH  18  19
ATOM     19  C   UNL     1      -3.608  -5.728  -7.898  0.00  0.00    +0.119 C 
BRANCH  19  20
ATOM     20  N   UNL     1      -3.192  -5.906  -6.474  0.00  0.00    -0.302 NA
ATOM     21  C   UNL     1      -2.342  -4.735  -5.973  0.00  0.00    +0.066 C 
ATOM     22  C   UNL     1      -1.935  -4.927  -4.476  0.00  0.00    -0.064 C 
ATOM     23  N   UNL     1      -1.182  -6.249  -4.320  0.00  0.00    +0.379 N 
ATOM     24  C   UNL     1      -0.748  -6.404  -2.924  0.00  0.00    -0.096 C 
ATOM     25  H   UNL     1      -0.267  -6.193  -4.955  0.00  0.00    -0.082 HD
ATOM     26  C   UNL     1      -2.019  -7.418  -4.819  0.00  0.00    -0.064 C 
ATOM     27  C   UNL     1      -2.443  -7.204  -6.299  0.00  0.00    +0.066 C 
ENDBRANCH  19  20
ENDBRANCH  18  19
ENDBRANCH  14  15
ENDBRANCH  12  13
TORSDOF 6
ENDMDL
MODEL 5
REMARK VINA RESULT:     -10.1      2.157      4.050
REMARK  Name = C:\Users\Docking\Desktop\test protocol\1iep_ligandH.pdb
REMARK  8 active torsions:
REMARK  status: ('A' for Active; 'I' for Inactive)
REMARK    1  A    between atoms: _5  and  _11
REMARK    2  A    between atoms: _19  and  _21
REMARK    3  A    between atoms: _22  and  _66
REMARK    4  A    between atoms: _27  and  _30
REMARK    5  A    between atoms: _32  and  _33
REMARK    6  A    between atoms: _38  and  _43
REMARK    7  A    between atoms: _43  and  _46
REMARK    8  A    between atoms: _53  and  _55
REMARK                            x       y       z     vdW  Elec       q    Type
REMARK                         _______ _______ _______ _____ _____    ______ ____
ROOT
ATOM     10  C   UNL     1      -2.042  -4.669  -5.724  0.00  0.00    +0.038 A 
ATOM     11  C   UNL     1      -3.255  -4.839  -6.440  0.00  0.00    +0.047 A 
ATOM     12  C   UNL     1      -3.811  -6.162  -6.675  0.00  0.00    +0.035 A 
ATOM     32  C   UNL     1      -3.108  -7.291  -6.163  0.00  0.00    +0.024 A 
ATOM     33  C   UNL     1      -1.873  -7.137  -5.434  0.00  0.00    +0.007 A 
ATOM     34  C   UNL     1      -1.318  -5.834  -5.202  0.00  0.00    -0.029 A 
ATOM     35  C   UNL     1       0.011  -5.729  -4.420  0.00  0.00    +0.045 C 
ENDROOT
BRANCH  10   9
ATOM      4  C   UNL     1      -0.944  -0.941  -2.908  0.00  0.00    +0.077 A 
ATOM      5  C   UNL     1      -1.408  -1.617  -1.731  0.00  0.00    +0.048 A 
ATOM      6  C   UNL     1      -1.929  -2.921  -1.895  0.00  0.00    +0.116 A 
ATOM      7  N   UNL     1      -1.977  -3.495  -3.146  0.00  0.00    -0.223 NA
ATOM      8  C   UNL     1      -1.522  -2.814  -4.261  0.00  0.00    +0.220 A 
ATOM      9  N   UNL     1      -1.554  -3.375  -5.528  0.00  0.00    -0.283 N 
ATOM     36  H   UNL     1      -1.216  -2.838  -6.326  0.00  0.00    +0.155 HD
ATOM     37  N   UNL     1      -1.022  -1.568  -4.131  0.00  0.00    -0.214 NA
BRANCH   4   3
ATOM      1  C   UNL     1      -0.370   2.873  -3.563  0.00  0.00    +0.020 A 
ATOM      2  C   UNL     1      -0.970   1.559  -3.606  0.00  0.00    +0.013 A 
ATOM      3  C   UNL     1      -0.364   0.439  -2.897  0.00  0.00    +0.019 A 
ATOM     38  C   UNL     1       0.859   0.684  -2.147  0.00  0.00    +0.120 A 
ATOM     39  N   UNL     1       1.415   1.959  -2.125  0.00  0.00    -0.263 NA
ATOM     40  C   UNL     1       0.842   3.044  -2.805  0.00  0.00    +0.111 A 
ENDBRANCH   4   3
ENDBRANCH  10   9
BRANCH  12  13
ATOM     13  N   UNL     1      -5.035  -6.396  -7.402  0.00  0.00    -0.281 N 
ATOM     14  C   UNL     1      -5.182  -6.933  -8.670  0.00  0.00    +0.248 C 
ATOM     30  O   UNL     1      -4.265  -7.097  -9.462  0.00  0.00    -0.270 OA
ATOM     31  H   UNL     1      -5.896  -6.135  -6.923  0.00  0.00    +0.155 HD
BRANCH  14  15
ATOM     15  C   UNL     1      -6.546  -7.333  -9.131  0.00  0.00    +0.037 A 
ATOM     16  C   UNL     1      -6.788  -7.754 -10.513  0.00  0.00    +0.013 A 
ATOM     17  C   UNL     1      -8.117  -8.119 -10.936  0.00  0.00    +0.005 A 
ATOM     18  C   UNL     1      -9.215  -8.064  -9.974  0.00  0.00    -0.033 A 
ATOM     28  C   UNL     1      -8.946  -7.648  -8.608  0.00  0.00    +0.005 A 
ATOM     29  C   UNL     1      -7.645  -7.289  -8.190  0.00  0.00    +0.013 A 
BRANCH  18  19
ATOM     19  C   UNL     1     -10.669  -8.415 -10.343  0.00  0.00    +0.119 C 
BRANCH  19  20
ATOM     20  N   UNL     1     -11.290  -9.578  -9.643  0.00  0.00    -0.302 NA
ATOM     21  C   UNL     1     -12.718  -9.845 -10.128  0.00  0.00    +0.066 C 
ATOM     22  C   UNL     1     -13.345 -11.079  -9.402  0.00  0.00    -0.064 C 
ATOM     23  N   UNL     1     -13.322 -10.844  -7.890  0.00  0.00    +0.379 N 
ATOM     24  C   UNL     1     -13.964 -11.976  -7.207  0.00  0.00    -0.096 C 
ATOM     25  H   UNL     1     -13.931  -9.933  -7.681  0.00  0.00    -0.082 HD
ATOM     26  C   UNL     1     -11.907 -10.574  -7.399  0.00  0.00    -0.064 C 
ATOM     27  C   UNL     1     -11.282  -9.364  -8.149  0.00  0.00    +0.066 C 
ENDBRANCH  19  20
ENDBRANCH  18  19
ENDBRANCH  14  15
ENDBRANCH  12  13
TORSDOF 6
ENDMDL
