MODEL 1
REMARK VINA RESULT:     -11.2      0.000      0.000
REMARK  Name = C:\Users\Docking\Desktop\test protocol\1iep_ligandH.pdb
REMARK  8 active torsions:
REMARK  status: ('A' for Active; 'I' for Inactive)
REMARK    1  A    between atoms: _5  and  _11
REMARK    2  A    between atoms: _19  and  _21
REMARK    3  A    between atoms: _22  and  _66
REMARK    4  A    between atoms: _27  and  _30
REMARK    5  A    between atoms: _32  and  _33
REMARK    6  A    between atoms: _38  and  _43
REMARK    7  A    between atoms: _43  and  _46
REMARK    8  A    between atoms: _53  and  _55
REMARK                            x       y       z     vdW  Elec       q    Type
REMARK                         _______ _______ _______ _____ _____    ______ ____
ROOT
ATOM     10  C   UNL     1     252.550 115.167 -37.397  0.00  0.00    +0.038 A 
ATOM     11  C   UNL     1     252.238 113.796 -37.587  0.00  0.00    +0.047 A 
ATOM     12  C   UNL     1     253.280 112.818 -37.858  0.00  0.00    +0.035 A 
ATOM     32  C   UNL     1     254.630 113.270 -37.925  0.00  0.00    +0.024 A 
ATOM     33  C   UNL     1     254.965 114.660 -37.735  0.00  0.00    +0.007 A 
ATOM     34  C   UNL     1     253.941 115.630 -37.471  0.00  0.00    -0.029 A 
ATOM     35  C   UNL     1     254.357 117.107 -37.282  0.00  0.00    +0.045 C 
ENDROOT
BRANCH  10   9
ATOM      4  C   UNL     1     249.252 118.347 -38.829  0.00  0.00    +0.077 A 
ATOM      5  C   UNL     1     249.653 118.234 -40.201  0.00  0.00    +0.048 A 
ATOM      6  C   UNL     1     250.717 117.352 -40.496  0.00  0.00    +0.116 A 
ATOM      7  N   UNL     1     251.326 116.640 -39.485  0.00  0.00    -0.223 NA
ATOM      8  C   UNL     1     250.916 116.774 -38.172  0.00  0.00    +0.220 A 
ATOM      9  N   UNL     1     251.510 116.063 -37.140  0.00  0.00    -0.283 N 
ATOM     36  H   UNL     1     251.183 116.195 -36.183  0.00  0.00    +0.155 HD
ATOM     37  N   UNL     1     249.904 117.611 -37.864  0.00  0.00    -0.214 NA
BRANCH   4   3
ATOM      1  C   UNL     1     246.885 120.483 -36.564  0.00  0.00    +0.020 A 
ATOM      2  C   UNL     1     247.974 119.623 -36.964  0.00  0.00    +0.013 A 
ATOM      3  C   UNL     1     248.142 119.235 -38.359  0.00  0.00    +0.019 A 
ATOM     38  C   UNL     1     247.184 119.739 -39.331  0.00  0.00    +0.120 A 
ATOM     39  N   UNL     1     246.144 120.565 -38.916  0.00  0.00    -0.263 NA
ATOM     40  C   UNL     1     245.971 120.944 -37.576  0.00  0.00    +0.111 A 
ENDBRANCH   4   3
ENDBRANCH  10   9
BRANCH  12  13
ATOM     13  N   UNL     1     253.023 111.415 -38.068  0.00  0.00    -0.281 N 
ATOM     14  C   UNL     1     253.171 110.377 -37.162  0.00  0.00    +0.248 C 
ATOM     30  O   UNL     1     253.754 110.472 -36.092  0.00  0.00    -0.270 OA
ATOM     31  H   UNL     1     252.692 111.155 -38.997  0.00  0.00    +0.155 HD
BRANCH  14  15
ATOM     15  C   UNL     1     252.602 109.037 -37.500  0.00  0.00    +0.037 A 
ATOM     16  C   UNL     1     252.432 108.613 -38.892  0.00  0.00    +0.013 A 
ATOM     17  C   UNL     1     251.864 107.322 -39.190  0.00  0.00    +0.005 A 
ATOM     18  C   UNL     1     251.463 106.445 -38.092  0.00  0.00    -0.033 A 
ATOM     28  C   UNL     1     251.648 106.889 -36.721  0.00  0.00    +0.005 A 
ATOM     29  C   UNL     1     252.203 108.154 -36.425  0.00  0.00    +0.013 A 
BRANCH  18  19
ATOM     19  C   UNL     1     250.830 105.059 -38.318  0.00  0.00    +0.119 C 
BRANCH  19  20
ATOM     20  N   UNL     1     249.394 105.022 -38.726  0.00  0.00    -0.302 NA
ATOM     21  C   UNL     1     248.834 103.597 -38.730  0.00  0.00    +0.066 C 
ATOM     22  C   UNL     1     247.325 103.579 -39.138  0.00  0.00    -0.064 C 
ATOM     23  N   UNL     1     247.164 104.228 -40.513  0.00  0.00    +0.379 N 
ATOM     24  C   UNL     1     245.754 104.160 -40.925  0.00  0.00    -0.096 C 
ATOM     25  H   UNL     1     247.758 103.628 -41.242  0.00  0.00    -0.082 HD
ATOM     26  C   UNL     1     247.720 105.645 -40.519  0.00  0.00    -0.064 C 
ATOM     27  C   UNL     1     249.212 105.654 -40.084  0.00  0.00    +0.066 C 
ENDBRANCH  19  20
ENDBRANCH  18  19
ENDBRANCH  14  15
ENDBRANCH  12  13
TORSDOF 6
ENDMDL
MODEL 2
REMARK VINA RESULT:     -10.0     24.619     30.365
REMARK  Name = C:\Users\Docking\Desktop\test protocol\1iep_ligandH.pdb
REMARK  8 active torsions:
REMARK  status: ('A' for Active; 'I' for Inactive)
REMARK    1  A    between atoms: _5  and  _11
REMARK    2  A    between atoms: _19  and  _21
REMARK    3  A    between atoms: _22  and  _66
REMARK    4  A    between atoms: _27  and  _30
REMARK    5  A    between atoms: _32  and  _33
REMARK    6  A    between atoms: _38  and  _43
REMARK    7  A    between atoms: _43  and  _46
REMARK    8  A    between atoms: _53  and  _55
REMARK                            x       y       z     vdW  Elec       q    Type
REMARK                         _______ _______ _______ _____ _____    ______ ____
ROOT
ATOM     10  C   UNL     1     220.130 108.974 -33.336  0.00  0.00    +0.038 A 
ATOM     11  C   UNL     1     221.203 109.900 -33.290  0.00  0.00    +0.047 A 
ATOM     12  C   UNL     1     221.059 111.187 -32.627  0.00  0.00    +0.035 A 
ATOM     32  C   UNL     1     219.807 111.497 -32.019  0.00  0.00    +0.024 A 
ATOM     33  C   UNL     1     218.705 110.567 -32.058  0.00  0.00    +0.007 A 
ATOM     34  C   UNL     1     218.841 109.298 -32.712  0.00  0.00    -0.029 A 
ATOM     35  C   UNL     1     217.624 108.343 -32.728  0.00  0.00    +0.045 C 
ENDROOT
BRANCH  10   9
ATOM      4  C   UNL     1     221.147 104.283 -33.315  0.00  0.00    +0.077 A 
ATOM      5  C   UNL     1     221.333 104.269 -31.893  0.00  0.00    +0.048 A 
ATOM      6  C   UNL     1     221.166 105.492 -31.205  0.00  0.00    +0.116 A 
ATOM      7  N   UNL     1     220.835 106.637 -31.898  0.00  0.00    -0.223 NA
ATOM      8  C   UNL     1     220.664 106.615 -33.270  0.00  0.00    +0.220 A 
ATOM      9  N   UNL     1     220.324 107.753 -33.986  0.00  0.00    -0.283 N 
ATOM     36  H   UNL     1     220.214 107.697 -34.998  0.00  0.00    +0.155 HD
ATOM     37  N   UNL     1     220.820 105.461 -33.950  0.00  0.00    -0.214 NA
BRANCH   4   3
ATOM      1  C   UNL     1     222.597 101.127 -35.114  0.00  0.00    +0.020 A 
ATOM      2  C   UNL     1     222.515 102.291 -34.262  0.00  0.00    +0.013 A 
ATOM      3  C   UNL     1     221.286 103.070 -34.182  0.00  0.00    +0.019 A 
ATOM     38  C   UNL     1     220.149 102.641 -34.983  0.00  0.00    +0.120 A 
ATOM     39  N   UNL     1     220.258 101.518 -35.796  0.00  0.00    -0.263 NA
ATOM     40  C   UNL     1     221.436 100.761 -35.882  0.00  0.00    +0.111 A 
ENDBRANCH   4   3
ENDBRANCH  10   9
BRANCH  12  13
ATOM     13  N   UNL     1     222.110 112.170 -32.555  0.00  0.00    -0.281 N 
ATOM     14  C   UNL     1     222.898 112.496 -31.463  0.00  0.00    +0.248 C 
ATOM     30  O   UNL     1     222.673 112.138 -30.317  0.00  0.00    -0.270 OA
ATOM     31  H   UNL     1     222.296 112.689 -33.413  0.00  0.00    +0.155 HD
BRANCH  14  15
ATOM     15  C   UNL     1     224.103 113.356 -31.673  0.00  0.00    +0.037 A 
ATOM     16  C   UNL     1     225.083 113.564 -30.604  0.00  0.00    +0.013 A 
ATOM     17  C   UNL     1     226.227 114.412 -30.828  0.00  0.00    +0.005 A 
ATOM     18  C   UNL     1     226.397 115.058 -32.127  0.00  0.00    -0.033 A 
ATOM     28  C   UNL     1     225.412 114.830 -33.171  0.00  0.00    +0.005 A 
ATOM     29  C   UNL     1     224.289 114.001 -32.955  0.00  0.00    +0.013 A 
BRANCH  18  19
ATOM     19  C   UNL     1     227.576 115.996 -32.447  0.00  0.00    +0.119 C 
BRANCH  19  20
ATOM     20  N   UNL     1     228.012 116.085 -33.873  0.00  0.00    -0.302 NA
ATOM     21  C   UNL     1     229.528 115.927 -34.021  0.00  0.00    +0.066 C 
ATOM     22  C   UNL     1     229.964 115.999 -35.520  0.00  0.00    -0.064 C 
ATOM     23  N   UNL     1     229.497 117.326 -36.121  0.00  0.00    +0.379 N 
ATOM     24  C   UNL     1     229.955 117.423 -37.514  0.00  0.00    -0.096 C 
ATOM     25  H   UNL     1     229.985 118.148 -35.546  0.00  0.00    -0.082 HD
ATOM     26  C   UNL     1     227.991 117.493 -35.975  0.00  0.00    -0.064 C 
ATOM     27  C   UNL     1     227.565 117.390 -34.484  0.00  0.00    +0.066 C 
ENDBRANCH  19  20
ENDBRANCH  18  19
ENDBRANCH  14  15
ENDBRANCH  12  13
TORSDOF 6
ENDMDL
MODEL 3
REMARK VINA RESULT:      -9.5      1.879      2.872
REMARK  Name = C:\Users\Docking\Desktop\test protocol\1iep_ligandH.pdb
REMARK  8 active torsions:
REMARK  status: ('A' for Active; 'I' for Inactive)
REMARK    1  A    between atoms: _5  and  _11
REMARK    2  A    between atoms: _19  and  _21
REMARK    3  A    between atoms: _22  and  _66
REMARK    4  A    between atoms: _27  and  _30
REMARK    5  A    between atoms: _32  and  _33
REMARK    6  A    between atoms: _38  and  _43
REMARK    7  A    between atoms: _43  and  _46
REMARK    8  A    between atoms: _53  and  _55
REMARK                            x       y       z     vdW  Elec       q    Type
REMARK                         _______ _______ _______ _____ _____    ______ ____
ROOT
ATOM     10  C   UNL     1     253.583 118.112 -37.450  0.00  0.00    +0.038 A 
ATOM     11  C   UNL     1     253.302 116.731 -37.609  0.00  0.00    +0.047 A 
ATOM     12  C   UNL     1     254.368 115.766 -37.828  0.00  0.00    +0.035 A 
ATOM     32  C   UNL     1     255.711 116.242 -37.875  0.00  0.00    +0.024 A 
ATOM     33  C   UNL     1     256.015 117.643 -37.715  0.00  0.00    +0.007 A 
ATOM     34  C   UNL     1     254.967 118.600 -37.502  0.00  0.00    -0.029 A 
ATOM     35  C   UNL     1     255.350 120.089 -37.344  0.00  0.00    +0.045 C 
ENDROOT
BRANCH  10   9
ATOM      4  C   UNL     1     249.332 119.978 -38.668  0.00  0.00    +0.077 A 
ATOM      5  C   UNL     1     249.232 119.143 -39.830  0.00  0.00    +0.048 A 
ATOM      6  C   UNL     1     250.299 118.252 -40.083  0.00  0.00    +0.116 A 
ATOM      7  N   UNL     1     251.381 118.207 -39.229  0.00  0.00    -0.223 NA
ATOM      8  C   UNL     1     251.446 119.028 -38.118  0.00  0.00    +0.220 A 
ATOM      9  N   UNL     1     252.521 118.994 -37.242  0.00  0.00    -0.283 N 
ATOM     36  H   UNL     1     252.535 119.621 -36.438  0.00  0.00    +0.155 HD
ATOM     37  N   UNL     1     250.441 119.888 -37.856  0.00  0.00    -0.214 NA
BRANCH   4   3
ATOM      1  C   UNL     1     246.577 122.752 -38.782  0.00  0.00    +0.020 A 
ATOM      2  C   UNL     1     247.581 121.812 -39.223  0.00  0.00    +0.013 A 
ATOM      3  C   UNL     1     248.284 120.968 -38.265  0.00  0.00    +0.019 A 
ATOM     38  C   UNL     1     247.943 121.100 -36.856  0.00  0.00    +0.120 A 
ATOM     39  N   UNL     1     246.973 122.015 -36.461  0.00  0.00    -0.263 NA
ATOM     40  C   UNL     1     246.291 122.834 -37.374  0.00  0.00    +0.111 A 
ENDBRANCH   4   3
ENDBRANCH  10   9
BRANCH  12  13
ATOM     13  N   UNL     1     254.143 114.353 -38.005  0.00  0.00    -0.281 N 
ATOM     14  C   UNL     1     253.120 113.581 -37.478  0.00  0.00    +0.248 C 
ATOM     30  O   UNL     1     252.360 113.951 -36.596  0.00  0.00    -0.270 OA
ATOM     31  H   UNL     1     254.819 113.862 -38.589  0.00  0.00    +0.155 HD
BRANCH  14  15
ATOM     15  C   UNL     1     252.922 112.194 -37.996  0.00  0.00    +0.037 A 
ATOM     16  C   UNL     1     251.894 111.895 -38.997  0.00  0.00    +0.013 A 
ATOM     17  C   UNL     1     251.713 110.545 -39.467  0.00  0.00    +0.005 A 
ATOM     18  C   UNL     1     252.564 109.482 -38.938  0.00  0.00    -0.033 A 
ATOM     28  C   UNL     1     253.580 109.807 -37.950  0.00  0.00    +0.005 A 
ATOM     29  C   UNL     1     253.760 111.129 -37.486  0.00  0.00    +0.013 A 
BRANCH  18  19
ATOM     19  C   UNL     1     252.427 108.009 -39.368  0.00  0.00    +0.119 C 
BRANCH  19  20
ATOM     20  N   UNL     1     251.087 107.371 -39.205  0.00  0.00    -0.302 NA
ATOM     21  C   UNL     1     251.185 105.985 -38.562  0.00  0.00    +0.066 C 
ATOM     22  C   UNL     1     249.772 105.341 -38.378  0.00  0.00    -0.064 C 
ATOM     23  N   UNL     1     249.071 105.261 -39.735  0.00  0.00    +0.379 N 
ATOM     24  C   UNL     1     247.765 104.604 -39.575  0.00  0.00    -0.096 C 
ATOM     25  H   UNL     1     249.694 104.619 -40.400  0.00  0.00    -0.082 HD
ATOM     26  C   UNL     1     248.971 106.635 -40.382  0.00  0.00    -0.064 C 
ATOM     27  C   UNL     1     250.378 107.278 -40.534  0.00  0.00    +0.066 C 
ENDBRANCH  19  20
ENDBRANCH  18  19
ENDBRANCH  14  15
ENDBRANCH  12  13
TORSDOF 6
ENDMDL
MODEL 4
REMARK VINA RESULT:      -9.5     25.246     29.702
REMARK  Name = C:\Users\Docking\Desktop\test protocol\1iep_ligandH.pdb
REMARK  8 active torsions:
REMARK  status: ('A' for Active; 'I' for Inactive)
REMARK    1  A    between atoms: _5  and  _11
REMARK    2  A    between atoms: _19  and  _21
REMARK    3  A    between atoms: _22  and  _66
REMARK    4  A    between atoms: _27  and  _30
REMARK    5  A    between atoms: _32  and  _33
REMARK    6  A    between atoms: _38  and  _43
REMARK    7  A    between atoms: _43  and  _46
REMARK    8  A    between atoms: _53  and  _55
REMARK                            x       y       z     vdW  Elec       q    Type
REMARK                         _______ _______ _______ _____ _____    ______ ____
ROOT
ATOM     10  C   UNL     1     220.880 113.549 -28.741  0.00  0.00    +0.038 A 
ATOM     11  C   UNL     1     221.776 114.273 -29.569  0.00  0.00    +0.047 A 
ATOM     12  C   UNL     1     222.595 113.597 -30.564  0.00  0.00    +0.035 A 
ATOM     32  C   UNL     1     222.472 112.182 -30.691  0.00  0.00    +0.024 A 
ATOM     33  C   UNL     1     221.567 111.431 -29.858  0.00  0.00    +0.007 A 
ATOM     34  C   UNL     1     220.759 112.092 -28.873  0.00  0.00    -0.029 A 
ATOM     35  C   UNL     1     219.811 111.235 -28.003  0.00  0.00    +0.045 C 
ENDROOT
BRANCH  10   9
ATOM      4  C   UNL     1     220.304 115.602 -24.441  0.00  0.00    +0.077 A 
ATOM      5  C   UNL     1     221.622 115.225 -24.019  0.00  0.00    +0.048 A 
ATOM      6  C   UNL     1     222.414 114.498 -24.936  0.00  0.00    +0.116 A 
ATOM      7  N   UNL     1     221.915 114.177 -26.179  0.00  0.00    -0.223 NA
ATOM      8  C   UNL     1     220.638 114.554 -26.554  0.00  0.00    +0.220 A 
ATOM      9  N   UNL     1     220.118 114.249 -27.803  0.00  0.00    -0.283 N 
ATOM     36  H   UNL     1     219.170 114.538 -28.038  0.00  0.00    +0.155 HD
ATOM     37  N   UNL     1     219.862 115.248 -25.696  0.00  0.00    -0.214 NA
BRANCH   4   3
ATOM      1  C   UNL     1     217.647 118.202 -23.226  0.00  0.00    +0.020 A 
ATOM      2  C   UNL     1     218.555 117.488 -24.094  0.00  0.00    +0.013 A 
ATOM      3  C   UNL     1     219.349 116.376 -23.587  0.00  0.00    +0.019 A 
ATOM     38  C   UNL     1     219.197 116.007 -22.187  0.00  0.00    +0.120 A 
ATOM     39  N   UNL     1     218.316 116.714 -21.376  0.00  0.00    -0.263 NA
ATOM     40  C   UNL     1     217.548 117.788 -21.852  0.00  0.00    +0.111 A 
ENDBRANCH   4   3
ENDBRANCH  10   9
BRANCH  12  13
ATOM     13  N   UNL     1     223.528 114.278 -31.426  0.00  0.00    -0.281 N 
ATOM     14  C   UNL     1     224.912 114.259 -31.367  0.00  0.00    +0.248 C 
ATOM     30  O   UNL     1     225.557 113.822 -30.426  0.00  0.00    -0.270 OA
ATOM     31  H   UNL     1     223.119 114.843 -32.171  0.00  0.00    +0.155 HD
BRANCH  14  15
ATOM     15  C   UNL     1     225.691 114.821 -32.512  0.00  0.00    +0.037 A 
ATOM     16  C   UNL     1     227.018 115.409 -32.312  0.00  0.00    +0.013 A 
ATOM     17  C   UNL     1     227.741 115.959 -33.431  0.00  0.00    +0.005 A 
ATOM     18  C   UNL     1     227.139 115.922 -34.762  0.00  0.00    -0.033 A 
ATOM     28  C   UNL     1     225.823 115.327 -34.932  0.00  0.00    +0.005 A 
ATOM     29  C   UNL     1     225.111 114.788 -33.837  0.00  0.00    +0.013 A 
BRANCH  18  19
ATOM     19  C   UNL     1     227.829 116.504 -36.009  0.00  0.00    +0.119 C 
BRANCH  19  20
ATOM     20  N   UNL     1     229.319 116.599 -35.984  0.00  0.00    -0.302 NA
ATOM     21  C   UNL     1     229.813 117.608 -34.944  0.00  0.00    +0.066 C 
ATOM     22  C   UNL     1     231.375 117.678 -34.916  0.00  0.00    -0.064 C 
ATOM     23  N   UNL     1     231.892 118.040 -36.309  0.00  0.00    +0.379 N 
ATOM     24  C   UNL     1     233.356 118.164 -36.273  0.00  0.00    -0.096 C 
ATOM     25  H   UNL     1     231.474 119.039 -36.576  0.00  0.00    -0.082 HD
ATOM     26  C   UNL     1     231.403 117.043 -37.351  0.00  0.00    -0.064 C 
ATOM     27  C   UNL     1     229.851 116.959 -37.350  0.00  0.00    +0.066 C 
ENDBRANCH  19  20
ENDBRANCH  18  19
ENDBRANCH  14  15
ENDBRANCH  12  13
TORSDOF 6
ENDMDL
MODEL 5
REMARK VINA RESULT:      -9.5      3.321     12.136
REMARK  Name = C:\Users\Docking\Desktop\test protocol\1iep_ligandH.pdb
REMARK  8 active torsions:
REMARK  status: ('A' for Active; 'I' for Inactive)
REMARK    1  A    between atoms: _5  and  _11
REMARK    2  A    between atoms: _19  and  _21
REMARK    3  A    between atoms: _22  and  _66
REMARK    4  A    between atoms: _27  and  _30
REMARK    5  A    between atoms: _32  and  _33
REMARK    6  A    between atoms: _38  and  _43
REMARK    7  A    between atoms: _43  and  _46
REMARK    8  A    between atoms: _53  and  _55
REMARK                            x       y       z     vdW  Elec       q    Type
REMARK                         _______ _______ _______ _____ _____    ______ ____
ROOT
ATOM     10  C   UNL     1     252.541 114.729 -38.295  0.00  0.00    +0.038 A 
ATOM     11  C   UNL     1     251.320 115.407 -38.047  0.00  0.00    +0.047 A 
ATOM     12  C   UNL     1     251.283 116.620 -37.245  0.00  0.00    +0.035 A 
ATOM     32  C   UNL     1     252.508 117.116 -36.713  0.00  0.00    +0.024 A 
ATOM     33  C   UNL     1     253.758 116.439 -36.954  0.00  0.00    +0.007 A 
ATOM     34  C   UNL     1     253.801 115.241 -37.742  0.00  0.00    -0.029 A 
ATOM     35  C   UNL     1     255.169 114.553 -37.963  0.00  0.00    +0.045 C 
ENDROOT
BRANCH  10   9
ATOM      4  C   UNL     1     252.454 109.953 -38.767  0.00  0.00    +0.077 A 
ATOM      5  C   UNL     1     252.481 109.753 -37.347  0.00  0.00    +0.048 A 
ATOM      6  C   UNL     1     252.525 110.905 -36.530  0.00  0.00    +0.116 A 
ATOM      7  N   UNL     1     252.539 112.158 -37.102  0.00  0.00    -0.223 NA
ATOM      8  C   UNL     1     252.514 112.316 -38.475  0.00  0.00    +0.220 A 
ATOM      9  N   UNL     1     252.519 113.568 -39.071  0.00  0.00    -0.283 N 
ATOM     36  H   UNL     1     252.507 113.642 -40.088  0.00  0.00    +0.155 HD
ATOM     37  N   UNL     1     252.473 111.232 -39.277  0.00  0.00    -0.214 NA
BRANCH   4   3
ATOM      1  C   UNL     1     252.823 107.857 -42.049  0.00  0.00    +0.020 A 
ATOM      2  C   UNL     1     252.894 108.968 -41.128  0.00  0.00    +0.013 A 
ATOM      3  C   UNL     1     252.404 108.835 -39.762  0.00  0.00    +0.019 A 
ATOM     38  C   UNL     1     251.844 107.555 -39.356  0.00  0.00    +0.120 A 
ATOM     39  N   UNL     1     251.787 106.503 -40.266  0.00  0.00    -0.263 NA
ATOM     40  C   UNL     1     252.254 106.620 -41.583  0.00  0.00    +0.111 A 
ENDBRANCH   4   3
ENDBRANCH  10   9
BRANCH  12  13
ATOM     13  N   UNL     1     250.072 117.347 -36.953  0.00  0.00    -0.281 N 
ATOM     14  C   UNL     1     249.194 117.933 -37.850  0.00  0.00    +0.248 C 
ATOM     30  O   UNL     1     249.430 118.106 -39.036  0.00  0.00    -0.270 OA
ATOM     31  H   UNL     1     249.834 117.440 -35.966  0.00  0.00    +0.155 HD
BRANCH  14  15
ATOM     15  C   UNL     1     247.867 118.409 -37.353  0.00  0.00    +0.037 A 
ATOM     16  C   UNL     1     246.948 119.144 -38.227  0.00  0.00    +0.013 A 
ATOM     17  C   UNL     1     245.681 119.607 -37.718  0.00  0.00    +0.005 A 
ATOM     18  C   UNL     1     245.325 119.335 -36.327  0.00  0.00    -0.033 A 
ATOM     28  C   UNL     1     246.254 118.600 -35.484  0.00  0.00    +0.005 A 
ATOM     29  C   UNL     1     247.496 118.145 -35.979  0.00  0.00    +0.013 A 
BRANCH  18  19
ATOM     19  C   UNL     1     244.004 119.810 -35.694  0.00  0.00    +0.119 C 
BRANCH  19  20
ATOM     20  N   UNL     1     244.040 120.211 -34.256  0.00  0.00    -0.302 NA
ATOM     21  C   UNL     1     242.684 120.019 -33.572  0.00  0.00    +0.066 C 
ATOM     22  C   UNL     1     242.746 120.422 -32.062  0.00  0.00    -0.064 C 
ATOM     23  N   UNL     1     243.212 121.874 -31.943  0.00  0.00    +0.379 N 
ATOM     24  C   UNL     1     243.216 122.273 -30.528  0.00  0.00    -0.096 C 
ATOM     25  H   UNL     1     242.468 122.512 -32.473  0.00  0.00    -0.082 HD
ATOM     26  C   UNL     1     244.559 122.074 -32.623  0.00  0.00    -0.064 C 
ATOM     27  C   UNL     1     244.494 121.643 -34.115  0.00  0.00    +0.066 C 
ENDBRANCH  19  20
ENDBRANCH  18  19
ENDBRANCH  14  15
ENDBRANCH  12  13
TORSDOF 6
ENDMDL
