MODEL 1
REMARK VINA RESULT:      -9.8      0.000      0.000
REMARK  Name = C:\Users\Docking\Desktop\test protocol\1iep_ligandH.pdb
REMARK  8 active torsions:
REMARK  status: ('A' for Active; 'I' for Inactive)
REMARK    1  A    between atoms: _5  and  _11
REMARK    2  A    between atoms: _19  and  _21
REMARK    3  A    between atoms: _22  and  _66
REMARK    4  A    between atoms: _27  and  _30
REMARK    5  A    between atoms: _32  and  _33
REMARK    6  A    between atoms: _38  and  _43
REMARK    7  A    between atoms: _43  and  _46
REMARK    8  A    between atoms: _53  and  _55
REMARK                            x       y       z     vdW  Elec       q    Type
REMARK                         _______ _______ _______ _____ _____    ______ ____
ROOT
ATOM     10  C   UNL     1      46.712  34.754  10.537  0.00  0.00    +0.038 A 
ATOM     11  C   UNL     1      48.067  34.914  10.923  0.00  0.00    +0.047 A 
ATOM     12  C   UNL     1      48.874  33.772  11.325  0.00  0.00    +0.035 A 
ATOM     32  C   UNL     1      48.269  32.482  11.320  0.00  0.00    +0.024 A 
ATOM     33  C   UNL     1      46.893  32.302  10.931  0.00  0.00    +0.007 A 
ATOM     34  C   UNL     1      46.091  33.424  10.536  0.00  0.00    -0.029 A 
ATOM     35  C   UNL     1      44.618  33.173  10.135  0.00  0.00    +0.045 C 
ENDROOT
BRANCH  10   9
ATOM      4  C   UNL     1      45.254  37.955   7.271  0.00  0.00    +0.077 A 
ATOM      5  C   UNL     1      46.030  37.339   6.234  0.00  0.00    +0.048 A 
ATOM      6  C   UNL     1      46.796  36.205   6.584  0.00  0.00    +0.116 A 
ATOM      7  N   UNL     1      46.780  35.731   7.878  0.00  0.00    -0.223 NA
ATOM      8  C   UNL     1      46.021  36.349   8.854  0.00  0.00    +0.220 A 
ATOM      9  N   UNL     1      45.983  35.885  10.160  0.00  0.00    -0.283 N 
ATOM     36  H   UNL     1      45.417  36.374  10.853  0.00  0.00    +0.155 HD
ATOM     37  N   UNL     1      45.282  37.435   8.546  0.00  0.00    -0.214 NA
BRANCH   4   3
ATOM      1  C   UNL     1      44.032  41.649   6.868  0.00  0.00    +0.020 A 
ATOM      2  C   UNL     1      44.909  40.521   7.081  0.00  0.00    +0.013 A 
ATOM      3  C   UNL     1      44.390  39.159   7.057  0.00  0.00    +0.019 A 
ATOM     38  C   UNL     1      42.968  38.972   6.812  0.00  0.00    +0.120 A 
ATOM     39  N   UNL     1      42.147  40.078   6.611  0.00  0.00    -0.263 NA
ATOM     40  C   UNL     1      42.635  41.393   6.634  0.00  0.00    +0.111 A 
ENDBRANCH   4   3
ENDBRANCH  10   9
BRANCH  12  13
ATOM     13  N   UNL     1      50.253  33.874  11.735  0.00  0.00    -0.281 N 
ATOM     14  C   UNL     1      51.369  34.051  10.934  0.00  0.00    +0.248 C 
ATOM     30  O   UNL     1      51.371  33.935   9.717  0.00  0.00    -0.270 OA
ATOM     31  H   UNL     1      50.427  33.807  12.738  0.00  0.00    +0.155 HD
BRANCH  14  15
ATOM     15  C   UNL     1      52.673  34.393  11.578  0.00  0.00    +0.037 A 
ATOM     16  C   UNL     1      53.939  34.248  10.854  0.00  0.00    +0.013 A 
ATOM     17  C   UNL     1      55.185  34.569  11.505  0.00  0.00    +0.005 A 
ATOM     18  C   UNL     1      55.170  35.039  12.888  0.00  0.00    -0.033 A 
ATOM     28  C   UNL     1      53.900  35.179  13.580  0.00  0.00    +0.005 A 
ATOM     29  C   UNL     1      52.677  34.865  12.946  0.00  0.00    +0.013 A 
BRANCH  18  19
ATOM     19  C   UNL     1      56.453  35.384  13.667  0.00  0.00    +0.119 C 
BRANCH  19  20
ATOM     20  N   UNL     1      57.263  34.243  14.190  0.00  0.00    -0.302 NA
ATOM     21  C   UNL     1      56.700  33.695  15.505  0.00  0.00    +0.066 C 
ATOM     22  C   UNL     1      57.546  32.488  16.026  0.00  0.00    -0.064 C 
ATOM     23  N   UNL     1      59.001  32.926  16.201  0.00  0.00    +0.379 N 
ATOM     24  C   UNL     1      59.788  31.810  16.746  0.00  0.00    -0.096 C 
ATOM     25  H   UNL     1      59.019  33.750  16.951  0.00  0.00    -0.082 HD
ATOM     26  C   UNL     1      59.568  33.475  14.899  0.00  0.00    -0.064 C 
ATOM     27  C   UNL     1      58.703  34.655  14.374  0.00  0.00    +0.066 C 
ENDBRANCH  19  20
ENDBRANCH  18  19
ENDBRANCH  14  15
ENDBRANCH  12  13
TORSDOF 6
ENDMDL
MODEL 2
REMARK VINA RESULT:      -9.4     12.843     18.012
REMARK  Name = C:\Users\Docking\Desktop\test protocol\1iep_ligandH.pdb
REMARK  8 active torsions:
REMARK  status: ('A' for Active; 'I' for Inactive)
REMARK    1  A    between atoms: _5  and  _11
REMARK    2  A    between atoms: _19  and  _21
REMARK    3  A    between atoms: _22  and  _66
REMARK    4  A    between atoms: _27  and  _30
REMARK    5  A    between atoms: _32  and  _33
REMARK    6  A    between atoms: _38  and  _43
REMARK    7  A    between atoms: _43  and  _46
REMARK    8  A    between atoms: _53  and  _55
REMARK                            x       y       z     vdW  Elec       q    Type
REMARK                         _______ _______ _______ _____ _____    ______ ____
ROOT
ATOM     10  C   UNL     1      53.939  47.668  20.041  0.00  0.00    +0.038 A 
ATOM     11  C   UNL     1      52.850  46.800  19.773  0.00  0.00    +0.047 A 
ATOM     12  C   UNL     1      51.575  46.961  20.453  0.00  0.00    +0.035 A 
ATOM     32  C   UNL     1      51.442  48.019  21.398  0.00  0.00    +0.024 A 
ATOM     33  C   UNL     1      52.539  48.910  21.684  0.00  0.00    +0.007 A 
ATOM     34  C   UNL     1      53.800  48.754  21.018  0.00  0.00    -0.029 A 
ATOM     35  C   UNL     1      54.944  49.735  21.368  0.00  0.00    +0.045 C 
ENDROOT
BRANCH  10   9
ATOM      4  C   UNL     1      58.351  45.808  19.697  0.00  0.00    +0.077 A 
ATOM      5  C   UNL     1      58.263  45.208  20.996  0.00  0.00    +0.048 A 
ATOM      6  C   UNL     1      57.069  45.407  21.724  0.00  0.00    +0.116 A 
ATOM      7  N   UNL     1      56.044  46.153  21.182  0.00  0.00    -0.223 NA
ATOM      8  C   UNL     1      56.162  46.720  19.927  0.00  0.00    +0.220 A 
ATOM      9  N   UNL     1      55.142  47.467  19.359  0.00  0.00    -0.283 N 
ATOM     36  H   UNL     1      55.270  47.875  18.433  0.00  0.00    +0.155 HD
ATOM     37  N   UNL     1      57.293  46.545  19.212  0.00  0.00    -0.214 NA
BRANCH   4   3
ATOM      1  C   UNL     1      62.028  45.799  18.364  0.00  0.00    +0.020 A 
ATOM      2  C   UNL     1      60.908  45.932  19.266  0.00  0.00    +0.013 A 
ATOM      3  C   UNL     1      59.547  45.685  18.805  0.00  0.00    +0.019 A 
ATOM     38  C   UNL     1      59.353  45.302  17.415  0.00  0.00    +0.120 A 
ATOM     39  N   UNL     1      60.452  45.183  16.569  0.00  0.00    -0.263 NA
ATOM     40  C   UNL     1      61.765  45.419  17.000  0.00  0.00    +0.111 A 
ENDBRANCH   4   3
ENDBRANCH  10   9
BRANCH  12  13
ATOM     13  N   UNL     1      50.436  46.105  20.228  0.00  0.00    -0.281 N 
ATOM     14  C   UNL     1      49.577  46.099  19.141  0.00  0.00    +0.248 C 
ATOM     30  O   UNL     1      49.530  46.977  18.292  0.00  0.00    -0.270 OA
ATOM     31  H   UNL     1      50.240  45.420  20.958  0.00  0.00    +0.155 HD
BRANCH  14  15
ATOM     15  C   UNL     1      48.622  44.960  18.982  0.00  0.00    +0.037 A 
ATOM     16  C   UNL     1      48.202  44.154  20.131  0.00  0.00    +0.013 A 
ATOM     17  C   UNL     1      47.293  43.051  19.948  0.00  0.00    +0.005 A 
ATOM     18  C   UNL     1      46.796  42.748  18.608  0.00  0.00    -0.033 A 
ATOM     28  C   UNL     1      47.224  43.567  17.486  0.00  0.00    +0.005 A 
ATOM     29  C   UNL     1      48.116  44.649  17.662  0.00  0.00    +0.013 A 
BRANCH  18  19
ATOM     19  C   UNL     1      45.839  41.577  18.315  0.00  0.00    +0.119 C 
BRANCH  19  20
ATOM     20  N   UNL     1      44.379  41.821  18.511  0.00  0.00    -0.302 NA
ATOM     21  C   UNL     1      43.963  41.670  19.977  0.00  0.00    +0.066 C 
ATOM     22  C   UNL     1      42.437  41.951  20.168  0.00  0.00    -0.064 C 
ATOM     23  N   UNL     1      41.632  41.004  19.276  0.00  0.00    +0.379 N 
ATOM     24  C   UNL     1      40.195  41.226  19.496  0.00  0.00    -0.096 C 
ATOM     25  H   UNL     1      41.866  39.961  19.593  0.00  0.00    -0.082 HD
ATOM     26  C   UNL     1      42.041  41.146  17.817  0.00  0.00    -0.064 C 
ATOM     27  C   UNL     1      43.565  40.894  17.643  0.00  0.00    +0.066 C 
ENDBRANCH  19  20
ENDBRANCH  18  19
ENDBRANCH  14  15
ENDBRANCH  12  13
TORSDOF 6
ENDMDL
MODEL 3
REMARK VINA RESULT:      -9.4     12.394     17.348
REMARK  Name = C:\Users\Docking\Desktop\test protocol\1iep_ligandH.pdb
REMARK  8 active torsions:
REMARK  status: ('A' for Active; 'I' for Inactive)
REMARK    1  A    between atoms: _5  and  _11
REMARK    2  A    between atoms: _19  and  _21
REMARK    3  A    between atoms: _22  and  _66
REMARK    4  A    between atoms: _27  and  _30
REMARK    5  A    between atoms: _32  and  _33
REMARK    6  A    between atoms: _38  and  _43
REMARK    7  A    between atoms: _43  and  _46
REMARK    8  A    between atoms: _53  and  _55
REMARK                            x       y       z     vdW  Elec       q    Type
REMARK                         _______ _______ _______ _____ _____    ______ ____
ROOT
ATOM     10  C   UNL     1      52.350  44.571  22.492  0.00  0.00    +0.038 A 
ATOM     11  C   UNL     1      51.353  44.056  21.624  0.00  0.00    +0.047 A 
ATOM     12  C   UNL     1      49.982  43.875  22.075  0.00  0.00    +0.035 A 
ATOM     32  C   UNL     1      49.661  44.232  23.418  0.00  0.00    +0.024 A 
ATOM     33  C   UNL     1      50.661  44.755  24.314  0.00  0.00    +0.007 A 
ATOM     34  C   UNL     1      52.016  44.933  23.875  0.00  0.00    -0.029 A 
ATOM     35  C   UNL     1      53.049  45.493  24.881  0.00  0.00    +0.045 C 
ENDROOT
BRANCH  10   9
ATOM      4  C   UNL     1      55.726  47.042  20.140  0.00  0.00    +0.077 A 
ATOM      5  C   UNL     1      54.816  48.106  19.831  0.00  0.00    +0.048 A 
ATOM      6  C   UNL     1      53.485  47.976  20.289  0.00  0.00    +0.116 A 
ATOM      7  N   UNL     1      53.106  46.860  21.003  0.00  0.00    -0.223 NA
ATOM      8  C   UNL     1      54.009  45.851  21.283  0.00  0.00    +0.220 A 
ATOM      9  N   UNL     1      53.650  44.723  22.006  0.00  0.00    -0.283 N 
ATOM     36  H   UNL     1      54.344  43.998  22.185  0.00  0.00    +0.155 HD
ATOM     37  N   UNL     1      55.284  45.951  20.855  0.00  0.00    -0.214 NA
BRANCH   4   3
ATOM      1  C   UNL     1      59.419  48.137  19.458  0.00  0.00    +0.020 A 
ATOM      2  C   UNL     1      58.036  48.196  19.871  0.00  0.00    +0.013 A 
ATOM      3  C   UNL     1      57.166  47.035  19.728  0.00  0.00    +0.019 A 
ATOM     38  C   UNL     1      57.731  45.821  19.160  0.00  0.00    +0.120 A 
ATOM     39  N   UNL     1      59.066  45.794  18.769  0.00  0.00    -0.263 NA
ATOM     40  C   UNL     1      59.912  46.905  18.900  0.00  0.00    +0.111 A 
ENDBRANCH   4   3
ENDBRANCH  10   9
BRANCH  12  13
ATOM     13  N   UNL     1      48.930  43.350  21.242  0.00  0.00    -0.281 N 
ATOM     14  C   UNL     1      48.278  43.980  20.195  0.00  0.00    +0.248 C 
ATOM     30  O   UNL     1      48.355  45.175  19.952  0.00  0.00    -0.270 OA
ATOM     31  H   UNL     1      48.629  42.397  21.449  0.00  0.00    +0.155 HD
BRANCH  14  15
ATOM     15  C   UNL     1      47.403  43.168  19.295  0.00  0.00    +0.037 A 
ATOM     16  C   UNL     1      46.237  42.449  19.816  0.00  0.00    +0.013 A 
ATOM     17  C   UNL     1      45.419  41.659  18.930  0.00  0.00    +0.005 A 
ATOM     18  C   UNL     1      45.765  41.585  17.512  0.00  0.00    -0.033 A 
ATOM     28  C   UNL     1      46.924  42.312  17.022  0.00  0.00    +0.005 A 
ATOM     29  C   UNL     1      47.728  43.087  17.887  0.00  0.00    +0.013 A 
BRANCH  18  19
ATOM     19  C   UNL     1      44.961  40.749  16.498  0.00  0.00    +0.119 C 
BRANCH  19  20
ATOM     20  N   UNL     1      43.474  40.885  16.526  0.00  0.00    -0.302 NA
ATOM     21  C   UNL     1      42.826  39.909  17.512  0.00  0.00    +0.066 C 
ATOM     22  C   UNL     1      41.273  40.081  17.544  0.00  0.00    -0.064 C 
ATOM     23  N   UNL     1      40.711  39.881  16.136  0.00  0.00    +0.379 N 
ATOM     24  C   UNL     1      39.245  39.984  16.173  0.00  0.00    -0.096 C 
ATOM     25  H   UNL     1      40.969  38.846  15.813  0.00  0.00    -0.082 HD
ATOM     26  C   UNL     1      41.352  40.846  15.148  0.00  0.00    -0.064 C 
ATOM     27  C   UNL     1      42.898  40.687  15.145  0.00  0.00    +0.066 C 
ENDBRANCH  19  20
ENDBRANCH  18  19
ENDBRANCH  14  15
ENDBRANCH  12  13
TORSDOF 6
ENDMDL
MODEL 4
REMARK VINA RESULT:      -9.3     14.449     18.168
REMARK  Name = C:\Users\Docking\Desktop\test protocol\1iep_ligandH.pdb
REMARK  8 active torsions:
REMARK  status: ('A' for Active; 'I' for Inactive)
REMARK    1  A    between atoms: _5  and  _11
REMARK    2  A    between atoms: _19  and  _21
REMARK    3  A    between atoms: _22  and  _66
REMARK    4  A    between atoms: _27  and  _30
REMARK    5  A    between atoms: _32  and  _33
REMARK    6  A    between atoms: _38  and  _43
REMARK    7  A    between atoms: _43  and  _46
REMARK    8  A    between atoms: _53  and  _55
REMARK                            x       y       z     vdW  Elec       q    Type
REMARK                         _______ _______ _______ _____ _____    ______ ____
ROOT
ATOM     10  C   UNL     1      51.816  46.241  22.950  0.00  0.00    +0.038 A 
ATOM     11  C   UNL     1      50.921  45.799  21.942  0.00  0.00    +0.047 A 
ATOM     12  C   UNL     1      49.859  44.851  22.242  0.00  0.00    +0.035 A 
ATOM     32  C   UNL     1      49.736  44.376  23.580  0.00  0.00    +0.024 A 
ATOM     33  C   UNL     1      50.637  44.813  24.616  0.00  0.00    +0.007 A 
ATOM     34  C   UNL     1      51.688  45.747  24.326  0.00  0.00    -0.029 A 
ATOM     35  C   UNL     1      52.629  46.176  25.475  0.00  0.00    +0.045 C 
ENDROOT
BRANCH  10   9
ATOM      4  C   UNL     1      53.339  50.686  21.972  0.00  0.00    +0.077 A 
ATOM      5  C   UNL     1      52.024  51.236  22.132  0.00  0.00    +0.048 A 
ATOM      6  C   UNL     1      50.981  50.340  22.459  0.00  0.00    +0.116 A 
ATOM      7  N   UNL     1      51.246  48.996  22.613  0.00  0.00    -0.223 NA
ATOM      8  C   UNL     1      52.526  48.499  22.449  0.00  0.00    +0.220 A 
ATOM      9  N   UNL     1      52.817  47.152  22.607  0.00  0.00    -0.283 N 
ATOM     36  H   UNL     1      53.773  46.824  22.470  0.00  0.00    +0.155 HD
ATOM     37  N   UNL     1      53.539  49.334  22.135  0.00  0.00    -0.214 NA
BRANCH   4   3
ATOM      1  C   UNL     1      57.017  51.778  21.211  0.00  0.00    +0.020 A 
ATOM      2  C   UNL     1      55.887  50.943  21.546  0.00  0.00    +0.013 A 
ATOM      3  C   UNL     1      54.545  51.505  21.630  0.00  0.00    +0.019 A 
ATOM     38  C   UNL     1      54.379  52.927  21.366  0.00  0.00    +0.120 A 
ATOM     39  N   UNL     1      55.487  53.707  21.047  0.00  0.00    -0.263 NA
ATOM     40  C   UNL     1      56.783  53.177  20.965  0.00  0.00    +0.111 A 
ENDBRANCH   4   3
ENDBRANCH  10   9
BRANCH  12  13
ATOM     13  N   UNL     1      48.926  44.360  21.258  0.00  0.00    -0.281 N 
ATOM     14  C   UNL     1      48.922  44.600  19.894  0.00  0.00    +0.248 C 
ATOM     30  O   UNL     1      49.601  45.452  19.340  0.00  0.00    -0.270 OA
ATOM     31  H   UNL     1      48.177  43.764  21.610  0.00  0.00    +0.155 HD
BRANCH  14  15
ATOM     15  C   UNL     1      48.024  43.786  19.020  0.00  0.00    +0.037 A 
ATOM     16  C   UNL     1      47.042  42.860  19.592  0.00  0.00    +0.013 A 
ATOM     17  C   UNL     1      46.199  42.074  18.726  0.00  0.00    +0.005 A 
ATOM     18  C   UNL     1      46.334  42.212  17.278  0.00  0.00    -0.033 A 
ATOM     28  C   UNL     1      47.312  43.141  16.737  0.00  0.00    +0.005 A 
ATOM     29  C   UNL     1      48.141  43.912  17.583  0.00  0.00    +0.013 A 
BRANCH  18  19
ATOM     19  C   UNL     1      45.491  41.397  16.279  0.00  0.00    +0.119 C 
BRANCH  19  20
ATOM     20  N   UNL     1      44.013  41.375  16.490  0.00  0.00    -0.302 NA
ATOM     21  C   UNL     1      43.593  40.305  17.502  0.00  0.00    +0.066 C 
ATOM     22  C   UNL     1      42.046  40.310  17.728  0.00  0.00    -0.064 C 
ATOM     23  N   UNL     1      41.338  40.097  16.389  0.00  0.00    +0.379 N 
ATOM     24  C   UNL     1      39.884  40.044  16.606  0.00  0.00    -0.096 C 
ATOM     25  H   UNL     1      41.657  39.106  15.991  0.00  0.00    -0.082 HD
ATOM     26  C   UNL     1      41.751  41.155  15.376  0.00  0.00    -0.064 C 
ATOM     27  C   UNL     1      43.293  41.161  15.181  0.00  0.00    +0.066 C 
ENDBRANCH  19  20
ENDBRANCH  18  19
ENDBRANCH  14  15
ENDBRANCH  12  13
TORSDOF 6
ENDMDL
MODEL 5
REMARK VINA RESULT:      -9.0     27.347     35.278
REMARK  Name = C:\Users\Docking\Desktop\test protocol\1iep_ligandH.pdb
REMARK  8 active torsions:
REMARK  status: ('A' for Active; 'I' for Inactive)
REMARK    1  A    between atoms: _5  and  _11
REMARK    2  A    between atoms: _19  and  _21
REMARK    3  A    between atoms: _22  and  _66
REMARK    4  A    between atoms: _27  and  _30
REMARK    5  A    between atoms: _32  and  _33
REMARK    6  A    between atoms: _38  and  _43
REMARK    7  A    between atoms: _43  and  _46
REMARK    8  A    between atoms: _53  and  _55
REMARK                            x       y       z     vdW  Elec       q    Type
REMARK                         _______ _______ _______ _____ _____    ______ ____
ROOT
ATOM     10  C   UNL     1      19.112  37.951  15.564  0.00  0.00    +0.038 A 
ATOM     11  C   UNL     1      17.956  37.458  14.906  0.00  0.00    +0.047 A 
ATOM     12  C   UNL     1      16.626  37.912  15.280  0.00  0.00    +0.035 A 
ATOM     32  C   UNL     1      16.509  38.871  16.328  0.00  0.00    +0.024 A 
ATOM     33  C   UNL     1      17.673  39.382  17.009  0.00  0.00    +0.007 A 
ATOM     34  C   UNL     1      18.987  38.936  16.646  0.00  0.00    -0.029 A 
ATOM     35  C   UNL     1      20.199  39.513  17.414  0.00  0.00    +0.045 C 
ENDROOT
BRANCH  10   9
ATOM      4  C   UNL     1      23.105  38.269  12.921  0.00  0.00    +0.077 A 
ATOM      5  C   UNL     1      22.645  39.457  12.261  0.00  0.00    +0.048 A 
ATOM      6  C   UNL     1      21.372  39.950  12.626  0.00  0.00    +0.116 A 
ATOM      7  N   UNL     1      20.624  39.296  13.581  0.00  0.00    -0.223 NA
ATOM      8  C   UNL     1      21.096  38.151  14.196  0.00  0.00    +0.220 A 
ATOM      9  N   UNL     1      20.365  37.481  15.164  0.00  0.00    -0.283 N 
ATOM     36  H   UNL     1      20.745  36.636  15.589  0.00  0.00    +0.155 HD
ATOM     37  N   UNL     1      22.308  37.660  13.864  0.00  0.00    -0.214 NA
BRANCH   4   3
ATOM      1  C   UNL     1      25.888  35.629  12.157  0.00  0.00    +0.020 A 
ATOM      2  C   UNL     1      24.586  36.197  12.418  0.00  0.00    +0.013 A 
ATOM      3  C   UNL     1      24.430  37.628  12.646  0.00  0.00    +0.019 A 
ATOM     38  C   UNL     1      25.621  38.463  12.601  0.00  0.00    +0.120 A 
ATOM     39  N   UNL     1      26.862  37.887  12.348  0.00  0.00    -0.263 NA
ATOM     40  C   UNL     1      27.024  36.511  12.129  0.00  0.00    +0.111 A 
ENDBRANCH   4   3
ENDBRANCH  10   9
BRANCH  12  13
ATOM     13  N   UNL     1      15.416  37.441  14.653  0.00  0.00    -0.281 N 
ATOM     14  C   UNL     1      14.462  38.184  13.977  0.00  0.00    +0.248 C 
ATOM     30  O   UNL     1      14.398  39.404  13.993  0.00  0.00    -0.270 OA
ATOM     31  H   UNL     1      15.241  36.438  14.716  0.00  0.00    +0.155 HD
BRANCH  14  15
ATOM     15  C   UNL     1      13.421  37.467  13.179  0.00  0.00    +0.037 A 
ATOM     16  C   UNL     1      12.239  36.885  13.820  0.00  0.00    +0.013 A 
ATOM     17  C   UNL     1      11.259  36.184  13.029  0.00  0.00    +0.005 A 
ATOM     18  C   UNL     1      11.456  36.064  11.587  0.00  0.00    -0.033 A 
ATOM     28  C   UNL     1      12.634  36.656  10.976  0.00  0.00    +0.005 A 
ATOM     29  C   UNL     1      13.598  37.342  11.748  0.00  0.00    +0.013 A 
BRANCH  18  19
ATOM     19  C   UNL     1      10.472  35.315  10.668  0.00  0.00    +0.119 C 
BRANCH  19  20
ATOM     20  N   UNL     1      10.827  35.218   9.221  0.00  0.00    -0.302 NA
ATOM     21  C   UNL     1      10.090  36.261   8.376  0.00  0.00    +0.066 C 
ATOM     22  C   UNL     1      10.490  36.159   6.869  0.00  0.00    -0.064 C 
ATOM     23  N   UNL     1      10.198  34.746   6.360  0.00  0.00    +0.379 N 
ATOM     24  C   UNL     1      10.519  34.664   4.928  0.00  0.00    -0.096 C 
ATOM     25  H   UNL     1       9.103  34.567   6.473  0.00  0.00    -0.082 HD
ATOM     26  C   UNL     1      10.925  33.702   7.196  0.00  0.00    -0.064 C 
ATOM     27  C   UNL     1      10.542  33.831   8.697  0.00  0.00    +0.066 C 
ENDBRANCH  19  20
ENDBRANCH  18  19
ENDBRANCH  14  15
ENDBRANCH  12  13
TORSDOF 6
ENDMDL
