MODEL 1
REMARK VINA RESULT:      -7.0      0.000      0.000
REMARK  Name = C:\Users\Docking\Desktop\test protocol\1iep_ligandH.pdb
REMARK  8 active torsions:
REMARK  status: ('A' for Active; 'I' for Inactive)
REMARK    1  A    between atoms: _5  and  _11
REMARK    2  A    between atoms: _19  and  _21
REMARK    3  A    between atoms: _22  and  _66
REMARK    4  A    between atoms: _27  and  _30
REMARK    5  A    between atoms: _32  and  _33
REMARK    6  A    between atoms: _38  and  _43
REMARK    7  A    between atoms: _43  and  _46
REMARK    8  A    between atoms: _53  and  _55
REMARK                            x       y       z     vdW  Elec       q    Type
REMARK                         _______ _______ _______ _____ _____    ______ ____
ROOT
ATOM     10  C   UNL     1    -136.729  43.530   0.401  0.00  0.00    +0.038 A 
ATOM     11  C   UNL     1    -137.051  44.734   1.078  0.00  0.00    +0.047 A 
ATOM     12  C   UNL     1    -138.405  44.997   1.542  0.00  0.00    +0.035 A 
ATOM     32  C   UNL     1    -139.405  44.010   1.302  0.00  0.00    +0.024 A 
ATOM     33  C   UNL     1    -139.094  42.781   0.615  0.00  0.00    +0.007 A 
ATOM     34  C   UNL     1    -137.762  42.517   0.152  0.00  0.00    -0.029 A 
ATOM     35  C   UNL     1    -137.488  41.185  -0.584  0.00  0.00    +0.045 C 
ENDROOT
BRANCH  10   9
ATOM      4  C   UNL     1    -133.192  44.028  -2.805  0.00  0.00    +0.077 A 
ATOM      5  C   UNL     1    -134.045  44.723  -3.726  0.00  0.00    +0.048 A 
ATOM      6  C   UNL     1    -135.388  44.926  -3.340  0.00  0.00    +0.116 A 
ATOM      7  N   UNL     1    -135.835  44.464  -2.121  0.00  0.00    -0.223 NA
ATOM      8  C   UNL     1    -134.987  43.796  -1.257  0.00  0.00    +0.220 A 
ATOM      9  N   UNL     1    -135.413  43.329  -0.023  0.00  0.00    -0.283 N 
ATOM     36  H   UNL     1    -134.758  42.834   0.583  0.00  0.00    +0.155 HD
ATOM     37  N   UNL     1    -133.700  43.588  -1.603  0.00  0.00    -0.214 NA
BRANCH   4   3
ATOM      1  C   UNL     1    -129.321  43.657  -2.380  0.00  0.00    +0.020 A 
ATOM      2  C   UNL     1    -130.702  43.952  -2.075  0.00  0.00    +0.013 A 
ATOM      3  C   UNL     1    -131.747  43.740  -3.069  0.00  0.00    +0.019 A 
ATOM     38  C   UNL     1    -131.357  43.223  -4.372  0.00  0.00    +0.120 A 
ATOM     39  N   UNL     1    -130.019  42.950  -4.638  0.00  0.00    -0.263 NA
ATOM     40  C   UNL     1    -129.005  43.152  -3.690  0.00  0.00    +0.111 A 
ENDBRANCH   4   3
ENDBRANCH  10   9
BRANCH  12  13
ATOM     13  N   UNL     1    -138.793  46.204   2.227  0.00  0.00    -0.281 N 
ATOM     14  C   UNL     1    -139.251  47.388   1.673  0.00  0.00    +0.248 C 
ATOM     30  O   UNL     1    -139.193  47.662   0.483  0.00  0.00    -0.270 OA
ATOM     31  H   UNL     1    -138.722  46.184   3.244  0.00  0.00    +0.155 HD
BRANCH  14  15
ATOM     15  C   UNL     1    -139.847  48.423   2.572  0.00  0.00    +0.037 A 
ATOM     16  C   UNL     1    -139.065  49.033   3.650  0.00  0.00    +0.013 A 
ATOM     17  C   UNL     1    -139.669  50.017   4.514  0.00  0.00    +0.005 A 
ATOM     18  C   UNL     1    -141.063  50.398   4.300  0.00  0.00    -0.033 A 
ATOM     28  C   UNL     1    -141.813  49.781   3.219  0.00  0.00    +0.005 A 
ATOM     29  C   UNL     1    -141.225  48.816   2.372  0.00  0.00    +0.013 A 
BRANCH  18  19
ATOM     19  C   UNL     1    -141.795  51.424   5.186  0.00  0.00    +0.119 C 
BRANCH  19  20
ATOM     20  N   UNL     1    -141.306  52.835   5.145  0.00  0.00    -0.302 NA
ATOM     21  C   UNL     1    -142.264  53.795   5.856  0.00  0.00    +0.066 C 
ATOM     22  C   UNL     1    -141.727  55.263   5.823  0.00  0.00    -0.064 C 
ATOM     23  N   UNL     1    -141.509  55.691   4.371  0.00  0.00    +0.379 N 
ATOM     24  C   UNL     1    -141.059  57.090   4.334  0.00  0.00    -0.096 C 
ATOM     25  H   UNL     1    -142.494  55.639   3.851  0.00  0.00    -0.082 HD
ATOM     26  C   UNL     1    -140.560  54.740   3.656  0.00  0.00    -0.064 C 
ATOM     27  C   UNL     1    -141.088  53.280   3.720  0.00  0.00    +0.066 C 
ENDBRANCH  19  20
ENDBRANCH  18  19
ENDBRANCH  14  15
ENDBRANCH  12  13
TORSDOF 6
ENDMDL
MODEL 2
REMARK VINA RESULT:      -6.9     23.961     30.463
REMARK  Name = C:\Users\Docking\Desktop\test protocol\1iep_ligandH.pdb
REMARK  8 active torsions:
REMARK  status: ('A' for Active; 'I' for Inactive)
REMARK    1  A    between atoms: _5  and  _11
REMARK    2  A    between atoms: _19  and  _21
REMARK    3  A    between atoms: _22  and  _66
REMARK    4  A    between atoms: _27  and  _30
REMARK    5  A    between atoms: _32  and  _33
REMARK    6  A    between atoms: _38  and  _43
REMARK    7  A    between atoms: _43  and  _46
REMARK    8  A    between atoms: _53  and  _55
REMARK                            x       y       z     vdW  Elec       q    Type
REMARK                         _______ _______ _______ _____ _____    ______ ____
ROOT
ATOM     10  C   UNL     1    -152.154  48.184  26.637  0.00  0.00    +0.038 A 
ATOM     11  C   UNL     1    -150.887  48.354  26.023  0.00  0.00    +0.047 A 
ATOM     12  C   UNL     1    -149.868  47.318  26.098  0.00  0.00    +0.035 A 
ATOM     32  C   UNL     1    -150.175  46.119  26.804  0.00  0.00    +0.024 A 
ATOM     33  C   UNL     1    -151.458  45.929  27.436  0.00  0.00    +0.007 A 
ATOM     34  C   UNL     1    -152.465  46.949  27.367  0.00  0.00    -0.029 A 
ATOM     35  C   UNL     1    -153.820  46.694  28.069  0.00  0.00    +0.045 C 
ENDROOT
BRANCH  10   9
ATOM      4  C   UNL     1    -154.081  52.322  28.119  0.00  0.00    +0.077 A 
ATOM      5  C   UNL     1    -153.152  52.434  29.206  0.00  0.00    +0.048 A 
ATOM      6  C   UNL     1    -152.199  51.401  29.354  0.00  0.00    +0.116 A 
ATOM      7  N   UNL     1    -152.184  50.341  28.474  0.00  0.00    -0.223 NA
ATOM      8  C   UNL     1    -153.095  50.264  27.436  0.00  0.00    +0.220 A 
ATOM      9  N   UNL     1    -153.094  49.211  26.534  0.00  0.00    -0.283 N 
ATOM     36  H   UNL     1    -153.788  49.186  25.787  0.00  0.00    +0.155 HD
ATOM     37  N   UNL     1    -154.017  51.236  27.275  0.00  0.00    -0.214 NA
BRANCH   4   3
ATOM      1  C   UNL     1    -156.481  55.399  28.395  0.00  0.00    +0.020 A 
ATOM      2  C   UNL     1    -155.443  54.448  28.722  0.00  0.00    +0.013 A 
ATOM      3  C   UNL     1    -155.145  53.335  27.829  0.00  0.00    +0.019 A 
ATOM     38  C   UNL     1    -155.922  53.211  26.605  0.00  0.00    +0.120 A 
ATOM     39  N   UNL     1    -156.916  54.141  26.318  0.00  0.00    -0.263 NA
ATOM     40  C   UNL     1    -157.213  55.215  27.170  0.00  0.00    +0.111 A 
ENDBRANCH   4   3
ENDBRANCH  10   9
BRANCH  12  13
ATOM     13  N   UNL     1    -148.562  47.439  25.500  0.00  0.00    -0.281 N 
ATOM     14  C   UNL     1    -147.364  47.744  26.126  0.00  0.00    +0.248 C 
ATOM     30  O   UNL     1    -147.270  48.171  27.267  0.00  0.00    -0.270 OA
ATOM     31  H   UNL     1    -148.514  47.280  24.494  0.00  0.00    +0.155 HD
BRANCH  14  15
ATOM     15  C   UNL     1    -146.087  47.561  25.371  0.00  0.00    +0.037 A 
ATOM     16  C   UNL     1    -146.075  46.969  24.031  0.00  0.00    +0.013 A 
ATOM     17  C   UNL     1    -144.828  46.788  23.331  0.00  0.00    +0.005 A 
ATOM     18  C   UNL     1    -143.582  47.202  23.971  0.00  0.00    -0.033 A 
ATOM     28  C   UNL     1    -143.623  47.791  25.299  0.00  0.00    +0.005 A 
ATOM     29  C   UNL     1    -144.843  47.969  25.988  0.00  0.00    +0.013 A 
BRANCH  18  19
ATOM     19  C   UNL     1    -142.203  47.027  23.307  0.00  0.00    +0.119 C 
BRANCH  19  20
ATOM     20  N   UNL     1    -141.005  47.426  24.104  0.00  0.00    -0.302 NA
ATOM     21  C   UNL     1    -140.192  48.523  23.411  0.00  0.00    +0.066 C 
ATOM     22  C   UNL     1    -138.955  48.943  24.270  0.00  0.00    -0.064 C 
ATOM     23  N   UNL     1    -138.085  47.714  24.542  0.00  0.00    +0.379 N 
ATOM     24  C   UNL     1    -136.891  48.117  25.299  0.00  0.00    -0.096 C 
ATOM     25  H   UNL     1    -137.743  47.318  23.557  0.00  0.00    -0.082 HD
ATOM     26  C   UNL     1    -138.886  46.618  25.228  0.00  0.00    -0.064 C 
ATOM     27  C   UNL     1    -140.129  46.228  24.381  0.00  0.00    +0.066 C 
ENDBRANCH  19  20
ENDBRANCH  18  19
ENDBRANCH  14  15
ENDBRANCH  12  13
TORSDOF 6
ENDMDL
MODEL 3
REMARK VINA RESULT:      -6.9     23.954     28.877
REMARK  Name = C:\Users\Docking\Desktop\test protocol\1iep_ligandH.pdb
REMARK  8 active torsions:
REMARK  status: ('A' for Active; 'I' for Inactive)
REMARK    1  A    between atoms: _5  and  _11
REMARK    2  A    between atoms: _19  and  _21
REMARK    3  A    between atoms: _22  and  _66
REMARK    4  A    between atoms: _27  and  _30
REMARK    5  A    between atoms: _32  and  _33
REMARK    6  A    between atoms: _38  and  _43
REMARK    7  A    between atoms: _43  and  _46
REMARK    8  A    between atoms: _53  and  _55
REMARK                            x       y       z     vdW  Elec       q    Type
REMARK                         _______ _______ _______ _____ _____    ______ ____
ROOT
ATOM     10  C   UNL     1    -149.310  46.882  24.469  0.00  0.00    +0.038 A 
ATOM     11  C   UNL     1    -147.995  47.401  24.584  0.00  0.00    +0.047 A 
ATOM     12  C   UNL     1    -146.831  46.542  24.430  0.00  0.00    +0.035 A 
ATOM     32  C   UNL     1    -147.043  45.159  24.158  0.00  0.00    +0.024 A 
ATOM     33  C   UNL     1    -148.372  44.614  24.039  0.00  0.00    +0.007 A 
ATOM     34  C   UNL     1    -149.524  45.456  24.192  0.00  0.00    -0.029 A 
ATOM     35  C   UNL     1    -150.926  44.817  24.060  0.00  0.00    +0.045 C 
ENDROOT
BRANCH  10   9
ATOM      4  C   UNL     1    -152.034  49.814  27.118  0.00  0.00    +0.077 A 
ATOM      5  C   UNL     1    -151.252  49.572  28.296  0.00  0.00    +0.048 A 
ATOM      6  C   UNL     1    -150.162  48.681  28.180  0.00  0.00    +0.116 A 
ATOM      7  N   UNL     1    -149.883  48.083  26.971  0.00  0.00    -0.223 NA
ATOM      8  C   UNL     1    -150.658  48.336  25.854  0.00  0.00    +0.220 A 
ATOM      9  N   UNL     1    -150.391  47.751  24.626  0.00  0.00    -0.283 N 
ATOM     36  H   UNL     1    -150.991  47.958  23.828  0.00  0.00    +0.155 HD
ATOM     37  N   UNL     1    -151.706  49.182  25.939  0.00  0.00    -0.214 NA
BRANCH   4   3
ATOM      1  C   UNL     1    -154.263  53.027  27.025  0.00  0.00    +0.020 A 
ATOM      2  C   UNL     1    -153.090  52.185  27.062  0.00  0.00    +0.013 A 
ATOM      3  C   UNL     1    -153.216  50.733  27.080  0.00  0.00    +0.019 A 
ATOM     38  C   UNL     1    -154.553  50.160  27.059  0.00  0.00    +0.120 A 
ATOM     39  N   UNL     1    -155.665  50.996  27.025  0.00  0.00    -0.263 NA
ATOM     40  C   UNL     1    -155.556  52.395  27.009  0.00  0.00    +0.111 A 
ENDBRANCH   4   3
ENDBRANCH  10   9
BRANCH  12  13
ATOM     13  N   UNL     1    -145.472  47.011  24.544  0.00  0.00    -0.281 N 
ATOM     14  C   UNL     1    -144.748  47.250  25.701  0.00  0.00    +0.248 C 
ATOM     30  O   UNL     1    -145.232  47.301  26.821  0.00  0.00    -0.270 OA
ATOM     31  H   UNL     1    -144.985  47.188  23.666  0.00  0.00    +0.155 HD
BRANCH  14  15
ATOM     15  C   UNL     1    -143.275  47.481  25.595  0.00  0.00    +0.037 A 
ATOM     16  C   UNL     1    -142.357  47.023  26.641  0.00  0.00    +0.013 A 
ATOM     17  C   UNL     1    -140.942  47.273  26.523  0.00  0.00    +0.005 A 
ATOM     18  C   UNL     1    -140.437  47.985  25.352  0.00  0.00    -0.033 A 
ATOM     28  C   UNL     1    -141.369  48.424  24.326  0.00  0.00    +0.005 A 
ATOM     29  C   UNL     1    -142.756  48.181  24.439  0.00  0.00    +0.013 A 
BRANCH  18  19
ATOM     19  C   UNL     1    -138.945  48.314  25.153  0.00  0.00    +0.119 C 
BRANCH  19  20
ATOM     20  N   UNL     1    -137.981  47.175  25.203  0.00  0.00    -0.302 NA
ATOM     21  C   UNL     1    -136.526  47.653  25.183  0.00  0.00    +0.066 C 
ATOM     22  C   UNL     1    -135.531  46.450  25.259  0.00  0.00    -0.064 C 
ATOM     23  N   UNL     1    -135.802  45.493  24.096  0.00  0.00    +0.379 N 
ATOM     24  C   UNL     1    -134.830  44.391  24.131  0.00  0.00    -0.096 C 
ATOM     25  H   UNL     1    -135.640  46.058  23.149  0.00  0.00    -0.082 HD
ATOM     26  C   UNL     1    -137.247  45.016  24.106  0.00  0.00    -0.064 C 
ATOM     27  C   UNL     1    -138.228  46.220  24.061  0.00  0.00    +0.066 C 
ENDBRANCH  19  20
ENDBRANCH  18  19
ENDBRANCH  14  15
ENDBRANCH  12  13
TORSDOF 6
ENDMDL
MODEL 4
REMARK VINA RESULT:      -6.7      1.532      2.088
REMARK  Name = C:\Users\Docking\Desktop\test protocol\1iep_ligandH.pdb
REMARK  8 active torsions:
REMARK  status: ('A' for Active; 'I' for Inactive)
REMARK    1  A    between atoms: _5  and  _11
REMARK    2  A    between atoms: _19  and  _21
REMARK    3  A    between atoms: _22  and  _66
REMARK    4  A    between atoms: _27  and  _30
REMARK    5  A    between atoms: _32  and  _33
REMARK    6  A    between atoms: _38  and  _43
REMARK    7  A    between atoms: _43  and  _46
REMARK    8  A    between atoms: _53  and  _55
REMARK                            x       y       z     vdW  Elec       q    Type
REMARK                         _______ _______ _______ _____ _____    ______ ____
ROOT
ATOM     10  C   UNL     1    -137.232  44.345   0.621  0.00  0.00    +0.038 A 
ATOM     11  C   UNL     1    -137.442  45.563   1.316  0.00  0.00    +0.047 A 
ATOM     12  C   UNL     1    -138.767  45.951   1.773  0.00  0.00    +0.035 A 
ATOM     32  C   UNL     1    -139.857  45.072   1.506  0.00  0.00    +0.024 A 
ATOM     33  C   UNL     1    -139.662  43.830   0.799  0.00  0.00    +0.007 A 
ATOM     34  C   UNL     1    -138.357  43.444   0.345  0.00  0.00    -0.029 A 
ATOM     35  C   UNL     1    -138.208  42.104  -0.414  0.00  0.00    +0.045 C 
ENDROOT
BRANCH  10   9
ATOM      4  C   UNL     1    -133.697  44.379  -2.626  0.00  0.00    +0.077 A 
ATOM      5  C   UNL     1    -134.505  45.074  -3.586  0.00  0.00    +0.048 A 
ATOM      6  C   UNL     1    -135.828  45.398  -3.207  0.00  0.00    +0.116 A 
ATOM      7  N   UNL     1    -136.296  45.049  -1.959  0.00  0.00    -0.223 NA
ATOM      8  C   UNL     1    -135.491  44.377  -1.058  0.00  0.00    +0.220 A 
ATOM      9  N   UNL     1    -135.938  44.023   0.205  0.00  0.00    -0.283 N 
ATOM     36  H   UNL     1    -135.316  43.521   0.838  0.00  0.00    +0.155 HD
ATOM     37  N   UNL     1    -134.225  44.055  -1.396  0.00  0.00    -0.214 NA
BRANCH   4   3
ATOM      1  C   UNL     1    -130.127  44.053  -4.190  0.00  0.00    +0.020 A 
ATOM      2  C   UNL     1    -131.493  44.480  -3.993  0.00  0.00    +0.013 A 
ATOM      3  C   UNL     1    -132.279  43.970  -2.876  0.00  0.00    +0.019 A 
ATOM     38  C   UNL     1    -131.648  43.023  -1.970  0.00  0.00    +0.120 A 
ATOM     39  N   UNL     1    -130.331  42.629  -2.185  0.00  0.00    -0.263 NA
ATOM     40  C   UNL     1    -129.565  43.112  -3.257  0.00  0.00    +0.111 A 
ENDBRANCH   4   3
ENDBRANCH  10   9
BRANCH  12  13
ATOM     13  N   UNL     1    -139.042  47.179   2.477  0.00  0.00    -0.281 N 
ATOM     14  C   UNL     1    -139.187  48.450   1.946  0.00  0.00    +0.248 C 
ATOM     30  O   UNL     1    -138.889  48.760   0.802  0.00  0.00    -0.270 OA
ATOM     31  H   UNL     1    -139.142  47.101   3.489  0.00  0.00    +0.155 HD
BRANCH  14  15
ATOM     15  C   UNL     1    -139.727  49.538   2.816  0.00  0.00    +0.037 A 
ATOM     16  C   UNL     1    -140.684  50.520   2.299  0.00  0.00    +0.013 A 
ATOM     17  C   UNL     1    -141.177  51.570   3.155  0.00  0.00    +0.005 A 
ATOM     18  C   UNL     1    -140.714  51.642   4.539  0.00  0.00    -0.033 A 
ATOM     28  C   UNL     1    -139.769  50.652   5.028  0.00  0.00    +0.005 A 
ATOM     29  C   UNL     1    -139.283  49.622   4.191  0.00  0.00    +0.013 A 
BRANCH  18  19
ATOM     19  C   UNL     1    -141.171  52.741   5.518  0.00  0.00    +0.119 C 
BRANCH  19  20
ATOM     20  N   UNL     1    -142.482  53.400   5.242  0.00  0.00    -0.302 NA
ATOM     21  C   UNL     1    -142.392  54.925   5.354  0.00  0.00    +0.066 C 
ATOM     22  C   UNL     1    -143.767  55.600   5.040  0.00  0.00    -0.064 C 
ATOM     23  N   UNL     1    -144.832  55.048   5.990  0.00  0.00    +0.379 N 
ATOM     24  C   UNL     1    -146.113  55.724   5.736  0.00  0.00    -0.096 C 
ATOM     25  H   UNL     1    -144.518  55.297   7.030  0.00  0.00    -0.082 HD
ATOM     26  C   UNL     1    -144.925  53.533   5.886  0.00  0.00    -0.064 C 
ATOM     27  C   UNL     1    -143.547  52.873   6.171  0.00  0.00    +0.066 C 
ENDBRANCH  19  20
ENDBRANCH  18  19
ENDBRANCH  14  15
ENDBRANCH  12  13
TORSDOF 6
ENDMDL
MODEL 5
REMARK VINA RESULT:      -6.6     24.248     29.421
REMARK  Name = C:\Users\Docking\Desktop\test protocol\1iep_ligandH.pdb
REMARK  8 active torsions:
REMARK  status: ('A' for Active; 'I' for Inactive)
REMARK    1  A    between atoms: _5  and  _11
REMARK    2  A    between atoms: _19  and  _21
REMARK    3  A    between atoms: _22  and  _66
REMARK    4  A    between atoms: _27  and  _30
REMARK    5  A    between atoms: _32  and  _33
REMARK    6  A    between atoms: _38  and  _43
REMARK    7  A    between atoms: _43  and  _46
REMARK    8  A    between atoms: _53  and  _55
REMARK                            x       y       z     vdW  Elec       q    Type
REMARK                         _______ _______ _______ _____ _____    ______ ____
ROOT
ATOM     10  C   UNL     1    -147.571  47.744  28.032  0.00  0.00    +0.038 A 
ATOM     11  C   UNL     1    -148.449  48.857  27.997  0.00  0.00    +0.047 A 
ATOM     12  C   UNL     1    -149.794  48.772  28.546  0.00  0.00    +0.035 A 
ATOM     32  C   UNL     1    -150.210  47.538  29.125  0.00  0.00    +0.024 A 
ATOM     33  C   UNL     1    -149.331  46.396  29.167  0.00  0.00    +0.007 A 
ATOM     34  C   UNL     1    -148.005  46.473  28.625  0.00  0.00    -0.029 A 
ATOM     35  C   UNL     1    -147.107  45.216  28.692  0.00  0.00    +0.045 C 
ENDROOT
BRANCH  10   9
ATOM      4  C   UNL     1    -144.459  47.432  24.391  0.00  0.00    +0.077 A 
ATOM      5  C   UNL     1    -145.463  46.928  23.498  0.00  0.00    +0.048 A 
ATOM      6  C   UNL     1    -146.766  46.756  24.018  0.00  0.00    +0.116 A 
ATOM      7  N   UNL     1    -147.033  47.069  25.333  0.00  0.00    -0.223 NA
ATOM      8  C   UNL     1    -146.042  47.552  26.167  0.00  0.00    +0.220 A 
ATOM      9  N   UNL     1    -146.291  47.881  27.490  0.00  0.00    -0.283 N 
ATOM     36  H   UNL     1    -145.531  48.228  28.075  0.00  0.00    +0.155 HD
ATOM     37  N   UNL     1    -144.790  47.724  25.695  0.00  0.00    -0.214 NA
BRANCH   4   3
ATOM      1  C   UNL     1    -140.713  48.558  24.412  0.00  0.00    +0.020 A 
ATOM      2  C   UNL     1    -142.076  48.354  24.847  0.00  0.00    +0.013 A 
ATOM      3  C   UNL     1    -143.037  47.671  23.989  0.00  0.00    +0.019 A 
ATOM     38  C   UNL     1    -142.583  47.204  22.688  0.00  0.00    +0.120 A 
ATOM     39  N   UNL     1    -141.266  47.417  22.295  0.00  0.00    -0.263 NA
ATOM     40  C   UNL     1    -140.332  48.074  23.111  0.00  0.00    +0.111 A 
ENDBRANCH   4   3
ENDBRANCH  10   9
BRANCH  12  13
ATOM     13  N   UNL     1    -150.733  49.866  28.532  0.00  0.00    -0.281 N 
ATOM     14  C   UNL     1    -151.600  50.232  27.516  0.00  0.00    +0.248 C 
ATOM     30  O   UNL     1    -151.548  49.799  26.374  0.00  0.00    -0.270 OA
ATOM     31  H   UNL     1    -150.761  50.441  29.374  0.00  0.00    +0.155 HD
BRANCH  14  15
ATOM     15  C   UNL     1    -152.670  51.234  27.805  0.00  0.00    +0.037 A 
ATOM     16  C   UNL     1    -153.375  51.243  29.090  0.00  0.00    +0.013 A 
ATOM     17  C   UNL     1    -154.415  52.210  29.337  0.00  0.00    +0.005 A 
ATOM     18  C   UNL     1    -154.757  53.176  28.296  0.00  0.00    -0.033 A 
ATOM     28  C   UNL     1    -154.038  53.148  27.033  0.00  0.00    +0.005 A 
ATOM     29  C   UNL     1    -153.019  52.201  26.787  0.00  0.00    +0.013 A 
BRANCH  18  19
ATOM     19  C   UNL     1    -155.868  54.230  28.465  0.00  0.00    +0.119 C 
BRANCH  19  20
ATOM     20  N   UNL     1    -155.817  55.088  29.686  0.00  0.00    -0.302 NA
ATOM     21  C   UNL     1    -157.075  55.947  29.838  0.00  0.00    +0.066 C 
ATOM     22  C   UNL     1    -157.015  56.821  31.133  0.00  0.00    -0.064 C 
ATOM     23  N   UNL     1    -155.762  57.698  31.095  0.00  0.00    +0.379 N 
ATOM     24  C   UNL     1    -155.733  58.563  32.283  0.00  0.00    -0.096 C 
ATOM     25  H   UNL     1    -155.837  58.356  30.199  0.00  0.00    -0.082 HD
ATOM     26  C   UNL     1    -154.506  56.851  30.942  0.00  0.00    -0.064 C 
ATOM     27  C   UNL     1    -154.589  55.965  29.668  0.00  0.00    +0.066 C 
ENDBRANCH  19  20
ENDBRANCH  18  19
ENDBRANCH  14  15
ENDBRANCH  12  13
TORSDOF 6
ENDMDL
