MODEL 1
REMARK VINA RESULT:     -10.2      0.000      0.000
REMARK  Name = C:\Users\Docking\Desktop\test protocol\1iep_ligandH.pdb
REMARK  8 active torsions:
REMARK  status: ('A' for Active; 'I' for Inactive)
REMARK    1  A    between atoms: _5  and  _11
REMARK    2  A    between atoms: _19  and  _21
REMARK    3  A    between atoms: _22  and  _66
REMARK    4  A    between atoms: _27  and  _30
REMARK    5  A    between atoms: _32  and  _33
REMARK    6  A    between atoms: _38  and  _43
REMARK    7  A    between atoms: _43  and  _46
REMARK    8  A    between atoms: _53  and  _55
REMARK                            x       y       z     vdW  Elec       q    Type
REMARK                         _______ _______ _______ _____ _____    ______ ____
ROOT
ATOM     10  C   UNL     1      -8.398  38.126  17.729  0.00  0.00    +0.038 A 
ATOM     11  C   UNL     1      -7.772  37.112  18.499  0.00  0.00    +0.047 A 
ATOM     12  C   UNL     1      -6.651  36.351  17.971  0.00  0.00    +0.035 A 
ATOM     32  C   UNL     1      -6.190  36.651  16.656  0.00  0.00    +0.024 A 
ATOM     33  C   UNL     1      -6.815  37.678  15.860  0.00  0.00    +0.007 A 
ATOM     34  C   UNL     1      -7.923  38.430  16.374  0.00  0.00    -0.029 A 
ATOM     35  C   UNL     1      -8.558  39.515  15.473  0.00  0.00    +0.045 C 
ENDROOT
BRANCH  10   9
ATOM      4  C   UNL     1     -10.207  41.721  20.346  0.00  0.00    +0.077 A 
ATOM      5  C   UNL     1      -8.902  42.233  20.653  0.00  0.00    +0.048 A 
ATOM      6  C   UNL     1      -7.791  41.538  20.124  0.00  0.00    +0.116 A 
ATOM      7  N   UNL     1      -7.983  40.416  19.347  0.00  0.00    -0.223 NA
ATOM      8  C   UNL     1      -9.255  39.948  19.071  0.00  0.00    +0.220 A 
ATOM      9  N   UNL     1      -9.471  38.826  18.286  0.00  0.00    -0.283 N 
ATOM     36  H   UNL     1     -10.424  38.508  18.112  0.00  0.00    +0.155 HD
ATOM     37  N   UNL     1     -10.332  40.593  19.566  0.00  0.00    -0.214 NA
BRANCH   4   3
ATOM      1  C   UNL     1     -12.768  43.941  22.298  0.00  0.00    +0.020 A 
ATOM      2  C   UNL     1     -11.513  43.368  21.868  0.00  0.00    +0.013 A 
ATOM      3  C   UNL     1     -11.478  42.347  20.829  0.00  0.00    +0.019 A 
ATOM     38  C   UNL     1     -12.740  41.924  20.240  0.00  0.00    +0.120 A 
ATOM     39  N   UNL     1     -13.933  42.492  20.675  0.00  0.00    -0.263 NA
ATOM     40  C   UNL     1     -13.980  43.475  21.676  0.00  0.00    +0.111 A 
ENDBRANCH   4   3
ENDBRANCH  10   9
BRANCH  12  13
ATOM     13  N   UNL     1      -5.981  35.305  18.703  0.00  0.00    -0.281 N 
ATOM     14  C   UNL     1      -5.618  35.298  20.040  0.00  0.00    +0.248 C 
ATOM     30  O   UNL     1      -5.623  36.284  20.762  0.00  0.00    -0.270 OA
ATOM     31  H   UNL     1      -5.747  34.467  18.171  0.00  0.00    +0.155 HD
BRANCH  14  15
ATOM     15  C   UNL     1      -5.170  34.015  20.660  0.00  0.00    +0.037 A 
ATOM     16  C   UNL     1      -4.446  33.998  21.934  0.00  0.00    +0.013 A 
ATOM     17  C   UNL     1      -4.011  32.747  22.502  0.00  0.00    +0.005 A 
ATOM     18  C   UNL     1      -4.300  31.501  21.797  0.00  0.00    -0.033 A 
ATOM     28  C   UNL     1      -5.024  31.546  20.537  0.00  0.00    +0.005 A 
ATOM     29  C   UNL     1      -5.451  32.770  19.977  0.00  0.00    +0.013 A 
BRANCH  18  19
ATOM     19  C   UNL     1      -3.855  30.122  22.318  0.00  0.00    +0.119 C 
BRANCH  19  20
ATOM     20  N   UNL     1      -4.818  29.373  23.179  0.00  0.00    -0.302 NA
ATOM     21  C   UNL     1      -4.105  28.497  24.213  0.00  0.00    +0.066 C 
ATOM     22  C   UNL     1      -5.128  27.738  25.119  0.00  0.00    -0.064 C 
ATOM     23  N   UNL     1      -6.054  26.894  24.242  0.00  0.00    +0.379 N 
ATOM     24  C   UNL     1      -6.980  26.135  25.095  0.00  0.00    -0.096 C 
ATOM     25  H   UNL     1      -5.422  26.160  23.691  0.00  0.00    -0.082 HD
ATOM     26  C   UNL     1      -6.766  27.757  23.210  0.00  0.00    -0.064 C 
ATOM     27  C   UNL     1      -5.741  28.529  22.333  0.00  0.00    +0.066 C 
ENDBRANCH  19  20
ENDBRANCH  18  19
ENDBRANCH  14  15
ENDBRANCH  12  13
TORSDOF 6
ENDMDL
MODEL 2
REMARK VINA RESULT:      -9.8      2.293     11.665
REMARK  Name = C:\Users\Docking\Desktop\test protocol\1iep_ligandH.pdb
REMARK  8 active torsions:
REMARK  status: ('A' for Active; 'I' for Inactive)
REMARK    1  A    between atoms: _5  and  _11
REMARK    2  A    between atoms: _19  and  _21
REMARK    3  A    between atoms: _22  and  _66
REMARK    4  A    between atoms: _27  and  _30
REMARK    5  A    between atoms: _32  and  _33
REMARK    6  A    between atoms: _38  and  _43
REMARK    7  A    between atoms: _43  and  _46
REMARK    8  A    between atoms: _53  and  _55
REMARK                            x       y       z     vdW  Elec       q    Type
REMARK                         _______ _______ _______ _____ _____    ______ ____
ROOT
ATOM     10  C   UNL     1      -6.584  34.181  19.577  0.00  0.00    +0.038 A 
ATOM     11  C   UNL     1      -7.097  35.446  19.962  0.00  0.00    +0.047 A 
ATOM     12  C   UNL     1      -6.926  36.617  19.115  0.00  0.00    +0.035 A 
ATOM     32  C   UNL     1      -6.229  36.462  17.881  0.00  0.00    +0.024 A 
ATOM     33  C   UNL     1      -5.700  35.184  17.475  0.00  0.00    +0.007 A 
ATOM     34  C   UNL     1      -5.864  34.026  18.307  0.00  0.00    -0.029 A 
ATOM     35  C   UNL     1      -5.271  32.682  17.824  0.00  0.00    +0.045 C 
ENDROOT
BRANCH  10   9
ATOM      4  C   UNL     1      -5.101  31.184  23.019  0.00  0.00    +0.077 A 
ATOM      5  C   UNL     1      -3.822  31.828  23.111  0.00  0.00    +0.048 A 
ATOM      6  C   UNL     1      -3.584  32.922  22.250  0.00  0.00    +0.116 A 
ATOM      7  N   UNL     1      -4.558  33.334  21.367  0.00  0.00    -0.223 NA
ATOM      8  C   UNL     1      -5.780  32.689  21.303  0.00  0.00    +0.220 A 
ATOM      9  N   UNL     1      -6.778  33.091  20.428  0.00  0.00    -0.283 N 
ATOM     36  H   UNL     1      -7.663  32.585  20.406  0.00  0.00    +0.155 HD
ATOM     37  N   UNL     1      -6.032  31.641  22.113  0.00  0.00    -0.214 NA
BRANCH   4   3
ATOM      1  C   UNL     1      -5.157  27.690  24.777  0.00  0.00    +0.020 A 
ATOM      2  C   UNL     1      -4.723  28.788  23.945  0.00  0.00    +0.013 A 
ATOM      3  C   UNL     1      -5.504  30.016  23.865  0.00  0.00    +0.019 A 
ATOM     38  C   UNL     1      -6.729  30.101  24.646  0.00  0.00    +0.120 A 
ATOM     39  N   UNL     1      -7.122  29.026  25.438  0.00  0.00    -0.263 NA
ATOM     40  C   UNL     1      -6.379  27.839  25.521  0.00  0.00    +0.111 A 
ENDBRANCH   4   3
ENDBRANCH  10   9
BRANCH  12  13
ATOM     13  N   UNL     1      -7.418  37.928  19.457  0.00  0.00    -0.281 N 
ATOM     14  C   UNL     1      -8.321  38.709  18.755  0.00  0.00    +0.248 C 
ATOM     30  O   UNL     1      -8.683  38.486  17.609  0.00  0.00    -0.270 OA
ATOM     31  H   UNL     1      -7.056  38.330  20.322  0.00  0.00    +0.155 HD
BRANCH  14  15
ATOM     15  C   UNL     1      -8.894  39.921  19.415  0.00  0.00    +0.037 A 
ATOM     16  C   UNL     1     -10.341  40.084  19.579  0.00  0.00    +0.013 A 
ATOM     17  C   UNL     1     -10.869  41.271  20.205  0.00  0.00    +0.005 A 
ATOM     18  C   UNL     1      -9.948  42.304  20.672  0.00  0.00    -0.033 A 
ATOM     28  C   UNL     1      -8.517  42.114  20.501  0.00  0.00    +0.005 A 
ATOM     29  C   UNL     1      -7.996  40.953  19.888  0.00  0.00    +0.013 A 
BRANCH  18  19
ATOM     19  C   UNL     1     -10.423  43.612  21.332  0.00  0.00    +0.119 C 
BRANCH  19  20
ATOM     20  N   UNL     1     -10.850  43.542  22.761  0.00  0.00    -0.302 NA
ATOM     21  C   UNL     1     -10.067  42.483  23.543  0.00  0.00    +0.066 C 
ATOM     22  C   UNL     1     -10.510  42.438  25.041  0.00  0.00    -0.064 C 
ATOM     23  N   UNL     1     -12.013  42.166  25.118  0.00  0.00    +0.379 N 
ATOM     24  C   UNL     1     -12.423  42.066  26.526  0.00  0.00    -0.096 C 
ATOM     25  H   UNL     1     -12.202  41.177  24.639  0.00  0.00    -0.082 HD
ATOM     26  C   UNL     1     -12.799  43.213  24.341  0.00  0.00    -0.064 C 
ATOM     27  C   UNL     1     -12.330  43.270  22.860  0.00  0.00    +0.066 C 
ENDBRANCH  19  20
ENDBRANCH  18  19
ENDBRANCH  14  15
ENDBRANCH  12  13
TORSDOF 6
ENDMDL
MODEL 3
REMARK VINA RESULT:      -9.5      3.004     12.050
REMARK  Name = C:\Users\Docking\Desktop\test protocol\1iep_ligandH.pdb
REMARK  8 active torsions:
REMARK  status: ('A' for Active; 'I' for Inactive)
REMARK    1  A    between atoms: _5  and  _11
REMARK    2  A    between atoms: _19  and  _21
REMARK    3  A    between atoms: _22  and  _66
REMARK    4  A    between atoms: _27  and  _30
REMARK    5  A    between atoms: _32  and  _33
REMARK    6  A    between atoms: _38  and  _43
REMARK    7  A    between atoms: _43  and  _46
REMARK    8  A    between atoms: _53  and  _55
REMARK                            x       y       z     vdW  Elec       q    Type
REMARK                         _______ _______ _______ _____ _____    ______ ____
ROOT
ATOM     10  C   UNL     1      -4.762  30.596  21.985  0.00  0.00    +0.038 A 
ATOM     11  C   UNL     1      -5.041  31.700  21.139  0.00  0.00    +0.047 A 
ATOM     12  C   UNL     1      -4.047  32.734  20.898  0.00  0.00    +0.035 A 
ATOM     32  C   UNL     1      -2.777  32.611  21.533  0.00  0.00    +0.024 A 
ATOM     33  C   UNL     1      -2.477  31.497  22.397  0.00  0.00    +0.007 A 
ATOM     34  C   UNL     1      -3.454  30.475  22.641  0.00  0.00    -0.029 A 
ATOM     35  C   UNL     1      -3.080  29.306  23.581  0.00  0.00    +0.045 C 
ENDROOT
BRANCH  10   9
ATOM      4  C   UNL     1      -8.262  28.593  24.587  0.00  0.00    +0.077 A 
ATOM      5  C   UNL     1      -8.082  29.530  25.659  0.00  0.00    +0.048 A 
ATOM      6  C   UNL     1      -7.073  30.507  25.504  0.00  0.00    +0.116 A 
ATOM      7  N   UNL     1      -6.308  30.536  24.359  0.00  0.00    -0.223 NA
ATOM      8  C   UNL     1      -6.506  29.617  23.345  0.00  0.00    +0.220 A 
ATOM      9  N   UNL     1      -5.754  29.633  22.181  0.00  0.00    -0.283 N 
ATOM     36  H   UNL     1      -5.926  28.933  21.459  0.00  0.00    +0.155 HD
ATOM     37  N   UNL     1      -7.462  28.673  23.469  0.00  0.00    -0.214 NA
BRANCH   4   3
ATOM      1  C   UNL     1     -10.312  25.383  23.695  0.00  0.00    +0.020 A 
ATOM      2  C   UNL     1      -9.298  26.411  23.637  0.00  0.00    +0.013 A 
ATOM      3  C   UNL     1      -9.289  27.504  24.601  0.00  0.00    +0.019 A 
ATOM     38  C   UNL     1     -10.329  27.528  25.619  0.00  0.00    +0.120 A 
ATOM     39  N   UNL     1     -11.294  26.526  25.649  0.00  0.00    -0.263 NA
ATOM     40  C   UNL     1     -11.313  25.470  24.725  0.00  0.00    +0.111 A 
ENDBRANCH   4   3
ENDBRANCH  10   9
BRANCH  12  13
ATOM     13  N   UNL     1      -4.276  33.881  20.055  0.00  0.00    -0.281 N 
ATOM     14  C   UNL     1      -4.838  33.910  18.789  0.00  0.00    +0.248 C 
ATOM     30  O   UNL     1      -5.035  32.921  18.098  0.00  0.00    -0.270 OA
ATOM     31  H   UNL     1      -3.989  34.782  20.438  0.00  0.00    +0.155 HD
BRANCH  14  15
ATOM     15  C   UNL     1      -5.224  35.228  18.200  0.00  0.00    +0.037 A 
ATOM     16  C   UNL     1      -4.948  36.484  18.902  0.00  0.00    +0.013 A 
ATOM     17  C   UNL     1      -5.346  37.741  18.319  0.00  0.00    +0.005 A 
ATOM     18  C   UNL     1      -6.024  37.747  17.025  0.00  0.00    -0.033 A 
ATOM     28  C   UNL     1      -6.281  36.487  16.348  0.00  0.00    +0.005 A 
ATOM     29  C   UNL     1      -5.893  35.253  16.917  0.00  0.00    +0.013 A 
BRANCH  18  19
ATOM     19  C   UNL     1      -6.503  39.040  16.338  0.00  0.00    +0.119 C 
BRANCH  19  20
ATOM     20  N   UNL     1      -7.798  39.621  16.803  0.00  0.00    -0.302 NA
ATOM     21  C   UNL     1      -8.930  38.590  16.786  0.00  0.00    +0.066 C 
ATOM     22  C   UNL     1     -10.271  39.210  17.297  0.00  0.00    -0.064 C 
ATOM     23  N   UNL     1     -10.631  40.422  16.436  0.00  0.00    +0.379 N 
ATOM     24  C   UNL     1     -11.921  40.972  16.876  0.00  0.00    -0.096 C 
ATOM     25  H   UNL     1     -10.755  40.066  15.387  0.00  0.00    -0.082 HD
ATOM     26  C   UNL     1      -9.509  41.451  16.444  0.00  0.00    -0.064 C 
ATOM     27  C   UNL     1      -8.174  40.818  15.963  0.00  0.00    +0.066 C 
ENDBRANCH  19  20
ENDBRANCH  18  19
ENDBRANCH  14  15
ENDBRANCH  12  13
TORSDOF 6
ENDMDL
MODEL 4
REMARK VINA RESULT:      -9.4      2.683     12.930
REMARK  Name = C:\Users\Docking\Desktop\test protocol\1iep_ligandH.pdb
REMARK  8 active torsions:
REMARK  status: ('A' for Active; 'I' for Inactive)
REMARK    1  A    between atoms: _5  and  _11
REMARK    2  A    between atoms: _19  and  _21
REMARK    3  A    between atoms: _22  and  _66
REMARK    4  A    between atoms: _27  and  _30
REMARK    5  A    between atoms: _32  and  _33
REMARK    6  A    between atoms: _38  and  _43
REMARK    7  A    between atoms: _43  and  _46
REMARK    8  A    between atoms: _53  and  _55
REMARK                            x       y       z     vdW  Elec       q    Type
REMARK                         _______ _______ _______ _____ _____    ______ ____
ROOT
ATOM     10  C   UNL     1      -6.768  34.251  19.331  0.00  0.00    +0.038 A 
ATOM     11  C   UNL     1      -7.497  35.386  19.771  0.00  0.00    +0.047 A 
ATOM     12  C   UNL     1      -7.463  36.636  19.028  0.00  0.00    +0.035 A 
ATOM     32  C   UNL     1      -6.678  36.695  17.840  0.00  0.00    +0.024 A 
ATOM     33  C   UNL     1      -5.930  35.552  17.379  0.00  0.00    +0.007 A 
ATOM     34  C   UNL     1      -5.958  34.316  18.108  0.00  0.00    -0.029 A 
ATOM     35  C   UNL     1      -5.132  33.125  17.571  0.00  0.00    +0.045 C 
ENDROOT
BRANCH  10   9
ATOM      4  C   UNL     1      -5.006  31.204  22.594  0.00  0.00    +0.077 A 
ATOM      5  C   UNL     1      -3.836  32.009  22.800  0.00  0.00    +0.048 A 
ATOM      6  C   UNL     1      -3.722  33.195  22.041  0.00  0.00    +0.116 A 
ATOM      7  N   UNL     1      -4.712  33.542  21.146  0.00  0.00    -0.223 NA
ATOM      8  C   UNL     1      -5.826  32.743  20.971  0.00  0.00    +0.220 A 
ATOM      9  N   UNL     1      -6.837  33.076  20.082  0.00  0.00    -0.283 N 
ATOM     36  H   UNL     1      -7.640  32.456  19.976  0.00  0.00    +0.155 HD
ATOM     37  N   UNL     1      -5.957  31.604  21.682  0.00  0.00    -0.214 NA
BRANCH   4   3
ATOM      1  C   UNL     1      -4.833  28.279  25.185  0.00  0.00    +0.020 A 
ATOM      2  C   UNL     1      -4.537  29.526  24.518  0.00  0.00    +0.013 A 
ATOM      3  C   UNL     1      -5.271  29.924  23.323  0.00  0.00    +0.019 A 
ATOM     38  C   UNL     1      -6.307  29.031  22.826  0.00  0.00    +0.120 A 
ATOM     39  N   UNL     1      -6.568  27.836  23.488  0.00  0.00    -0.263 NA
ATOM     40  C   UNL     1      -5.868  27.441  24.638  0.00  0.00    +0.111 A 
ENDBRANCH   4   3
ENDBRANCH  10   9
BRANCH  12  13
ATOM     13  N   UNL     1      -8.175  37.823  19.431  0.00  0.00    -0.281 N 
ATOM     14  C   UNL     1      -7.670  39.101  19.608  0.00  0.00    +0.248 C 
ATOM     30  O   UNL     1      -6.479  39.373  19.654  0.00  0.00    -0.270 OA
ATOM     31  H   UNL     1      -9.173  37.708  19.607  0.00  0.00    +0.155 HD
BRANCH  14  15
ATOM     15  C   UNL     1      -8.625  40.239  19.772  0.00  0.00    +0.037 A 
ATOM     16  C   UNL     1     -10.065  40.056  19.578  0.00  0.00    +0.013 A 
ATOM     17  C   UNL     1     -10.963  41.174  19.726  0.00  0.00    +0.005 A 
ATOM     18  C   UNL     1     -10.421  42.486  20.072  0.00  0.00    -0.033 A 
ATOM     28  C   UNL     1      -8.988  42.638  20.264  0.00  0.00    +0.005 A 
ATOM     29  C   UNL     1      -8.106  41.545  20.119  0.00  0.00    +0.013 A 
BRANCH  18  19
ATOM     19  C   UNL     1     -11.302  43.740  20.230  0.00  0.00    +0.119 C 
BRANCH  19  20
ATOM     20  N   UNL     1     -10.799  45.009  19.626  0.00  0.00    -0.302 NA
ATOM     21  C   UNL     1     -11.462  46.243  20.245  0.00  0.00    +0.066 C 
ATOM     22  C   UNL     1     -10.908  47.563  19.618  0.00  0.00    -0.064 C 
ATOM     23  N   UNL     1     -11.124  47.535  18.104  0.00  0.00    +0.379 N 
ATOM     24  C   UNL     1     -10.656  48.799  17.518  0.00  0.00    -0.096 C 
ATOM     25  H   UNL     1     -12.221  47.462  17.920  0.00  0.00    -0.082 HD
ATOM     26  C   UNL     1     -10.470  46.310  17.480  0.00  0.00    -0.064 C 
ATOM     27  C   UNL     1     -11.006  45.005  18.131  0.00  0.00    +0.066 C 
ENDBRANCH  19  20
ENDBRANCH  18  19
ENDBRANCH  14  15
ENDBRANCH  12  13
TORSDOF 6
ENDMDL
MODEL 5
REMARK VINA RESULT:      -9.3      3.888     12.282
REMARK  Name = C:\Users\Docking\Desktop\test protocol\1iep_ligandH.pdb
REMARK  8 active torsions:
REMARK  status: ('A' for Active; 'I' for Inactive)
REMARK    1  A    between atoms: _5  and  _11
REMARK    2  A    between atoms: _19  and  _21
REMARK    3  A    between atoms: _22  and  _66
REMARK    4  A    between atoms: _27  and  _30
REMARK    5  A    between atoms: _32  and  _33
REMARK    6  A    between atoms: _38  and  _43
REMARK    7  A    between atoms: _43  and  _46
REMARK    8  A    between atoms: _53  and  _55
REMARK                            x       y       z     vdW  Elec       q    Type
REMARK                         _______ _______ _______ _____ _____    ______ ____
ROOT
ATOM     10  C   UNL     1      -4.887  30.683  22.002  0.00  0.00    +0.038 A 
ATOM     11  C   UNL     1      -5.238  31.879  21.326  0.00  0.00    +0.047 A 
ATOM     12  C   UNL     1      -4.260  32.933  21.103  0.00  0.00    +0.035 A 
ATOM     32  C   UNL     1      -2.932  32.733  21.581  0.00  0.00    +0.024 A 
ATOM     33  C   UNL     1      -2.558  31.524  22.271  0.00  0.00    +0.007 A 
ATOM     34  C   UNL     1      -3.519  30.482  22.495  0.00  0.00    -0.029 A 
ATOM     35  C   UNL     1      -3.064  29.209  23.247  0.00  0.00    +0.045 C 
ENDROOT
BRANCH  10   9
ATOM      4  C   UNL     1      -8.314  28.567  24.613  0.00  0.00    +0.077 A 
ATOM      5  C   UNL     1      -8.119  29.471  25.710  0.00  0.00    +0.048 A 
ATOM      6  C   UNL     1      -7.122  30.461  25.565  0.00  0.00    +0.116 A 
ATOM      7  N   UNL     1      -6.381  30.533  24.405  0.00  0.00    -0.223 NA
ATOM      8  C   UNL     1      -6.594  29.645  23.367  0.00  0.00    +0.220 A 
ATOM      9  N   UNL     1      -5.866  29.704  22.188  0.00  0.00    -0.283 N 
ATOM     36  H   UNL     1      -6.048  29.026  21.449  0.00  0.00    +0.155 HD
ATOM     37  N   UNL     1      -7.539  28.689  23.481  0.00  0.00    -0.214 NA
BRANCH   4   3
ATOM      1  C   UNL     1     -10.327  25.342  23.691  0.00  0.00    +0.020 A 
ATOM      2  C   UNL     1      -9.322  26.379  23.646  0.00  0.00    +0.013 A 
ATOM      3  C   UNL     1      -9.331  27.468  24.614  0.00  0.00    +0.019 A 
ATOM     38  C   UNL     1     -10.380  27.480  25.622  0.00  0.00    +0.120 A 
ATOM     39  N   UNL     1     -11.336  26.469  25.640  0.00  0.00    -0.263 NA
ATOM     40  C   UNL     1     -11.338  25.416  24.713  0.00  0.00    +0.111 A 
ENDBRANCH   4   3
ENDBRANCH  10   9
BRANCH  12  13
ATOM     13  N   UNL     1      -4.561  34.172  20.431  0.00  0.00    -0.281 N 
ATOM     14  C   UNL     1      -5.127  34.346  19.178  0.00  0.00    +0.248 C 
ATOM     30  O   UNL     1      -5.266  33.455  18.353  0.00  0.00    -0.270 OA
ATOM     31  H   UNL     1      -4.328  35.025  20.939  0.00  0.00    +0.155 HD
BRANCH  14  15
ATOM     15  C   UNL     1      -5.594  35.709  18.780  0.00  0.00    +0.037 A 
ATOM     16  C   UNL     1      -5.801  36.060  17.373  0.00  0.00    +0.013 A 
ATOM     17  C   UNL     1      -6.235  37.387  17.014  0.00  0.00    +0.005 A 
ATOM     18  C   UNL     1      -6.467  38.373  18.067  0.00  0.00    -0.033 A 
ATOM     28  C   UNL     1      -6.259  37.996  19.455  0.00  0.00    +0.005 A 
ATOM     29  C   UNL     1      -5.832  36.697  19.810  0.00  0.00    +0.013 A 
BRANCH  18  19
ATOM     19  C   UNL     1      -6.911  39.819  17.776  0.00  0.00    +0.119 C 
BRANCH  19  20
ATOM     20  N   UNL     1      -5.959  40.687  17.020  0.00  0.00    -0.302 NA
ATOM     21  C   UNL     1      -6.106  40.519  15.505  0.00  0.00    +0.066 C 
ATOM     22  C   UNL     1      -5.119  41.451  14.730  0.00  0.00    -0.064 C 
ATOM     23  N   UNL     1      -3.686  41.150  15.172  0.00  0.00    +0.379 N 
ATOM     24  C   UNL     1      -2.750  41.985  14.403  0.00  0.00    -0.096 C 
ATOM     25  H   UNL     1      -3.472  40.085  14.923  0.00  0.00    -0.082 HD
ATOM     26  C   UNL     1      -3.531  41.312  16.677  0.00  0.00    -0.064 C 
ATOM     27  C   UNL     1      -4.537  40.404  17.437  0.00  0.00    +0.066 C 
ENDBRANCH  19  20
ENDBRANCH  18  19
ENDBRANCH  14  15
ENDBRANCH  12  13
TORSDOF 6
ENDMDL
