MODEL 1
REMARK VINA RESULT:      -9.8      0.000      0.000
REMARK  Name = C:\Users\Docking\Desktop\test protocol\1iep_ligandH.pdb
REMARK  8 active torsions:
REMARK  status: ('A' for Active; 'I' for Inactive)
REMARK    1  A    between atoms: _5  and  _11
REMARK    2  A    between atoms: _19  and  _21
REMARK    3  A    between atoms: _22  and  _66
REMARK    4  A    between atoms: _27  and  _30
REMARK    5  A    between atoms: _32  and  _33
REMARK    6  A    between atoms: _38  and  _43
REMARK    7  A    between atoms: _43  and  _46
REMARK    8  A    between atoms: _53  and  _55
REMARK                            x       y       z     vdW  Elec       q    Type
REMARK                         _______ _______ _______ _____ _____    ______ ____
ROOT
ATOM     10  C   UNL     1      45.004 158.329  44.570  0.00  0.00    +0.038 A 
ATOM     11  C   UNL     1      45.176 156.927  44.693  0.00  0.00    +0.047 A 
ATOM     12  C   UNL     1      44.558 156.007  43.751  0.00  0.00    +0.035 A 
ATOM     32  C   UNL     1      43.773 156.551  42.692  0.00  0.00    +0.024 A 
ATOM     33  C   UNL     1      43.587 157.974  42.553  0.00  0.00    +0.007 A 
ATOM     34  C   UNL     1      44.192 158.886  43.481  0.00  0.00    -0.029 A 
ATOM     35  C   UNL     1      43.953 160.401  43.286  0.00  0.00    +0.045 C 
ENDROOT
BRANCH  10   9
ATOM      4  C   UNL     1      44.924 161.026  48.540  0.00  0.00    +0.077 A 
ATOM      5  C   UNL     1      43.530 160.767  48.759  0.00  0.00    +0.048 A 
ATOM      6  C   UNL     1      42.869 159.941  47.823  0.00  0.00    +0.116 A 
ATOM      7  N   UNL     1      43.560 159.418  46.752  0.00  0.00    -0.223 NA
ATOM      8  C   UNL     1      44.903 159.688  46.569  0.00  0.00    +0.220 A 
ATOM      9  N   UNL     1      45.620 159.166  45.503  0.00  0.00    -0.283 N 
ATOM     36  H   UNL     1      46.608 159.396  45.399  0.00  0.00    +0.155 HD
ATOM     37  N   UNL     1      45.557 160.476  47.448  0.00  0.00    -0.214 NA
BRANCH   4   3
ATOM      1  C   UNL     1      46.057 163.728  51.131  0.00  0.00    +0.020 A 
ATOM      2  C   UNL     1      45.204 162.935  50.276  0.00  0.00    +0.013 A 
ATOM      3  C   UNL     1      45.762 161.877  49.443  0.00  0.00    +0.019 A 
ATOM     38  C   UNL     1      47.197 161.645  49.499  0.00  0.00    +0.120 A 
ATOM     39  N   UNL     1      47.994 162.425  50.331  0.00  0.00    -0.263 NA
ATOM     40  C   UNL     1      47.469 163.448  51.136  0.00  0.00    +0.111 A 
ENDBRANCH   4   3
ENDBRANCH  10   9
BRANCH  12  13
ATOM     13  N   UNL     1      44.691 154.574  43.830  0.00  0.00    -0.281 N 
ATOM     14  C   UNL     1      45.329 153.727  42.939  0.00  0.00    +0.248 C 
ATOM     30  O   UNL     1      45.700 154.053  41.821  0.00  0.00    -0.270 OA
ATOM     31  H   UNL     1      44.263 154.129  44.643  0.00  0.00    +0.155 HD
BRANCH  14  15
ATOM     15  C   UNL     1      45.577 152.309  43.341  0.00  0.00    +0.037 A 
ATOM     16  C   UNL     1      44.702 151.225  42.886  0.00  0.00    +0.013 A 
ATOM     17  C   UNL     1      44.954 149.869  43.303  0.00  0.00    +0.005 A 
ATOM     18  C   UNL     1      46.088 149.588  44.180  0.00  0.00    -0.033 A 
ATOM     28  C   UNL     1      46.943 150.681  44.613  0.00  0.00    +0.005 A 
ATOM     29  C   UNL     1      46.698 152.012  44.207  0.00  0.00    +0.013 A 
BRANCH  18  19
ATOM     19  C   UNL     1      46.420 148.174  44.692  0.00  0.00    +0.119 C 
BRANCH  19  20
ATOM     20  N   UNL     1      45.427 147.525  45.600  0.00  0.00    -0.302 NA
ATOM     21  C   UNL     1      44.298 146.843  44.822  0.00  0.00    +0.066 C 
ATOM     22  C   UNL     1      43.281 146.150  45.787  0.00  0.00    -0.064 C 
ATOM     23  N   UNL     1      42.718 147.187  46.761  0.00  0.00    +0.379 N 
ATOM     24  C   UNL     1      41.718 146.550  47.631  0.00  0.00    -0.096 C 
ATOM     25  H   UNL     1      42.196 147.967  46.159  0.00  0.00    -0.082 HD
ATOM     26  C   UNL     1      43.834 147.872  47.536  0.00  0.00    -0.064 C 
ATOM     27  C   UNL     1      44.855 148.532  46.568  0.00  0.00    +0.066 C 
ENDBRANCH  19  20
ENDBRANCH  18  19
ENDBRANCH  14  15
ENDBRANCH  12  13
TORSDOF 6
ENDMDL
MODEL 2
REMARK VINA RESULT:      -9.0      4.522     12.948
REMARK  Name = C:\Users\Docking\Desktop\test protocol\1iep_ligandH.pdb
REMARK  8 active torsions:
REMARK  status: ('A' for Active; 'I' for Inactive)
REMARK    1  A    between atoms: _5  and  _11
REMARK    2  A    between atoms: _19  and  _21
REMARK    3  A    between atoms: _22  and  _66
REMARK    4  A    between atoms: _27  and  _30
REMARK    5  A    between atoms: _32  and  _33
REMARK    6  A    between atoms: _38  and  _43
REMARK    7  A    between atoms: _43  and  _46
REMARK    8  A    between atoms: _53  and  _55
REMARK                            x       y       z     vdW  Elec       q    Type
REMARK                         _______ _______ _______ _____ _____    ______ ____
ROOT
ATOM     10  C   UNL     1      42.880 160.424  47.552  0.00  0.00    +0.038 A 
ATOM     11  C   UNL     1      43.510 160.448  48.823  0.00  0.00    +0.047 A 
ATOM     12  C   UNL     1      43.616 161.682  49.587  0.00  0.00    +0.035 A 
ATOM     32  C   UNL     1      43.068 162.872  49.027  0.00  0.00    +0.024 A 
ATOM     33  C   UNL     1      42.425 162.866  47.736  0.00  0.00    +0.007 A 
ATOM     34  C   UNL     1      42.319 161.653  46.977  0.00  0.00    -0.029 A 
ATOM     35  C   UNL     1      41.625 161.706  45.596  0.00  0.00    +0.045 C 
ENDROOT
BRANCH  10   9
ATOM      4  C   UNL     1      44.662 157.172  44.506  0.00  0.00    +0.077 A 
ATOM      5  C   UNL     1      45.827 157.967  44.245  0.00  0.00    +0.048 A 
ATOM      6  C   UNL     1      45.926 159.210  44.910  0.00  0.00    +0.116 A 
ATOM      7  N   UNL     1      44.928 159.616  45.769  0.00  0.00    -0.223 NA
ATOM      8  C   UNL     1      43.817 158.826  45.997  0.00  0.00    +0.220 A 
ATOM      9  N   UNL     1      42.805 159.212  46.863  0.00  0.00    -0.283 N 
ATOM     36  H   UNL     1      41.998 158.604  46.998  0.00  0.00    +0.155 HD
ATOM     37  N   UNL     1      43.698 157.636  45.373  0.00  0.00    -0.214 NA
BRANCH   4   3
ATOM      1  C   UNL     1      44.950 154.002  42.231  0.00  0.00    +0.020 A 
ATOM      2  C   UNL     1      45.231 155.301  42.798  0.00  0.00    +0.013 A 
ATOM      3  C   UNL     1      44.414 155.833  43.882  0.00  0.00    +0.019 A 
ATOM     38  C   UNL     1      43.312 155.020  44.372  0.00  0.00    +0.120 A 
ATOM     39  N   UNL     1      43.064 153.773  43.806  0.00  0.00    -0.263 NA
ATOM     40  C   UNL     1      43.843 153.251  42.762  0.00  0.00    +0.111 A 
ENDBRANCH   4   3
ENDBRANCH  10   9
BRANCH  12  13
ATOM     13  N   UNL     1      44.252 161.769  50.878  0.00  0.00    -0.281 N 
ATOM     14  C   UNL     1      43.665 161.639  52.126  0.00  0.00    +0.248 C 
ATOM     30  O   UNL     1      42.460 161.639  52.327  0.00  0.00    -0.270 OA
ATOM     31  H   UNL     1      45.256 161.949  50.871  0.00  0.00    +0.155 HD
BRANCH  14  15
ATOM     15  C   UNL     1      44.545 161.503  53.327  0.00  0.00    +0.037 A 
ATOM     16  C   UNL     1      45.561 160.450  53.409  0.00  0.00    +0.013 A 
ATOM     17  C   UNL     1      46.385 160.331  54.586  0.00  0.00    +0.005 A 
ATOM     18  C   UNL     1      46.197 161.268  55.690  0.00  0.00    -0.033 A 
ATOM     28  C   UNL     1      45.185 162.306  55.580  0.00  0.00    +0.005 A 
ATOM     29  C   UNL     1      44.375 162.426  54.429  0.00  0.00    +0.013 A 
BRANCH  18  19
ATOM     19  C   UNL     1      47.016 161.202  56.992  0.00  0.00    +0.119 C 
BRANCH  19  20
ATOM     20  N   UNL     1      47.992 162.304  57.243  0.00  0.00    -0.302 NA
ATOM     21  C   UNL     1      48.808 162.644  55.992  0.00  0.00    +0.066 C 
ATOM     22  C   UNL     1      49.808 163.814  56.266  0.00  0.00    -0.064 C 
ATOM     23  N   UNL     1      50.729 163.433  57.426  0.00  0.00    +0.379 N 
ATOM     24  C   UNL     1      51.709 164.507  57.648  0.00  0.00    -0.096 C 
ATOM     25  H   UNL     1      51.292 162.519  57.125  0.00  0.00    -0.082 HD
ATOM     26  C   UNL     1      49.926 163.091  58.673  0.00  0.00    -0.064 C 
ATOM     27  C   UNL     1      48.915 161.947  58.382  0.00  0.00    +0.066 C 
ENDBRANCH  19  20
ENDBRANCH  18  19
ENDBRANCH  14  15
ENDBRANCH  12  13
TORSDOF 6
ENDMDL
MODEL 3
REMARK VINA RESULT:      -8.7      5.994      9.320
REMARK  Name = C:\Users\Docking\Desktop\test protocol\1iep_ligandH.pdb
REMARK  8 active torsions:
REMARK  status: ('A' for Active; 'I' for Inactive)
REMARK    1  A    between atoms: _5  and  _11
REMARK    2  A    between atoms: _19  and  _21
REMARK    3  A    between atoms: _22  and  _66
REMARK    4  A    between atoms: _27  and  _30
REMARK    5  A    between atoms: _32  and  _33
REMARK    6  A    between atoms: _38  and  _43
REMARK    7  A    between atoms: _43  and  _46
REMARK    8  A    between atoms: _53  and  _55
REMARK                            x       y       z     vdW  Elec       q    Type
REMARK                         _______ _______ _______ _____ _____    ______ ____
ROOT
ATOM     10  C   UNL     1      41.202 164.827  49.231  0.00  0.00    +0.038 A 
ATOM     11  C   UNL     1      41.318 163.532  48.663  0.00  0.00    +0.047 A 
ATOM     12  C   UNL     1      42.426 163.191  47.785  0.00  0.00    +0.035 A 
ATOM     32  C   UNL     1      43.402 164.193  47.508  0.00  0.00    +0.024 A 
ATOM     33  C   UNL     1      43.299 165.515  48.076  0.00  0.00    +0.007 A 
ATOM     34  C   UNL     1      42.207 165.858  48.940  0.00  0.00    -0.029 A 
ATOM     35  C   UNL     1      42.144 167.292  49.515  0.00  0.00    +0.045 C 
ENDROOT
BRANCH  10   9
ATOM      4  C   UNL     1      38.859 164.402  53.398  0.00  0.00    +0.077 A 
ATOM      5  C   UNL     1      39.868 163.542  53.945  0.00  0.00    +0.048 A 
ATOM      6  C   UNL     1      40.970 163.228  53.120  0.00  0.00    +0.116 A 
ATOM      7  N   UNL     1      41.048 163.741  51.843  0.00  0.00    -0.223 NA
ATOM      8  C   UNL     1      40.056 164.566  51.345  0.00  0.00    +0.220 A 
ATOM      9  N   UNL     1      40.118 165.100  50.067  0.00  0.00    -0.283 N 
ATOM     36  H   UNL     1      39.362 165.698  49.734  0.00  0.00    +0.155 HD
ATOM     37  N   UNL     1      38.992 164.880  52.113  0.00  0.00    -0.214 NA
BRANCH   4   3
ATOM      1  C   UNL     1      35.243 165.621  54.258  0.00  0.00    +0.020 A 
ATOM      2  C   UNL     1      36.396 165.218  53.486  0.00  0.00    +0.013 A 
ATOM      3  C   UNL     1      37.635 164.828  54.148  0.00  0.00    +0.019 A 
ATOM     38  C   UNL     1      37.674 164.856  55.602  0.00  0.00    +0.120 A 
ATOM     39  N   UNL     1      36.548 165.250  56.318  0.00  0.00    -0.263 NA
ATOM     40  C   UNL     1      35.351 165.629  55.693  0.00  0.00    +0.111 A 
ENDBRANCH   4   3
ENDBRANCH  10   9
BRANCH  12  13
ATOM     13  N   UNL     1      42.591 161.896  47.174  0.00  0.00    -0.281 N 
ATOM     14  C   UNL     1      42.436 161.558  45.840  0.00  0.00    +0.248 C 
ATOM     30  O   UNL     1      41.920 162.280  44.999  0.00  0.00    -0.270 OA
ATOM     31  H   UNL     1      42.855 161.136  47.801  0.00  0.00    +0.155 HD
BRANCH  14  15
ATOM     15  C   UNL     1      42.909 160.219  45.374  0.00  0.00    +0.037 A 
ATOM     16  C   UNL     1      42.330 158.982  45.904  0.00  0.00    +0.013 A 
ATOM     17  C   UNL     1      42.816 157.703  45.451  0.00  0.00    +0.005 A 
ATOM     18  C   UNL     1      43.888 157.655  44.459  0.00  0.00    -0.033 A 
ATOM     28  C   UNL     1      44.440 158.898  43.945  0.00  0.00    +0.005 A 
ATOM     29  C   UNL     1      43.967 160.153  44.388  0.00  0.00    +0.013 A 
BRANCH  18  19
ATOM     19  C   UNL     1      44.483 156.335  43.933  0.00  0.00    +0.119 C 
BRANCH  19  20
ATOM     20  N   UNL     1      43.894 155.770  42.683  0.00  0.00    -0.302 NA
ATOM     21  C   UNL     1      42.819 156.684  42.090  0.00  0.00    +0.066 C 
ATOM     22  C   UNL     1      42.230 156.088  40.770  0.00  0.00    -0.064 C 
ATOM     23  N   UNL     1      41.662 154.696  41.051  0.00  0.00    +0.379 N 
ATOM     24  C   UNL     1      41.056 154.157  39.825  0.00  0.00    -0.096 C 
ATOM     25  H   UNL     1      40.852 154.808  41.808  0.00  0.00    -0.082 HD
ATOM     26  C   UNL     1      42.725 153.781  41.643  0.00  0.00    -0.064 C 
ATOM     27  C   UNL     1      43.324 154.396  42.939  0.00  0.00    +0.066 C 
ENDBRANCH  19  20
ENDBRANCH  18  19
ENDBRANCH  14  15
ENDBRANCH  12  13
TORSDOF 6
ENDMDL
MODEL 4
REMARK VINA RESULT:      -8.3     24.506     29.365
REMARK  Name = C:\Users\Docking\Desktop\test protocol\1iep_ligandH.pdb
REMARK  8 active torsions:
REMARK  status: ('A' for Active; 'I' for Inactive)
REMARK    1  A    between atoms: _5  and  _11
REMARK    2  A    between atoms: _19  and  _21
REMARK    3  A    between atoms: _22  and  _66
REMARK    4  A    between atoms: _27  and  _30
REMARK    5  A    between atoms: _32  and  _33
REMARK    6  A    between atoms: _38  and  _43
REMARK    7  A    between atoms: _43  and  _46
REMARK    8  A    between atoms: _53  and  _55
REMARK                            x       y       z     vdW  Elec       q    Type
REMARK                         _______ _______ _______ _____ _____    ______ ____
ROOT
ATOM     10  C   UNL     1      45.815 160.451  71.370  0.00  0.00    +0.038 A 
ATOM     11  C   UNL     1      46.359 159.658  72.412  0.00  0.00    +0.047 A 
ATOM     12  C   UNL     1      47.197 160.246  73.446  0.00  0.00    +0.035 A 
ATOM     32  C   UNL     1      47.459 161.646  73.389  0.00  0.00    +0.024 A 
ATOM     33  C   UNL     1      46.915 162.467  72.336  0.00  0.00    +0.007 A 
ATOM     34  C   UNL     1      46.089 161.892  71.312  0.00  0.00    -0.029 A 
ATOM     35  C   UNL     1      45.538 162.819  70.204  0.00  0.00    +0.045 C 
ENDROOT
BRANCH  10   9
ATOM      4  C   UNL     1      41.586 158.830  69.779  0.00  0.00    +0.077 A 
ATOM      5  C   UNL     1      40.916 159.220  70.986  0.00  0.00    +0.048 A 
ATOM      6  C   UNL     1      41.697 159.828  71.995  0.00  0.00    +0.116 A 
ATOM      7  N   UNL     1      43.046 160.027  71.800  0.00  0.00    -0.223 NA
ATOM      8  C   UNL     1      43.662 159.638  70.624  0.00  0.00    +0.220 A 
ATOM      9  N   UNL     1      45.016 159.835  70.404  0.00  0.00    -0.283 N 
ATOM     36  H   UNL     1      45.435 159.527  69.526  0.00  0.00    +0.155 HD
ATOM     37  N   UNL     1      42.939 159.054  69.647  0.00  0.00    -0.214 NA
BRANCH   4   3
ATOM      1  C   UNL     1      39.874 156.187  67.460  0.00  0.00    +0.020 A 
ATOM      2  C   UNL     1      40.539 156.767  68.604  0.00  0.00    +0.013 A 
ATOM      3  C   UNL     1      40.897 158.179  68.620  0.00  0.00    +0.019 A 
ATOM     38  C   UNL     1      40.565 158.985  67.455  0.00  0.00    +0.120 A 
ATOM     39  N   UNL     1      39.925 158.399  66.367  0.00  0.00    -0.263 NA
ATOM     40  C   UNL     1      39.577 157.040  66.339  0.00  0.00    +0.111 A 
ENDBRANCH   4   3
ENDBRANCH  10   9
BRANCH  12  13
ATOM     13  N   UNL     1      47.784 159.489  74.524  0.00  0.00    -0.281 N 
ATOM     14  C   UNL     1      47.173 159.051  75.688  0.00  0.00    +0.248 C 
ATOM     30  O   UNL     1      46.079 159.430  76.079  0.00  0.00    -0.270 OA
ATOM     31  H   UNL     1      48.769 159.247  74.416  0.00  0.00    +0.155 HD
BRANCH  14  15
ATOM     15  C   UNL     1      47.888 158.061  76.550  0.00  0.00    +0.037 A 
ATOM     16  C   UNL     1      47.499 156.648  76.566  0.00  0.00    +0.013 A 
ATOM     17  C   UNL     1      48.194 155.717  77.420  0.00  0.00    +0.005 A 
ATOM     18  C   UNL     1      49.287 156.196  78.263  0.00  0.00    -0.033 A 
ATOM     28  C   UNL     1      49.655 157.602  78.223  0.00  0.00    +0.005 A 
ATOM     29  C   UNL     1      48.975 158.518  77.388  0.00  0.00    +0.013 A 
BRANCH  18  19
ATOM     19  C   UNL     1      50.069 155.278  79.219  0.00  0.00    +0.119 C 
BRANCH  19  20
ATOM     20  N   UNL     1      51.476 154.942  78.847  0.00  0.00    -0.302 NA
ATOM     21  C   UNL     1      51.583 153.561  78.194  0.00  0.00    +0.066 C 
ATOM     22  C   UNL     1      53.058 153.235  77.790  0.00  0.00    -0.064 C 
ATOM     23  N   UNL     1      53.953 153.320  79.027  0.00  0.00    +0.379 N 
ATOM     24  C   UNL     1      55.331 152.958  78.662  0.00  0.00    -0.096 C 
ATOM     25  H   UNL     1      53.588 152.565  79.761  0.00  0.00    -0.082 HD
ATOM     26  C   UNL     1      53.851 154.689  79.684  0.00  0.00    -0.064 C 
ATOM     27  C   UNL     1      52.377 155.015  80.055  0.00  0.00    +0.066 C 
ENDBRANCH  19  20
ENDBRANCH  18  19
ENDBRANCH  14  15
ENDBRANCH  12  13
TORSDOF 6
ENDMDL
MODEL 5
REMARK VINA RESULT:      -8.1      4.416     12.762
REMARK  Name = C:\Users\Docking\Desktop\test protocol\1iep_ligandH.pdb
REMARK  8 active torsions:
REMARK  status: ('A' for Active; 'I' for Inactive)
REMARK    1  A    between atoms: _5  and  _11
REMARK    2  A    between atoms: _19  and  _21
REMARK    3  A    between atoms: _22  and  _66
REMARK    4  A    between atoms: _27  and  _30
REMARK    5  A    between atoms: _32  and  _33
REMARK    6  A    between atoms: _38  and  _43
REMARK    7  A    between atoms: _43  and  _46
REMARK    8  A    between atoms: _53  and  _55
REMARK                            x       y       z     vdW  Elec       q    Type
REMARK                         _______ _______ _______ _____ _____    ______ ____
ROOT
ATOM     10  C   UNL     1      42.870 160.774  46.071  0.00  0.00    +0.038 A 
ATOM     11  C   UNL     1      43.210 160.988  47.431  0.00  0.00    +0.047 A 
ATOM     12  C   UNL     1      43.307 162.331  47.981  0.00  0.00    +0.035 A 
ATOM     32  C   UNL     1      43.050 163.435  47.117  0.00  0.00    +0.024 A 
ATOM     33  C   UNL     1      42.705 163.236  45.731  0.00  0.00    +0.007 A 
ATOM     34  C   UNL     1      42.609 161.914  45.183  0.00  0.00    -0.029 A 
ATOM     35  C   UNL     1      42.242 161.760  43.688  0.00  0.00    +0.045 C 
ENDROOT
BRANCH  10   9
ATOM      4  C   UNL     1      44.668 157.024  43.675  0.00  0.00    +0.077 A 
ATOM      5  C   UNL     1      45.854 157.746  43.316  0.00  0.00    +0.048 A 
ATOM      6  C   UNL     1      45.960 159.083  43.762  0.00  0.00    +0.116 A 
ATOM      7  N   UNL     1      44.948 159.645  44.511  0.00  0.00    -0.223 NA
ATOM      8  C   UNL     1      43.817 158.921  44.838  0.00  0.00    +0.220 A 
ATOM      9  N   UNL     1      42.791 159.463  45.596  0.00  0.00    -0.283 N 
ATOM     36  H   UNL     1      41.969 158.899  45.810  0.00  0.00    +0.155 HD
ATOM     37  N   UNL     1      43.691 157.643  44.423  0.00  0.00    -0.214 NA
BRANCH   4   3
ATOM      1  C   UNL     1      43.094 153.818  42.081  0.00  0.00    +0.020 A 
ATOM      2  C   UNL     1      43.296 155.205  42.431  0.00  0.00    +0.013 A 
ATOM      3  C   UNL     1      44.411 155.602  43.282  0.00  0.00    +0.019 A 
ATOM     38  C   UNL     1      45.310 154.564  43.763  0.00  0.00    +0.120 A 
ATOM     39  N   UNL     1      45.089 153.237  43.410  0.00  0.00    -0.263 NA
ATOM     40  C   UNL     1      44.018 152.842  42.594  0.00  0.00    +0.111 A 
ENDBRANCH   4   3
ENDBRANCH  10   9
BRANCH  12  13
ATOM     13  N   UNL     1      43.656 162.609  49.352  0.00  0.00    -0.281 N 
ATOM     14  C   UNL     1      42.803 162.888  50.408  0.00  0.00    +0.248 C 
ATOM     30  O   UNL     1      41.616 163.152  50.286  0.00  0.00    -0.270 OA
ATOM     31  H   UNL     1      44.652 162.600  49.571  0.00  0.00    +0.155 HD
BRANCH  14  15
ATOM     15  C   UNL     1      43.351 162.888  51.798  0.00  0.00    +0.037 A 
ATOM     16  C   UNL     1      43.944 164.094  52.381  0.00  0.00    +0.013 A 
ATOM     17  C   UNL     1      44.481 164.062  53.719  0.00  0.00    +0.005 A 
ATOM     18  C   UNL     1      44.426 162.818  54.483  0.00  0.00    -0.033 A 
ATOM     28  C   UNL     1      43.827 161.638  53.882  0.00  0.00    +0.005 A 
ATOM     29  C   UNL     1      43.301 161.665  52.571  0.00  0.00    +0.013 A 
BRANCH  18  19
ATOM     19  C   UNL     1      44.993 162.687  55.909  0.00  0.00    +0.119 C 
BRANCH  19  20
ATOM     20  N   UNL     1      46.412 163.103  56.121  0.00  0.00    -0.302 NA
ATOM     21  C   UNL     1      47.392 162.220  55.344  0.00  0.00    +0.066 C 
ATOM     22  C   UNL     1      48.870 162.684  55.560  0.00  0.00    -0.064 C 
ATOM     23  N   UNL     1      49.193 162.667  57.055  0.00  0.00    +0.379 N 
ATOM     24  C   UNL     1      50.599 163.047  57.257  0.00  0.00    -0.096 C 
ATOM     25  H   UNL     1      49.071 161.619  57.415  0.00  0.00    -0.082 HD
ATOM     26  C   UNL     1      48.221 163.540  57.835  0.00  0.00    -0.064 C 
ATOM     27  C   UNL     1      46.754 163.089  57.591  0.00  0.00    +0.066 C 
ENDBRANCH  19  20
ENDBRANCH  18  19
ENDBRANCH  14  15
ENDBRANCH  12  13
TORSDOF 6
ENDMDL
