MODEL 1
REMARK VINA RESULT:      -9.9      0.000      0.000
REMARK  Name = C:\Users\Docking\Desktop\test protocol\1iep_ligandH.pdb
REMARK  8 active torsions:
REMARK  status: ('A' for Active; 'I' for Inactive)
REMARK    1  A    between atoms: _5  and  _11
REMARK    2  A    between atoms: _19  and  _21
REMARK    3  A    between atoms: _22  and  _66
REMARK    4  A    between atoms: _27  and  _30
REMARK    5  A    between atoms: _32  and  _33
REMARK    6  A    between atoms: _38  and  _43
REMARK    7  A    between atoms: _43  and  _46
REMARK    8  A    between atoms: _53  and  _55
REMARK                            x       y       z     vdW  Elec       q    Type
REMARK                         _______ _______ _______ _____ _____    ______ ____
ROOT
ATOM     10  C   UNL     1      -8.693  39.982  18.362  0.00  0.00    +0.038 A 
ATOM     11  C   UNL     1      -8.181  38.725  18.775  0.00  0.00    +0.047 A 
ATOM     12  C   UNL     1      -7.668  37.768  17.808  0.00  0.00    +0.035 A 
ATOM     32  C   UNL     1      -7.687  38.125  16.428  0.00  0.00    +0.024 A 
ATOM     33  C   UNL     1      -8.204  39.398  15.991  0.00  0.00    +0.007 A 
ATOM     34  C   UNL     1      -8.715  40.345  16.940  0.00  0.00    -0.029 A 
ATOM     35  C   UNL     1      -9.263  41.692  16.414  0.00  0.00    +0.045 C 
ENDROOT
BRANCH  10   9
ATOM      4  C   UNL     1      -8.032  43.309  21.758  0.00  0.00    +0.077 A 
ATOM      5  C   UNL     1      -6.606  43.269  21.603  0.00  0.00    +0.048 A 
ATOM      6  C   UNL     1      -6.083  42.373  20.644  0.00  0.00    +0.116 A 
ATOM      7  N   UNL     1      -6.931  41.582  19.900  0.00  0.00    -0.223 NA
ATOM      8  C   UNL     1      -8.301  41.644  20.076  0.00  0.00    +0.220 A 
ATOM      9  N   UNL     1      -9.174  40.863  19.333  0.00  0.00    -0.283 N 
ATOM     36  H   UNL     1     -10.178  40.933  19.498  0.00  0.00    +0.155 HD
ATOM     37  N   UNL     1      -8.826  42.490  20.987  0.00  0.00    -0.214 NA
BRANCH   4   3
ATOM      1  C   UNL     1     -10.177  44.609  24.760  0.00  0.00    +0.020 A 
ATOM      2  C   UNL     1      -9.516  43.700  23.851  0.00  0.00    +0.013 A 
ATOM      3  C   UNL     1      -8.736  44.205  22.729  0.00  0.00    +0.019 A 
ATOM     38  C   UNL     1      -8.642  45.647  22.553  0.00  0.00    +0.120 A 
ATOM     39  N   UNL     1      -9.290  46.498  23.443  0.00  0.00    -0.263 NA
ATOM     40  C   UNL     1     -10.045  46.023  24.526  0.00  0.00    +0.111 A 
ENDBRANCH   4   3
ENDBRANCH  10   9
BRANCH  12  13
ATOM     13  N   UNL     1      -7.143  36.473  18.166  0.00  0.00    -0.281 N 
ATOM     14  C   UNL     1      -5.819  36.111  18.347  0.00  0.00    +0.248 C 
ATOM     30  O   UNL     1      -4.863  36.798  18.016  0.00  0.00    -0.270 OA
ATOM     31  H   UNL     1      -7.833  35.734  18.304  0.00  0.00    +0.155 HD
BRANCH  14  15
ATOM     15  C   UNL     1      -5.510  34.789  18.971  0.00  0.00    +0.037 A 
ATOM     16  C   UNL     1      -5.892  33.533  18.320  0.00  0.00    +0.013 A 
ATOM     17  C   UNL     1      -5.597  32.272  18.952  0.00  0.00    +0.005 A 
ATOM     18  C   UNL     1      -4.916  32.260  20.245  0.00  0.00    -0.033 A 
ATOM     28  C   UNL     1      -4.544  33.521  20.866  0.00  0.00    +0.005 A 
ATOM     29  C   UNL     1      -4.832  34.759  20.250  0.00  0.00    +0.013 A 
BRANCH  18  19
ATOM     19  C   UNL     1      -4.581  30.962  21.002  0.00  0.00    +0.119 C 
BRANCH  19  20
ATOM     20  N   UNL     1      -5.618  30.427  21.934  0.00  0.00    -0.302 NA
ATOM     21  C   UNL     1      -5.554  31.096  23.310  0.00  0.00    +0.066 C 
ATOM     22  C   UNL     1      -6.660  30.541  24.265  0.00  0.00    -0.064 C 
ATOM     23  N   UNL     1      -6.505  29.025  24.393  0.00  0.00    +0.379 N 
ATOM     24  C   UNL     1      -7.507  28.507  25.336  0.00  0.00    -0.096 C 
ATOM     25  H   UNL     1      -5.497  28.823  24.826  0.00  0.00    -0.082 HD
ATOM     26  C   UNL     1      -6.564  28.351  23.029  0.00  0.00    -0.064 C 
ATOM     27  C   UNL     1      -5.480  28.931  22.078  0.00  0.00    +0.066 C 
ENDBRANCH  19  20
ENDBRANCH  18  19
ENDBRANCH  14  15
ENDBRANCH  12  13
TORSDOF 6
ENDMDL
MODEL 2
REMARK VINA RESULT:      -9.1      1.903      2.678
REMARK  Name = C:\Users\Docking\Desktop\test protocol\1iep_ligandH.pdb
REMARK  8 active torsions:
REMARK  status: ('A' for Active; 'I' for Inactive)
REMARK    1  A    between atoms: _5  and  _11
REMARK    2  A    between atoms: _19  and  _21
REMARK    3  A    between atoms: _22  and  _66
REMARK    4  A    between atoms: _27  and  _30
REMARK    5  A    between atoms: _32  and  _33
REMARK    6  A    between atoms: _38  and  _43
REMARK    7  A    between atoms: _43  and  _46
REMARK    8  A    between atoms: _53  and  _55
REMARK                            x       y       z     vdW  Elec       q    Type
REMARK                         _______ _______ _______ _____ _____    ______ ____
ROOT
ATOM     10  C   UNL     1     -10.407  40.766  18.685  0.00  0.00    +0.038 A 
ATOM     11  C   UNL     1      -9.728  39.532  18.851  0.00  0.00    +0.047 A 
ATOM     12  C   UNL     1      -9.152  38.831  17.714  0.00  0.00    +0.035 A 
ATOM     32  C   UNL     1      -9.284  39.417  16.422  0.00  0.00    +0.024 A 
ATOM     33  C   UNL     1      -9.972  40.670  16.235  0.00  0.00    +0.007 A 
ATOM     34  C   UNL     1     -10.544  41.365  17.352  0.00  0.00    -0.029 A 
ATOM     35  C   UNL     1     -11.277  42.702  17.092  0.00  0.00    +0.045 C 
ENDROOT
BRANCH  10   9
ATOM      4  C   UNL     1      -9.982  43.510  22.600  0.00  0.00    +0.077 A 
ATOM      5  C   UNL     1      -8.572  43.682  22.399  0.00  0.00    +0.048 A 
ATOM      6  C   UNL     1      -7.994  43.041  21.280  0.00  0.00    +0.116 A 
ATOM      7  N   UNL     1      -8.777  42.288  20.432  0.00  0.00    -0.223 NA
ATOM      8  C   UNL     1     -10.133  42.142  20.656  0.00  0.00    +0.220 A 
ATOM      9  N   UNL     1     -10.941  41.396  19.812  0.00  0.00    -0.283 N 
ATOM     36  H   UNL     1     -11.936  41.306  20.015  0.00  0.00    +0.155 HD
ATOM     37  N   UNL     1     -10.709  42.742  21.718  0.00  0.00    -0.214 NA
BRANCH   4   3
ATOM      1  C   UNL     1     -11.891  46.067  24.862  0.00  0.00    +0.020 A 
ATOM      2  C   UNL     1     -11.162  45.521  23.740  0.00  0.00    +0.013 A 
ATOM      3  C   UNL     1     -10.739  44.127  23.735  0.00  0.00    +0.019 A 
ATOM     38  C   UNL     1     -11.074  43.304  24.888  0.00  0.00    +0.120 A 
ATOM     39  N   UNL     1     -11.777  43.858  25.954  0.00  0.00    -0.263 NA
ATOM     40  C   UNL     1     -12.187  45.199  25.971  0.00  0.00    +0.111 A 
ENDBRANCH   4   3
ENDBRANCH  10   9
BRANCH  12  13
ATOM     13  N   UNL     1      -8.459  37.571  17.820  0.00  0.00    -0.281 N 
ATOM     14  C   UNL     1      -7.180  37.341  18.302  0.00  0.00    +0.248 C 
ATOM     30  O   UNL     1      -6.355  38.216  18.517  0.00  0.00    -0.270 OA
ATOM     31  H   UNL     1      -8.973  36.749  17.502  0.00  0.00    +0.155 HD
BRANCH  14  15
ATOM     15  C   UNL     1      -6.752  35.934  18.569  0.00  0.00    +0.037 A 
ATOM     16  C   UNL     1      -7.591  35.019  19.347  0.00  0.00    +0.013 A 
ATOM     17  C   UNL     1      -7.147  33.672  19.605  0.00  0.00    +0.005 A 
ATOM     18  C   UNL     1      -5.855  33.232  19.082  0.00  0.00    -0.033 A 
ATOM     28  C   UNL     1      -5.045  34.159  18.309  0.00  0.00    +0.005 A 
ATOM     29  C   UNL     1      -5.477  35.480  18.055  0.00  0.00    +0.013 A 
BRANCH  18  19
ATOM     19  C   UNL     1      -5.292  31.819  19.326  0.00  0.00    +0.119 C 
BRANCH  19  20
ATOM     20  N   UNL     1      -4.561  31.587  20.607  0.00  0.00    -0.302 NA
ATOM     21  C   UNL     1      -5.407  30.809  21.619  0.00  0.00    +0.066 C 
ATOM     22  C   UNL     1      -4.619  30.556  22.945  0.00  0.00    -0.064 C 
ATOM     23  N   UNL     1      -4.168  31.895  23.532  0.00  0.00    +0.379 N 
ATOM     24  C   UNL     1      -3.477  31.663  24.808  0.00  0.00    -0.096 C 
ATOM     25  H   UNL     1      -5.083  32.495  23.746  0.00  0.00    -0.082 HD
ATOM     26  C   UNL     1      -3.328  32.676  22.531  0.00  0.00    -0.064 C 
ATOM     27  C   UNL     1      -4.110  32.897  21.206  0.00  0.00    +0.066 C 
ENDBRANCH  19  20
ENDBRANCH  18  19
ENDBRANCH  14  15
ENDBRANCH  12  13
TORSDOF 6
ENDMDL
MODEL 3
REMARK VINA RESULT:      -8.8     15.317     21.625
REMARK  Name = C:\Users\Docking\Desktop\test protocol\1iep_ligandH.pdb
REMARK  8 active torsions:
REMARK  status: ('A' for Active; 'I' for Inactive)
REMARK    1  A    between atoms: _5  and  _11
REMARK    2  A    between atoms: _19  and  _21
REMARK    3  A    between atoms: _22  and  _66
REMARK    4  A    between atoms: _27  and  _30
REMARK    5  A    between atoms: _32  and  _33
REMARK    6  A    between atoms: _38  and  _43
REMARK    7  A    between atoms: _43  and  _46
REMARK    8  A    between atoms: _53  and  _55
REMARK                            x       y       z     vdW  Elec       q    Type
REMARK                         _______ _______ _______ _____ _____    ______ ____
ROOT
ATOM     10  C   UNL     1      -4.022  51.509  30.994  0.00  0.00    +0.038 A 
ATOM     11  C   UNL     1      -2.822  51.219  31.693  0.00  0.00    +0.047 A 
ATOM     12  C   UNL     1      -2.487  51.908  32.929  0.00  0.00    +0.035 A 
ATOM     32  C   UNL     1      -3.398  52.885  33.427  0.00  0.00    +0.024 A 
ATOM     33  C   UNL     1      -4.621  53.192  32.729  0.00  0.00    +0.007 A 
ATOM     34  C   UNL     1      -4.956  52.518  31.507  0.00  0.00    -0.029 A 
ATOM     35  C   UNL     1      -6.278  52.892  30.797  0.00  0.00    +0.045 C 
ENDROOT
BRANCH  10   9
ATOM      4  C   UNL     1      -3.759  51.007  26.228  0.00  0.00    +0.077 A 
ATOM      5  C   UNL     1      -3.042  52.241  26.078  0.00  0.00    +0.048 A 
ATOM      6  C   UNL     1      -2.768  52.978  27.251  0.00  0.00    +0.116 A 
ATOM      7  N   UNL     1      -3.183  52.507  28.478  0.00  0.00    -0.223 NA
ATOM      8  C   UNL     1      -3.873  51.314  28.587  0.00  0.00    +0.220 A 
ATOM      9  N   UNL     1      -4.293  50.817  29.811  0.00  0.00    -0.283 N 
ATOM     36  H   UNL     1      -4.807  49.937  29.849  0.00  0.00    +0.155 HD
ATOM     37  N   UNL     1      -4.149  50.592  27.481  0.00  0.00    -0.214 NA
BRANCH   4   3
ATOM      1  C   UNL     1      -3.661  48.195  23.510  0.00  0.00    +0.020 A 
ATOM      2  C   UNL     1      -3.264  49.029  24.621  0.00  0.00    +0.013 A 
ATOM      3  C   UNL     1      -4.121  50.114  25.082  0.00  0.00    +0.019 A 
ATOM     38  C   UNL     1      -5.384  50.329  24.393  0.00  0.00    +0.120 A 
ATOM     39  N   UNL     1      -5.740  49.511  23.325  0.00  0.00    -0.263 NA
ATOM     40  C   UNL     1      -4.922  48.465  22.871  0.00  0.00    +0.111 A 
ENDBRANCH   4   3
ENDBRANCH  10   9
BRANCH  12  13
ATOM     13  N   UNL     1      -1.279  51.662  33.678  0.00  0.00    -0.281 N 
ATOM     14  C   UNL     1      -0.418  52.593  34.236  0.00  0.00    +0.248 C 
ATOM     30  O   UNL     1      -0.442  53.790  33.991  0.00  0.00    -0.270 OA
ATOM     31  H   UNL     1      -1.029  50.683  33.814  0.00  0.00    +0.155 HD
BRANCH  14  15
ATOM     15  C   UNL     1       0.630  52.125  35.193  0.00  0.00    +0.037 A 
ATOM     16  C   UNL     1       0.551  50.803  35.819  0.00  0.00    +0.013 A 
ATOM     17  C   UNL     1       1.567  50.383  36.752  0.00  0.00    +0.005 A 
ATOM     18  C   UNL     1       2.671  51.287  37.063  0.00  0.00    -0.033 A 
ATOM     28  C   UNL     1       2.728  52.591  36.424  0.00  0.00    +0.005 A 
ATOM     29  C   UNL     1       1.734  53.006  35.509  0.00  0.00    +0.013 A 
BRANCH  18  19
ATOM     19  C   UNL     1       3.788  50.930  38.063  0.00  0.00    +0.119 C 
BRANCH  19  20
ATOM     20  N   UNL     1       4.330  52.037  38.905  0.00  0.00    -0.302 NA
ATOM     21  C   UNL     1       5.779  51.780  39.328  0.00  0.00    +0.066 C 
ATOM     22  C   UNL     1       6.338  52.958  40.190  0.00  0.00    -0.064 C 
ATOM     23  N   UNL     1       5.444  53.160  41.415  0.00  0.00    +0.379 N 
ATOM     24  C   UNL     1       6.000  54.229  42.257  0.00  0.00    -0.096 C 
ATOM     25  H   UNL     1       5.465  52.216  42.008  0.00  0.00    -0.082 HD
ATOM     26  C   UNL     1       4.001  53.414  41.003  0.00  0.00    -0.064 C 
ATOM     27  C   UNL     1       3.465  52.251  40.123  0.00  0.00    +0.066 C 
ENDBRANCH  19  20
ENDBRANCH  18  19
ENDBRANCH  14  15
ENDBRANCH  12  13
TORSDOF 6
ENDMDL
MODEL 4
REMARK VINA RESULT:      -8.6     15.206     21.327
REMARK  Name = C:\Users\Docking\Desktop\test protocol\1iep_ligandH.pdb
REMARK  8 active torsions:
REMARK  status: ('A' for Active; 'I' for Inactive)
REMARK    1  A    between atoms: _5  and  _11
REMARK    2  A    between atoms: _19  and  _21
REMARK    3  A    between atoms: _22  and  _66
REMARK    4  A    between atoms: _27  and  _30
REMARK    5  A    between atoms: _32  and  _33
REMARK    6  A    between atoms: _38  and  _43
REMARK    7  A    between atoms: _43  and  _46
REMARK    8  A    between atoms: _53  and  _55
REMARK                            x       y       z     vdW  Elec       q    Type
REMARK                         _______ _______ _______ _____ _____    ______ ____
ROOT
ATOM     10  C   UNL     1      -3.970  51.534  31.019  0.00  0.00    +0.038 A 
ATOM     11  C   UNL     1      -2.753  51.256  31.693  0.00  0.00    +0.047 A 
ATOM     12  C   UNL     1      -2.405  51.940  32.929  0.00  0.00    +0.035 A 
ATOM     32  C   UNL     1      -3.320  52.899  33.452  0.00  0.00    +0.024 A 
ATOM     33  C   UNL     1      -4.561  53.195  32.780  0.00  0.00    +0.007 A 
ATOM     34  C   UNL     1      -4.909  52.525  31.559  0.00  0.00    -0.029 A 
ATOM     35  C   UNL     1      -6.249  52.886  30.878  0.00  0.00    +0.045 C 
ENDROOT
BRANCH  10   9
ATOM      4  C   UNL     1      -3.756  51.055  26.248  0.00  0.00    +0.077 A 
ATOM      5  C   UNL     1      -3.041  52.289  26.097  0.00  0.00    +0.048 A 
ATOM      6  C   UNL     1      -2.754  53.021  27.272  0.00  0.00    +0.116 A 
ATOM      7  N   UNL     1      -3.157  52.544  28.500  0.00  0.00    -0.223 NA
ATOM      8  C   UNL     1      -3.847  51.351  28.610  0.00  0.00    +0.220 A 
ATOM      9  N   UNL     1      -4.255  50.848  29.836  0.00  0.00    -0.283 N 
ATOM     36  H   UNL     1      -4.768  49.968  29.875  0.00  0.00    +0.155 HD
ATOM     37  N   UNL     1      -4.134  50.634  27.504  0.00  0.00    -0.214 NA
BRANCH   4   3
ATOM      1  C   UNL     1      -5.681  49.445  23.248  0.00  0.00    +0.020 A 
ATOM      2  C   UNL     1      -5.367  50.329  24.347  0.00  0.00    +0.013 A 
ATOM      3  C   UNL     1      -4.131  50.168  25.102  0.00  0.00    +0.019 A 
ATOM     38  C   UNL     1      -3.227  49.095  24.717  0.00  0.00    +0.120 A 
ATOM     39  N   UNL     1      -3.557  48.258  23.655  0.00  0.00    -0.263 NA
ATOM     40  C   UNL     1      -4.744  48.402  22.922  0.00  0.00    +0.111 A 
ENDBRANCH   4   3
ENDBRANCH  10   9
BRANCH  12  13
ATOM     13  N   UNL     1      -1.180  51.705  33.653  0.00  0.00    -0.281 N 
ATOM     14  C   UNL     1      -0.455  52.607  34.415  0.00  0.00    +0.248 C 
ATOM     30  O   UNL     1      -0.638  53.815  34.416  0.00  0.00    -0.270 OA
ATOM     31  H   UNL     1      -0.801  50.760  33.597  0.00  0.00    +0.155 HD
BRANCH  14  15
ATOM     15  C   UNL     1       0.640  52.093  35.293  0.00  0.00    +0.037 A 
ATOM     16  C   UNL     1       1.836  52.895  35.564  0.00  0.00    +0.013 A 
ATOM     17  C   UNL     1       2.886  52.369  36.400  0.00  0.00    +0.005 A 
ATOM     18  C   UNL     1       2.743  51.033  36.973  0.00  0.00    -0.033 A 
ATOM     28  C   UNL     1       1.544  50.261  36.693  0.00  0.00    +0.005 A 
ATOM     29  C   UNL     1       0.513  50.773  35.872  0.00  0.00    +0.013 A 
BRANCH  18  19
ATOM     19  C   UNL     1       3.822  50.384  37.860  0.00  0.00    +0.119 C 
BRANCH  19  20
ATOM     20  N   UNL     1       4.157  51.070  39.143  0.00  0.00    -0.302 NA
ATOM     21  C   UNL     1       5.212  50.304  39.946  0.00  0.00    +0.066 C 
ATOM     22  C   UNL     1       5.567  51.048  41.275  0.00  0.00    -0.064 C 
ATOM     23  N   UNL     1       4.295  51.245  42.101  0.00  0.00    +0.379 N 
ATOM     24  C   UNL     1       4.634  51.892  43.377  0.00  0.00    -0.096 C 
ATOM     25  H   UNL     1       3.883  50.235  42.333  0.00  0.00    -0.082 HD
ATOM     26  C   UNL     1       3.239  52.003  41.310  0.00  0.00    -0.064 C 
ATOM     27  C   UNL     1       2.915  51.271  39.977  0.00  0.00    +0.066 C 
ENDBRANCH  19  20
ENDBRANCH  18  19
ENDBRANCH  14  15
ENDBRANCH  12  13
TORSDOF 6
ENDMDL
MODEL 5
REMARK VINA RESULT:      -8.2     11.514     17.845
REMARK  Name = C:\Users\Docking\Desktop\test protocol\1iep_ligandH.pdb
REMARK  8 active torsions:
REMARK  status: ('A' for Active; 'I' for Inactive)
REMARK    1  A    between atoms: _5  and  _11
REMARK    2  A    between atoms: _19  and  _21
REMARK    3  A    between atoms: _22  and  _66
REMARK    4  A    between atoms: _27  and  _30
REMARK    5  A    between atoms: _32  and  _33
REMARK    6  A    between atoms: _38  and  _43
REMARK    7  A    between atoms: _43  and  _46
REMARK    8  A    between atoms: _53  and  _55
REMARK                            x       y       z     vdW  Elec       q    Type
REMARK                         _______ _______ _______ _____ _____    ______ ____
ROOT
ATOM     10  C   UNL     1      -4.276  52.191  31.893  0.00  0.00    +0.038 A 
ATOM     11  C   UNL     1      -4.203  51.591  30.610  0.00  0.00    +0.047 A 
ATOM     12  C   UNL     1      -5.186  51.892  29.581  0.00  0.00    +0.035 A 
ATOM     32  C   UNL     1      -6.229  52.812  29.892  0.00  0.00    +0.024 A 
ATOM     33  C   UNL     1      -6.320  53.431  31.191  0.00  0.00    +0.007 A 
ATOM     34  C   UNL     1      -5.354  53.136  32.211  0.00  0.00    -0.029 A 
ATOM     35  C   UNL     1      -5.504  53.824  33.588  0.00  0.00    +0.045 C 
ENDROOT
BRANCH  10   9
ATOM      4  C   UNL     1      -0.057  52.932  34.058  0.00  0.00    +0.077 A 
ATOM      5  C   UNL     1       0.252  54.044  33.206  0.00  0.00    +0.048 A 
ATOM      6  C   UNL     1      -0.698  54.388  32.218  0.00  0.00    +0.116 A 
ATOM      7  N   UNL     1      -1.867  53.668  32.101  0.00  0.00    -0.223 NA
ATOM      8  C   UNL     1      -2.133  52.600  32.938  0.00  0.00    +0.220 A 
ATOM      9  N   UNL     1      -3.306  51.866  32.843  0.00  0.00    -0.283 N 
ATOM     36  H   UNL     1      -3.461  51.081  33.474  0.00  0.00    +0.155 HD
ATOM     37  N   UNL     1      -1.241  52.250  33.888  0.00  0.00    -0.214 NA
BRANCH   4   3
ATOM      1  C   UNL     1       2.762  52.744  36.763  0.00  0.00    +0.020 A 
ATOM      2  C   UNL     1       1.920  53.259  35.708  0.00  0.00    +0.013 A 
ATOM      3  C   UNL     1       0.845  52.448  35.150  0.00  0.00    +0.019 A 
ATOM     38  C   UNL     1       0.647  51.109  35.687  0.00  0.00    +0.120 A 
ATOM     39  N   UNL     1       1.475  50.640  36.702  0.00  0.00    -0.263 NA
ATOM     40  C   UNL     1       2.514  51.411  37.245  0.00  0.00    +0.111 A 
ENDBRANCH   4   3
ENDBRANCH  10   9
BRANCH  12  13
ATOM     13  N   UNL     1      -5.168  51.307  28.263  0.00  0.00    -0.281 N 
ATOM     14  C   UNL     1      -4.220  51.480  27.268  0.00  0.00    +0.248 C 
ATOM     30  O   UNL     1      -3.349  52.338  27.284  0.00  0.00    -0.270 OA
ATOM     31  H   UNL     1      -5.948  50.690  28.037  0.00  0.00    +0.155 HD
BRANCH  14  15
ATOM     15  C   UNL     1      -4.252  50.579  26.075  0.00  0.00    +0.037 A 
ATOM     16  C   UNL     1      -3.122  49.705  25.753  0.00  0.00    +0.013 A 
ATOM     17  C   UNL     1      -3.172  48.858  24.587  0.00  0.00    +0.005 A 
ATOM     18  C   UNL     1      -4.359  48.881  23.736  0.00  0.00    -0.033 A 
ATOM     28  C   UNL     1      -5.468  49.754  24.082  0.00  0.00    +0.005 A 
ATOM     29  C   UNL     1      -5.422  50.586  25.223  0.00  0.00    +0.013 A 
BRANCH  18  19
ATOM     19  C   UNL     1      -4.490  48.027  22.461  0.00  0.00    +0.119 C 
BRANCH  19  20
ATOM     20  N   UNL     1      -5.226  46.733  22.578  0.00  0.00    -0.302 NA
ATOM     21  C   UNL     1      -6.691  46.864  22.152  0.00  0.00    +0.066 C 
ATOM     22  C   UNL     1      -7.440  45.496  22.259  0.00  0.00    -0.064 C 
ATOM     23  N   UNL     1      -7.338  44.973  23.693  0.00  0.00    +0.379 N 
ATOM     24  C   UNL     1      -8.090  43.715  23.811  0.00  0.00    -0.096 C 
ATOM     25  H   UNL     1      -7.823  45.721  24.361  0.00  0.00    -0.082 HD
ATOM     26  C   UNL     1      -5.884  44.841  24.125  0.00  0.00    -0.064 C 
ATOM     27  C   UNL     1      -5.141  46.200  23.987  0.00  0.00    +0.066 C 
ENDBRANCH  19  20
ENDBRANCH  18  19
ENDBRANCH  14  15
ENDBRANCH  12  13
TORSDOF 6
ENDMDL
