MODEL 1
REMARK VINA RESULT:      -9.0      0.000      0.000
REMARK  Name = C:\Users\Docking\Desktop\test protocol\1iep_ligandH.pdb
REMARK  8 active torsions:
REMARK  status: ('A' for Active; 'I' for Inactive)
REMARK    1  A    between atoms: _5  and  _11
REMARK    2  A    between atoms: _19  and  _21
REMARK    3  A    between atoms: _22  and  _66
REMARK    4  A    between atoms: _27  and  _30
REMARK    5  A    between atoms: _32  and  _33
REMARK    6  A    between atoms: _38  and  _43
REMARK    7  A    between atoms: _43  and  _46
REMARK    8  A    between atoms: _53  and  _55
REMARK                            x       y       z     vdW  Elec       q    Type
REMARK                         _______ _______ _______ _____ _____    ______ ____
ROOT
ATOM     10  C   UNL     1      -8.521  41.084  19.406  0.00  0.00    +0.038 A 
ATOM     11  C   UNL     1      -7.855  42.059  20.192  0.00  0.00    +0.047 A 
ATOM     12  C   UNL     1      -8.164  43.473  20.058  0.00  0.00    +0.035 A 
ATOM     32  C   UNL     1      -9.160  43.860  19.115  0.00  0.00    +0.024 A 
ATOM     33  C   UNL     1      -9.847  42.883  18.307  0.00  0.00    +0.007 A 
ATOM     34  C   UNL     1      -9.544  41.486  18.434  0.00  0.00    -0.029 A 
ATOM     35  C   UNL     1     -10.307  40.483  17.538  0.00  0.00    +0.045 C 
ENDROOT
BRANCH  10   9
ATOM      4  C   UNL     1      -5.875  37.218  18.362  0.00  0.00    +0.077 A 
ATOM      5  C   UNL     1      -5.117  37.931  17.375  0.00  0.00    +0.048 A 
ATOM      6  C   UNL     1      -5.444  39.288  17.161  0.00  0.00    +0.116 A 
ATOM      7  N   UNL     1      -6.456  39.879  17.886  0.00  0.00    -0.223 NA
ATOM      8  C   UNL     1      -7.168  39.163  18.830  0.00  0.00    +0.220 A 
ATOM      9  N   UNL     1      -8.185  39.739  19.577  0.00  0.00    -0.283 N 
ATOM     36  H   UNL     1      -8.692  39.175  20.258  0.00  0.00    +0.155 HD
ATOM     37  N   UNL     1      -6.876  37.864  19.052  0.00  0.00    -0.214 NA
BRANCH   4   3
ATOM      1  C   UNL     1      -5.392  33.346  18.086  0.00  0.00    +0.020 A 
ATOM      2  C   UNL     1      -5.618  34.721  17.703  0.00  0.00    +0.013 A 
ATOM      3  C   UNL     1      -5.646  35.779  18.705  0.00  0.00    +0.019 A 
ATOM     38  C   UNL     1      -5.440  35.409  20.097  0.00  0.00    +0.120 A 
ATOM     39  N   UNL     1      -5.227  34.077  20.437  0.00  0.00    -0.263 NA
ATOM     40  C   UNL     1      -5.199  33.050  19.481  0.00  0.00    +0.111 A 
ENDBRANCH   4   3
ENDBRANCH  10   9
BRANCH  12  13
ATOM     13  N   UNL     1      -7.514  44.509  20.822  0.00  0.00    -0.281 N 
ATOM     14  C   UNL     1      -7.183  44.494  22.167  0.00  0.00    +0.248 C 
ATOM     30  O   UNL     1      -7.589  43.667  22.970  0.00  0.00    -0.270 OA
ATOM     31  H   UNL     1      -7.269  45.356  20.310  0.00  0.00    +0.155 HD
BRANCH  14  15
ATOM     15  C   UNL     1      -6.281  45.560  22.700  0.00  0.00    +0.037 A 
ATOM     16  C   UNL     1      -5.740  45.487  24.060  0.00  0.00    +0.013 A 
ATOM     17  C   UNL     1      -4.886  46.538  24.555  0.00  0.00    +0.005 A 
ATOM     18  C   UNL     1      -4.566  47.670  23.689  0.00  0.00    -0.033 A 
ATOM     28  C   UNL     1      -5.112  47.714  22.342  0.00  0.00    +0.005 A 
ATOM     29  C   UNL     1      -5.951  46.687  21.854  0.00  0.00    +0.013 A 
BRANCH  18  19
ATOM     19  C   UNL     1      -3.681  48.846  24.142  0.00  0.00    +0.119 C 
BRANCH  19  20
ATOM     20  N   UNL     1      -3.513  49.049  25.611  0.00  0.00    -0.302 NA
ATOM     21  C   UNL     1      -4.042  50.412  26.067  0.00  0.00    +0.066 C 
ATOM     22  C   UNL     1      -3.878  50.598  27.611  0.00  0.00    -0.064 C 
ATOM     23  N   UNL     1      -2.405  50.435  27.989  0.00  0.00    +0.379 N 
ATOM     24  C   UNL     1      -2.240  50.667  29.431  0.00  0.00    -0.096 C 
ATOM     25  H   UNL     1      -1.829  51.224  27.451  0.00  0.00    -0.082 HD
ATOM     26  C   UNL     1      -1.870  49.084  27.537  0.00  0.00    -0.064 C 
ATOM     27  C   UNL     1      -2.064  48.896  26.006  0.00  0.00    +0.066 C 
ENDBRANCH  19  20
ENDBRANCH  18  19
ENDBRANCH  14  15
ENDBRANCH  12  13
TORSDOF 6
ENDMDL
MODEL 2
REMARK VINA RESULT:      -8.5      9.530     16.723
REMARK  Name = C:\Users\Docking\Desktop\test protocol\1iep_ligandH.pdb
REMARK  8 active torsions:
REMARK  status: ('A' for Active; 'I' for Inactive)
REMARK    1  A    between atoms: _5  and  _11
REMARK    2  A    between atoms: _19  and  _21
REMARK    3  A    between atoms: _22  and  _66
REMARK    4  A    between atoms: _27  and  _30
REMARK    5  A    between atoms: _32  and  _33
REMARK    6  A    between atoms: _38  and  _43
REMARK    7  A    between atoms: _43  and  _46
REMARK    8  A    between atoms: _53  and  _55
REMARK                            x       y       z     vdW  Elec       q    Type
REMARK                         _______ _______ _______ _____ _____    ______ ____
ROOT
ATOM     10  C   UNL     1      -3.811  51.946  31.514  0.00  0.00    +0.038 A 
ATOM     11  C   UNL     1      -2.616  51.566  32.176  0.00  0.00    +0.047 A 
ATOM     12  C   UNL     1      -2.164  52.261  33.372  0.00  0.00    +0.035 A 
ATOM     32  C   UNL     1      -2.957  53.337  33.868  0.00  0.00    +0.024 A 
ATOM     33  C   UNL     1      -4.174  53.737  33.207  0.00  0.00    +0.007 A 
ATOM     34  C   UNL     1      -4.623  53.057  32.025  0.00  0.00    -0.029 A 
ATOM     35  C   UNL     1      -5.932  53.533  31.354  0.00  0.00    +0.045 C 
ENDROOT
BRANCH  10   9
ATOM      4  C   UNL     1      -3.729  51.208  26.772  0.00  0.00    +0.077 A 
ATOM      5  C   UNL     1      -2.865  52.332  26.553  0.00  0.00    +0.048 A 
ATOM      6  C   UNL     1      -2.470  53.078  27.686  0.00  0.00    +0.116 A 
ATOM      7  N   UNL     1      -2.913  52.718  28.940  0.00  0.00    -0.223 NA
ATOM      8  C   UNL     1      -3.747  51.629  29.117  0.00  0.00    +0.220 A 
ATOM      9  N   UNL     1      -4.198  51.244  30.370  0.00  0.00    -0.283 N 
ATOM     36  H   UNL     1      -4.818  50.440  30.458  0.00  0.00    +0.155 HD
ATOM     37  N   UNL     1      -4.139  50.901  28.051  0.00  0.00    -0.214 NA
BRANCH   4   3
ATOM      1  C   UNL     1      -4.075  48.273  24.210  0.00  0.00    +0.020 A 
ATOM      2  C   UNL     1      -3.549  49.095  25.275  0.00  0.00    +0.013 A 
ATOM      3  C   UNL     1      -4.230  50.320  25.676  0.00  0.00    +0.019 A 
ATOM     38  C   UNL     1      -5.451  50.686  24.975  0.00  0.00    +0.120 A 
ATOM     39  N   UNL     1      -5.934  49.875  23.952  0.00  0.00    -0.263 NA
ATOM     40  C   UNL     1      -5.286  48.695  23.556  0.00  0.00    +0.111 A 
ENDBRANCH   4   3
ENDBRANCH  10   9
BRANCH  12  13
ATOM     13  N   UNL     1      -0.955  51.925  34.082  0.00  0.00    -0.281 N 
ATOM     14  C   UNL     1      -0.048  52.788  34.674  0.00  0.00    +0.248 C 
ATOM     30  O   UNL     1      -0.027  53.997  34.497  0.00  0.00    -0.270 OA
ATOM     31  H   UNL     1      -0.742  50.930  34.157  0.00  0.00    +0.155 HD
BRANCH  14  15
ATOM     15  C   UNL     1       0.997  52.225  35.582  0.00  0.00    +0.037 A 
ATOM     16  C   UNL     1       2.246  52.946  35.843  0.00  0.00    +0.013 A 
ATOM     17  C   UNL     1       3.245  52.372  36.710  0.00  0.00    +0.005 A 
ATOM     18  C   UNL     1       2.997  51.070  37.324  0.00  0.00    -0.033 A 
ATOM     28  C   UNL     1       1.747  50.379  37.053  0.00  0.00    +0.005 A 
ATOM     29  C   UNL     1       0.767  50.938  36.203  0.00  0.00    +0.013 A 
BRANCH  18  19
ATOM     19  C   UNL     1       4.015  50.373  38.246  0.00  0.00    +0.119 C 
BRANCH  19  20
ATOM     20  N   UNL     1       4.508  51.143  39.427  0.00  0.00    -0.302 NA
ATOM     21  C   UNL     1       5.815  51.882  39.126  0.00  0.00    +0.066 C 
ATOM     22  C   UNL     1       6.304  52.701  40.364  0.00  0.00    -0.064 C 
ATOM     23  N   UNL     1       6.477  51.760  41.558  0.00  0.00    +0.379 N 
ATOM     24  C   UNL     1       6.993  52.516  42.708  0.00  0.00    -0.096 C 
ATOM     25  H   UNL     1       7.245  51.000  41.281  0.00  0.00    -0.082 HD
ATOM     26  C   UNL     1       5.183  51.018  41.863  0.00  0.00    -0.064 C 
ATOM     27  C   UNL     1       4.690  50.232  40.616  0.00  0.00    +0.066 C 
ENDBRANCH  19  20
ENDBRANCH  18  19
ENDBRANCH  14  15
ENDBRANCH  12  13
TORSDOF 6
ENDMDL
MODEL 3
REMARK VINA RESULT:      -8.4     16.932     23.212
REMARK  Name = C:\Users\Docking\Desktop\test protocol\1iep_ligandH.pdb
REMARK  8 active torsions:
REMARK  status: ('A' for Active; 'I' for Inactive)
REMARK    1  A    between atoms: _5  and  _11
REMARK    2  A    between atoms: _19  and  _21
REMARK    3  A    between atoms: _22  and  _66
REMARK    4  A    between atoms: _27  and  _30
REMARK    5  A    between atoms: _32  and  _33
REMARK    6  A    between atoms: _38  and  _43
REMARK    7  A    between atoms: _43  and  _46
REMARK    8  A    between atoms: _53  and  _55
REMARK                            x       y       z     vdW  Elec       q    Type
REMARK                         _______ _______ _______ _____ _____    ______ ____
ROOT
ATOM     10  C   UNL     1     -17.171  30.082  25.044  0.00  0.00    +0.038 A 
ATOM     11  C   UNL     1     -17.636  29.025  25.868  0.00  0.00    +0.047 A 
ATOM     12  C   UNL     1     -16.709  28.182  26.606  0.00  0.00    +0.035 A 
ATOM     32  C   UNL     1     -15.313  28.445  26.484  0.00  0.00    +0.024 A 
ATOM     33  C   UNL     1     -14.823  29.515  25.651  0.00  0.00    +0.007 A 
ATOM     34  C   UNL     1     -15.733  30.348  24.918  0.00  0.00    -0.029 A 
ATOM     35  C   UNL     1     -15.151  31.476  24.035  0.00  0.00    +0.045 C 
ENDROOT
BRANCH  10   9
ATOM      4  C   UNL     1     -20.039  30.921  21.288  0.00  0.00    +0.077 A 
ATOM      5  C   UNL     1     -19.619  29.721  20.624  0.00  0.00    +0.048 A 
ATOM      6  C   UNL     1     -18.658  28.919  21.280  0.00  0.00    +0.116 A 
ATOM      7  N   UNL     1     -18.161  29.299  22.508  0.00  0.00    -0.223 NA
ATOM      8  C   UNL     1     -18.586  30.463  23.120  0.00  0.00    +0.220 A 
ATOM      9  N   UNL     1     -18.106  30.860  24.358  0.00  0.00    -0.283 N 
ATOM     36  H   UNL     1     -18.439  31.730  24.773  0.00  0.00    +0.155 HD
ATOM     37  N   UNL     1     -19.502  31.247  22.514  0.00  0.00    -0.214 NA
BRANCH   4   3
ATOM      1  C   UNL     1     -22.089  33.160  18.822  0.00  0.00    +0.020 A 
ATOM      2  C   UNL     1     -21.092  32.239  19.315  0.00  0.00    +0.013 A 
ATOM      3  C   UNL     1     -21.050  31.871  20.725  0.00  0.00    +0.019 A 
ATOM     38  C   UNL     1     -22.039  32.458  21.616  0.00  0.00    +0.120 A 
ATOM     39  N   UNL     1     -22.987  33.343  21.112  0.00  0.00    -0.263 NA
ATOM     40  C   UNL     1     -23.036  33.706  19.758  0.00  0.00    +0.111 A 
ENDBRANCH   4   3
ENDBRANCH  10   9
BRANCH  12  13
ATOM     13  N   UNL     1     -17.122  27.090  27.451  0.00  0.00    -0.281 N 
ATOM     14  C   UNL     1     -17.665  27.156  28.724  0.00  0.00    +0.248 C 
ATOM     30  O   UNL     1     -17.680  28.162  29.418  0.00  0.00    -0.270 OA
ATOM     31  H   UNL     1     -16.999  26.154  27.064  0.00  0.00    +0.155 HD
BRANCH  14  15
ATOM     15  C   UNL     1     -18.265  25.922  29.318  0.00  0.00    +0.037 A 
ATOM     16  C   UNL     1     -17.772  25.371  30.583  0.00  0.00    +0.013 A 
ATOM     17  C   UNL     1     -18.358  24.170  31.125  0.00  0.00    +0.005 A 
ATOM     18  C   UNL     1     -19.445  23.514  30.402  0.00  0.00    -0.033 A 
ATOM     28  C   UNL     1     -19.918  24.086  29.152  0.00  0.00    +0.005 A 
ATOM     29  C   UNL     1     -19.346  25.262  28.617  0.00  0.00    +0.013 A 
BRANCH  18  19
ATOM     19  C   UNL     1     -20.115  22.218  30.896  0.00  0.00    +0.119 C 
BRANCH  19  20
ATOM     20  N   UNL     1     -19.543  20.926  30.412  0.00  0.00    -0.302 NA
ATOM     21  C   UNL     1     -18.039  20.826  30.682  0.00  0.00    +0.066 C 
ATOM     22  C   UNL     1     -17.461  19.459  30.190  0.00  0.00    -0.064 C 
ATOM     23  N   UNL     1     -17.756  19.292  28.698  0.00  0.00    +0.379 N 
ATOM     24  C   UNL     1     -17.164  18.034  28.219  0.00  0.00    -0.096 C 
ATOM     25  H   UNL     1     -17.255  20.129  28.158  0.00  0.00    -0.082 HD
ATOM     26  C   UNL     1     -19.249  19.392  28.421  0.00  0.00    -0.064 C 
ATOM     27  C   UNL     1     -19.819  20.741  28.940  0.00  0.00    +0.066 C 
ENDBRANCH  19  20
ENDBRANCH  18  19
ENDBRANCH  14  15
ENDBRANCH  12  13
TORSDOF 6
ENDMDL
MODEL 4
REMARK VINA RESULT:      -8.3      9.805     17.287
REMARK  Name = C:\Users\Docking\Desktop\test protocol\1iep_ligandH.pdb
REMARK  8 active torsions:
REMARK  status: ('A' for Active; 'I' for Inactive)
REMARK    1  A    between atoms: _5  and  _11
REMARK    2  A    between atoms: _19  and  _21
REMARK    3  A    between atoms: _22  and  _66
REMARK    4  A    between atoms: _27  and  _30
REMARK    5  A    between atoms: _32  and  _33
REMARK    6  A    between atoms: _38  and  _43
REMARK    7  A    between atoms: _43  and  _46
REMARK    8  A    between atoms: _53  and  _55
REMARK                            x       y       z     vdW  Elec       q    Type
REMARK                         _______ _______ _______ _____ _____    ______ ____
ROOT
ATOM     10  C   UNL     1      -0.839  54.352  30.029  0.00  0.00    +0.038 A 
ATOM     11  C   UNL     1      -0.255  53.770  31.183  0.00  0.00    +0.047 A 
ATOM     12  C   UNL     1       0.081  54.576  32.346  0.00  0.00    +0.035 A 
ATOM     32  C   UNL     1      -0.195  55.974  32.301  0.00  0.00    +0.024 A 
ATOM     33  C   UNL     1      -0.787  56.583  31.136  0.00  0.00    +0.007 A 
ATOM     34  C   UNL     1      -1.118  55.793  29.985  0.00  0.00    -0.029 A 
ATOM     35  C   UNL     1      -1.745  56.500  28.761  0.00  0.00    +0.045 C 
ENDROOT
BRANCH  10   9
ATOM      4  C   UNL     1      -3.598  51.113  27.808  0.00  0.00    +0.077 A 
ATOM      5  C   UNL     1      -4.500  51.031  28.921  0.00  0.00    +0.048 A 
ATOM      6  C   UNL     1      -4.214  51.834  30.048  0.00  0.00    +0.116 A 
ATOM      7  N   UNL     1      -3.106  52.654  30.052  0.00  0.00    -0.223 NA
ATOM      8  C   UNL     1      -2.256  52.708  28.963  0.00  0.00    +0.220 A 
ATOM      9  N   UNL     1      -1.141  53.531  28.941  0.00  0.00    -0.283 N 
ATOM     36  H   UNL     1      -0.534  53.536  28.122  0.00  0.00    +0.155 HD
ATOM     37  N   UNL     1      -2.506  51.950  27.875  0.00  0.00    -0.214 NA
BRANCH   4   3
ATOM      1  C   UNL     1      -4.867  49.888  24.317  0.00  0.00    +0.020 A 
ATOM      2  C   UNL     1      -4.745  50.678  25.521  0.00  0.00    +0.013 A 
ATOM      3  C   UNL     1      -3.767  50.330  26.544  0.00  0.00    +0.019 A 
ATOM     38  C   UNL     1      -2.921  49.168  26.316  0.00  0.00    +0.120 A 
ATOM     39  N   UNL     1      -3.063  48.425  25.148  0.00  0.00    -0.263 NA
ATOM     40  C   UNL     1      -4.001  48.750  24.157  0.00  0.00    +0.111 A 
ENDBRANCH   4   3
ENDBRANCH  10   9
BRANCH  12  13
ATOM     13  N   UNL     1       0.682  54.041  33.542  0.00  0.00    -0.281 N 
ATOM     14  C   UNL     1       0.122  53.168  34.460  0.00  0.00    +0.248 C 
ATOM     30  O   UNL     1      -1.065  52.880  34.505  0.00  0.00    -0.270 OA
ATOM     31  H   UNL     1       1.637  54.343  33.736  0.00  0.00    +0.155 HD
BRANCH  14  15
ATOM     15  C   UNL     1       1.005  52.535  35.486  0.00  0.00    +0.037 A 
ATOM     16  C   UNL     1       2.152  53.252  36.049  0.00  0.00    +0.013 A 
ATOM     17  C   UNL     1       2.998  52.611  37.025  0.00  0.00    +0.005 A 
ATOM     18  C   UNL     1       2.698  51.244  37.445  0.00  0.00    -0.033 A 
ATOM     28  C   UNL     1       1.551  50.558  36.874  0.00  0.00    +0.005 A 
ATOM     29  C   UNL     1       0.720  51.183  35.917  0.00  0.00    +0.013 A 
BRANCH  18  19
ATOM     19  C   UNL     1       3.559  50.475  38.465  0.00  0.00    +0.119 C 
BRANCH  19  20
ATOM     20  N   UNL     1       4.208  51.271  39.549  0.00  0.00    -0.302 NA
ATOM     21  C   UNL     1       5.680  51.561  39.246  0.00  0.00    +0.066 C 
ATOM     22  C   UNL     1       6.338  52.413  40.379  0.00  0.00    -0.064 C 
ATOM     23  N   UNL     1       6.195  51.679  41.714  0.00  0.00    +0.379 N 
ATOM     24  C   UNL     1       6.863  52.450  42.772  0.00  0.00    -0.096 C 
ATOM     25  H   UNL     1       6.725  50.703  41.620  0.00  0.00    -0.082 HD
ATOM     26  C   UNL     1       4.734  51.384  42.022  0.00  0.00    -0.064 C 
ATOM     27  C   UNL     1       4.082  50.562  40.875  0.00  0.00    +0.066 C 
ENDBRANCH  19  20
ENDBRANCH  18  19
ENDBRANCH  14  15
ENDBRANCH  12  13
TORSDOF 6
ENDMDL
MODEL 5
REMARK VINA RESULT:      -8.1      6.217     10.930
REMARK  Name = C:\Users\Docking\Desktop\test protocol\1iep_ligandH.pdb
REMARK  8 active torsions:
REMARK  status: ('A' for Active; 'I' for Inactive)
REMARK    1  A    between atoms: _5  and  _11
REMARK    2  A    between atoms: _19  and  _21
REMARK    3  A    between atoms: _22  and  _66
REMARK    4  A    between atoms: _27  and  _30
REMARK    5  A    between atoms: _32  and  _33
REMARK    6  A    between atoms: _38  and  _43
REMARK    7  A    between atoms: _43  and  _46
REMARK    8  A    between atoms: _53  and  _55
REMARK                            x       y       z     vdW  Elec       q    Type
REMARK                         _______ _______ _______ _____ _____    ______ ____
ROOT
ATOM     10  C   UNL     1      -8.619  40.531  19.754  0.00  0.00    +0.038 A 
ATOM     11  C   UNL     1      -9.972  40.746  19.388  0.00  0.00    +0.047 A 
ATOM     12  C   UNL     1     -10.473  42.082  19.105  0.00  0.00    +0.035 A 
ATOM     32  C   UNL     1      -9.565  43.178  19.201  0.00  0.00    +0.024 A 
ATOM     33  C   UNL     1      -8.187  42.978  19.573  0.00  0.00    +0.007 A 
ATOM     34  C   UNL     1      -7.688  41.662  19.856  0.00  0.00    -0.029 A 
ATOM     35  C   UNL     1      -6.203  41.508  20.256  0.00  0.00    +0.045 C 
ENDROOT
BRANCH  10   9
ATOM      4  C   UNL     1      -6.565  36.404  18.420  0.00  0.00    +0.077 A 
ATOM      5  C   UNL     1      -6.347  36.876  17.083  0.00  0.00    +0.048 A 
ATOM      6  C   UNL     1      -6.784  38.184  16.777  0.00  0.00    +0.116 A 
ATOM      7  N   UNL     1      -7.393  38.954  17.745  0.00  0.00    -0.223 NA
ATOM      8  C   UNL     1      -7.590  38.468  19.024  0.00  0.00    +0.220 A 
ATOM      9  N   UNL     1      -8.193  39.227  20.015  0.00  0.00    -0.283 N 
ATOM     36  H   UNL     1      -8.326  38.830  20.944  0.00  0.00    +0.155 HD
ATOM     37  N   UNL     1      -7.182  37.221  19.341  0.00  0.00    -0.214 NA
BRANCH   4   3
ATOM      1  C   UNL     1      -6.064  32.533  18.683  0.00  0.00    +0.020 A 
ATOM      2  C   UNL     1      -6.484  33.820  18.179  0.00  0.00    +0.013 A 
ATOM      3  C   UNL     1      -6.155  35.045  18.898  0.00  0.00    +0.019 A 
ATOM     38  C   UNL     1      -5.393  34.932  20.132  0.00  0.00    +0.120 A 
ATOM     39  N   UNL     1      -5.004  33.678  20.594  0.00  0.00    -0.263 NA
ATOM     40  C   UNL     1      -5.316  32.493  19.912  0.00  0.00    +0.111 A 
ENDBRANCH   4   3
ENDBRANCH  10   9
BRANCH  12  13
ATOM     13  N   UNL     1     -11.838  42.363  18.737  0.00  0.00    -0.281 N 
ATOM     14  C   UNL     1     -12.937  42.483  19.571  0.00  0.00    +0.248 C 
ATOM     30  O   UNL     1     -12.951  42.156  20.748  0.00  0.00    -0.270 OA
ATOM     31  H   UNL     1     -12.016  42.487  17.740  0.00  0.00    +0.155 HD
BRANCH  14  15
ATOM     15  C   UNL     1     -14.210  43.034  19.013  0.00  0.00    +0.037 A 
ATOM     16  C   UNL     1     -14.277  43.559  17.647  0.00  0.00    +0.013 A 
ATOM     17  C   UNL     1     -15.512  44.101  17.139  0.00  0.00    +0.005 A 
ATOM     18  C   UNL     1     -16.693  44.118  18.000  0.00  0.00    -0.033 A 
ATOM     28  C   UNL     1     -16.600  43.586  19.349  0.00  0.00    +0.005 A 
ATOM     29  C   UNL     1     -15.391  43.056  19.850  0.00  0.00    +0.013 A 
BRANCH  18  19
ATOM     19  C   UNL     1     -18.048  44.696  17.549  0.00  0.00    +0.119 C 
BRANCH  19  20
ATOM     20  N   UNL     1     -19.281  44.020  18.051  0.00  0.00    -0.302 NA
ATOM     21  C   UNL     1     -20.377  43.957  16.984  0.00  0.00    +0.066 C 
ATOM     22  C   UNL     1     -21.651  43.226  17.519  0.00  0.00    -0.064 C 
ATOM     23  N   UNL     1     -22.157  43.942  18.773  0.00  0.00    +0.379 N 
ATOM     24  C   UNL     1     -23.389  43.293  19.246  0.00  0.00    -0.096 C 
ATOM     25  H   UNL     1     -22.415  44.988  18.484  0.00  0.00    -0.082 HD
ATOM     26  C   UNL     1     -21.073  44.012  19.839  0.00  0.00    -0.064 C 
ATOM     27  C   UNL     1     -19.800  44.714  19.287  0.00  0.00    +0.066 C 
ENDBRANCH  19  20
ENDBRANCH  18  19
ENDBRANCH  14  15
ENDBRANCH  12  13
TORSDOF 6
ENDMDL
