MODEL 1
REMARK VINA RESULT:      -8.3      0.000      0.000
REMARK  Name = C:\Users\Docking\Desktop\test protocol\1iep_ligandH.pdb
REMARK  8 active torsions:
REMARK  status: ('A' for Active; 'I' for Inactive)
REMARK    1  A    between atoms: _5  and  _11
REMARK    2  A    between atoms: _19  and  _21
REMARK    3  A    between atoms: _22  and  _66
REMARK    4  A    between atoms: _27  and  _30
REMARK    5  A    between atoms: _32  and  _33
REMARK    6  A    between atoms: _38  and  _43
REMARK    7  A    between atoms: _43  and  _46
REMARK    8  A    between atoms: _53  and  _55
REMARK                            x       y       z     vdW  Elec       q    Type
REMARK                         _______ _______ _______ _____ _____    ______ ____
ROOT
ATOM     10  C   UNL     1       4.886 -15.181  -0.612  0.00  0.00    +0.038 A 
ATOM     11  C   UNL     1       4.205 -16.410  -0.809  0.00  0.00    +0.047 A 
ATOM     12  C   UNL     1       3.098 -16.514  -1.746  0.00  0.00    +0.035 A 
ATOM     32  C   UNL     1       2.711 -15.348  -2.469  0.00  0.00    +0.024 A 
ATOM     33  C   UNL     1       3.392 -14.091  -2.280  0.00  0.00    +0.007 A 
ATOM     34  C   UNL     1       4.483 -13.981  -1.355  0.00  0.00    -0.029 A 
ATOM     35  C   UNL     1       5.171 -12.606  -1.188  0.00  0.00    +0.045 C 
ENDROOT
BRANCH  10   9
ATOM      4  C   UNL     1       6.638 -14.500   3.804  0.00  0.00    +0.077 A 
ATOM      5  C   UNL     1       5.344 -14.178   4.332  0.00  0.00    +0.048 A 
ATOM      6  C   UNL     1       4.254 -14.192   3.433  0.00  0.00    +0.116 A 
ATOM      7  N   UNL     1       4.456 -14.506   2.106  0.00  0.00    -0.223 NA
ATOM      8  C   UNL     1       5.718 -14.810   1.629  0.00  0.00    +0.220 A 
ATOM      9  N   UNL     1       5.942 -15.137   0.301  0.00  0.00    -0.283 N 
ATOM     36  H   UNL     1       6.889 -15.348  -0.014  0.00  0.00    +0.155 HD
ATOM     37  N   UNL     1       6.775 -14.802   2.468  0.00  0.00    -0.214 NA
BRANCH   4   3
ATOM      1  C   UNL     1       9.129 -14.909   6.793  0.00  0.00    +0.020 A 
ATOM      2  C   UNL     1       7.895 -14.895   6.041  0.00  0.00    +0.013 A 
ATOM      3  C   UNL     1       7.887 -14.531   4.630  0.00  0.00    +0.019 A 
ATOM     38  C   UNL     1       9.154 -14.184   4.004  0.00  0.00    +0.120 A 
ATOM     39  N   UNL     1      10.327 -14.206   4.754  0.00  0.00    -0.263 NA
ATOM     40  C   UNL     1      10.346 -14.553   6.113  0.00  0.00    +0.111 A 
ENDBRANCH   4   3
ENDBRANCH  10   9
BRANCH  12  13
ATOM     13  N   UNL     1       2.364 -17.733  -1.982  0.00  0.00    -0.281 N 
ATOM     14  C   UNL     1       2.703 -18.783  -2.819  0.00  0.00    +0.248 C 
ATOM     30  O   UNL     1       3.589 -18.738  -3.660  0.00  0.00    -0.270 OA
ATOM     31  H   UNL     1       1.488 -17.834  -1.469  0.00  0.00    +0.155 HD
BRANCH  14  15
ATOM     15  C   UNL     1       1.938 -20.063  -2.719  0.00  0.00    +0.037 A 
ATOM     16  C   UNL     1       0.538 -20.147  -3.144  0.00  0.00    +0.013 A 
ATOM     17  C   UNL     1      -0.181 -21.390  -3.020  0.00  0.00    +0.005 A 
ATOM     18  C   UNL     1       0.499 -22.560  -2.470  0.00  0.00    -0.033 A 
ATOM     28  C   UNL     1       1.889 -22.450  -2.061  0.00  0.00    +0.005 A 
ATOM     29  C   UNL     1       2.598 -21.233  -2.180  0.00  0.00    +0.013 A 
BRANCH  18  19
ATOM     19  C   UNL     1      -0.197 -23.921  -2.282  0.00  0.00    +0.119 C 
BRANCH  19  20
ATOM     20  N   UNL     1      -1.248 -24.011  -1.224  0.00  0.00    -0.302 NA
ATOM     21  C   UNL     1      -0.720 -23.586   0.149  0.00  0.00    +0.066 C 
ATOM     22  C   UNL     1      -1.838 -23.665   1.238  0.00  0.00    -0.064 C 
ATOM     23  N   UNL     1      -2.397 -25.088   1.290  0.00  0.00    +0.379 N 
ATOM     24  C   UNL     1      -3.408 -25.180   2.353  0.00  0.00    -0.096 C 
ATOM     25  H   UNL     1      -1.558 -25.770   1.561  0.00  0.00    -0.082 HD
ATOM     26  C   UNL     1      -2.922 -25.520  -0.072  0.00  0.00    -0.064 C 
ATOM     27  C   UNL     1      -1.811 -25.409  -1.153  0.00  0.00    +0.066 C 
ENDBRANCH  19  20
ENDBRANCH  18  19
ENDBRANCH  14  15
ENDBRANCH  12  13
TORSDOF 6
ENDMDL
MODEL 2
REMARK VINA RESULT:      -8.3      1.023      1.491
REMARK  Name = C:\Users\Docking\Desktop\test protocol\1iep_ligandH.pdb
REMARK  8 active torsions:
REMARK  status: ('A' for Active; 'I' for Inactive)
REMARK    1  A    between atoms: _5  and  _11
REMARK    2  A    between atoms: _19  and  _21
REMARK    3  A    between atoms: _22  and  _66
REMARK    4  A    between atoms: _27  and  _30
REMARK    5  A    between atoms: _32  and  _33
REMARK    6  A    between atoms: _38  and  _43
REMARK    7  A    between atoms: _43  and  _46
REMARK    8  A    between atoms: _53  and  _55
REMARK                            x       y       z     vdW  Elec       q    Type
REMARK                         _______ _______ _______ _____ _____    ______ ____
ROOT
ATOM     10  C   UNL     1       4.412 -14.684   0.345  0.00  0.00    +0.038 A 
ATOM     11  C   UNL     1       3.753 -15.903   0.047  0.00  0.00    +0.047 A 
ATOM     12  C   UNL     1       3.030 -16.083  -1.203  0.00  0.00    +0.035 A 
ATOM     32  C   UNL     1       3.003 -14.999  -2.128  0.00  0.00    +0.024 A 
ATOM     33  C   UNL     1       3.667 -13.752  -1.841  0.00  0.00    +0.007 A 
ATOM     34  C   UNL     1       4.379 -13.568  -0.609  0.00  0.00    -0.029 A 
ATOM     35  C   UNL     1       5.067 -12.208  -0.352  0.00  0.00    +0.045 C 
ENDROOT
BRANCH  10   9
ATOM      4  C   UNL     1       8.334 -15.178   3.068  0.00  0.00    +0.077 A 
ATOM      5  C   UNL     1       9.086 -15.744   1.985  0.00  0.00    +0.048 A 
ATOM      6  C   UNL     1       8.425 -15.897   0.746  0.00  0.00    +0.116 A 
ATOM      7  N   UNL     1       7.110 -15.510   0.611  0.00  0.00    -0.223 NA
ATOM      8  C   UNL     1       6.412 -14.970   1.675  0.00  0.00    +0.220 A 
ATOM      9  N   UNL     1       5.091 -14.566   1.560  0.00  0.00    -0.283 N 
ATOM     36  H   UNL     1       4.609 -14.179   2.371  0.00  0.00    +0.155 HD
ATOM     37  N   UNL     1       7.021 -14.814   2.870  0.00  0.00    -0.214 NA
BRANCH   4   3
ATOM      1  C   UNL     1       8.791 -15.121   6.952  0.00  0.00    +0.020 A 
ATOM      2  C   UNL     1       8.206 -15.365   5.654  0.00  0.00    +0.013 A 
ATOM      3  C   UNL     1       8.894 -14.950   4.437  0.00  0.00    +0.019 A 
ATOM     38  C   UNL     1      10.183 -14.288   4.570  0.00  0.00    +0.120 A 
ATOM     39  N   UNL     1      10.721 -14.065   5.834  0.00  0.00    -0.263 NA
ATOM     40  C   UNL     1      10.067 -14.458   7.012  0.00  0.00    +0.111 A 
ENDBRANCH   4   3
ENDBRANCH  10   9
BRANCH  12  13
ATOM     13  N   UNL     1       2.335 -17.295  -1.556  0.00  0.00    -0.281 N 
ATOM     14  C   UNL     1       2.813 -18.368  -2.290  0.00  0.00    +0.248 C 
ATOM     30  O   UNL     1       3.849 -18.355  -2.938  0.00  0.00    -0.270 OA
ATOM     31  H   UNL     1       1.373 -17.372  -1.225  0.00  0.00    +0.155 HD
BRANCH  14  15
ATOM     15  C   UNL     1       2.019 -19.635  -2.318  0.00  0.00    +0.037 A 
ATOM     16  C   UNL     1       0.564 -19.616  -2.486  0.00  0.00    +0.013 A 
ATOM     17  C   UNL     1      -0.179 -20.850  -2.494  0.00  0.00    +0.005 A 
ATOM     18  C   UNL     1       0.533 -22.116  -2.333  0.00  0.00    -0.033 A 
ATOM     28  C   UNL     1       1.977 -22.106  -2.173  0.00  0.00    +0.005 A 
ATOM     29  C   UNL     1       2.709 -20.898  -2.165  0.00  0.00    +0.013 A 
BRANCH  18  19
ATOM     19  C   UNL     1      -0.182 -23.480  -2.307  0.00  0.00    +0.119 C 
BRANCH  19  20
ATOM     20  N   UNL     1      -1.214 -23.691  -1.249  0.00  0.00    -0.302 NA
ATOM     21  C   UNL     1      -0.697 -23.315   0.142  0.00  0.00    +0.066 C 
ATOM     22  C   UNL     1      -1.797 -23.520   1.233  0.00  0.00    -0.064 C 
ATOM     23  N   UNL     1      -2.272 -24.974   1.207  0.00  0.00    +0.379 N 
ATOM     24  C   UNL     1      -3.265 -25.185   2.271  0.00  0.00    -0.096 C 
ATOM     25  H   UNL     1      -1.392 -25.621   1.432  0.00  0.00    -0.082 HD
ATOM     26  C   UNL     1      -2.786 -25.358  -0.173  0.00  0.00    -0.064 C 
ATOM     27  C   UNL     1      -1.694 -25.122  -1.254  0.00  0.00    +0.066 C 
ENDBRANCH  19  20
ENDBRANCH  18  19
ENDBRANCH  14  15
ENDBRANCH  12  13
TORSDOF 6
ENDMDL
MODEL 3
REMARK VINA RESULT:      -7.9      1.445      2.456
REMARK  Name = C:\Users\Docking\Desktop\test protocol\1iep_ligandH.pdb
REMARK  8 active torsions:
REMARK  status: ('A' for Active; 'I' for Inactive)
REMARK    1  A    between atoms: _5  and  _11
REMARK    2  A    between atoms: _19  and  _21
REMARK    3  A    between atoms: _22  and  _66
REMARK    4  A    between atoms: _27  and  _30
REMARK    5  A    between atoms: _32  and  _33
REMARK    6  A    between atoms: _38  and  _43
REMARK    7  A    between atoms: _43  and  _46
REMARK    8  A    between atoms: _53  and  _55
REMARK                            x       y       z     vdW  Elec       q    Type
REMARK                         _______ _______ _______ _____ _____    ______ ____
ROOT
ATOM     10  C   UNL     1       4.955 -15.265  -0.657  0.00  0.00    +0.038 A 
ATOM     11  C   UNL     1       4.187 -16.454  -0.747  0.00  0.00    +0.047 A 
ATOM     12  C   UNL     1       3.075 -16.563  -1.678  0.00  0.00    +0.035 A 
ATOM     32  C   UNL     1       2.773 -15.441  -2.504  0.00  0.00    +0.024 A 
ATOM     33  C   UNL     1       3.541 -14.224  -2.424  0.00  0.00    +0.007 A 
ATOM     34  C   UNL     1       4.639 -14.110  -1.506  0.00  0.00    -0.029 A 
ATOM     35  C   UNL     1       5.424 -12.779  -1.458  0.00  0.00    +0.045 C 
ENDROOT
BRANCH  10   9
ATOM      4  C   UNL     1       6.735 -14.423   3.721  0.00  0.00    +0.077 A 
ATOM      5  C   UNL     1       5.455 -14.021   4.229  0.00  0.00    +0.048 A 
ATOM      6  C   UNL     1       4.365 -14.039   3.329  0.00  0.00    +0.116 A 
ATOM      7  N   UNL     1       4.553 -14.431   2.021  0.00  0.00    -0.223 NA
ATOM      8  C   UNL     1       5.802 -14.810   1.563  0.00  0.00    +0.220 A 
ATOM      9  N   UNL     1       6.012 -15.216   0.254  0.00  0.00    -0.283 N 
ATOM     36  H   UNL     1       6.950 -15.481  -0.047  0.00  0.00    +0.155 HD
ATOM     37  N   UNL     1       6.858 -14.801   2.402  0.00  0.00    -0.214 NA
BRANCH   4   3
ATOM      1  C   UNL     1       9.207 -14.776   6.731  0.00  0.00    +0.020 A 
ATOM      2  C   UNL     1       7.975 -14.751   5.977  0.00  0.00    +0.013 A 
ATOM      3  C   UNL     1       7.981 -14.460   4.549  0.00  0.00    +0.019 A 
ATOM     38  C   UNL     1       9.261 -14.198   3.908  0.00  0.00    +0.120 A 
ATOM     39  N   UNL     1      10.432 -14.227   4.660  0.00  0.00    -0.263 NA
ATOM     40  C   UNL     1      10.438 -14.504   6.036  0.00  0.00    +0.111 A 
ENDBRANCH   4   3
ENDBRANCH  10   9
BRANCH  12  13
ATOM     13  N   UNL     1       2.255 -17.742  -1.809  0.00  0.00    -0.281 N 
ATOM     14  C   UNL     1       2.428 -18.807  -2.677  0.00  0.00    +0.248 C 
ATOM     30  O   UNL     1       3.197 -18.807  -3.627  0.00  0.00    -0.270 OA
ATOM     31  H   UNL     1       1.450 -17.798  -1.185  0.00  0.00    +0.155 HD
BRANCH  14  15
ATOM     15  C   UNL     1       1.618 -20.046  -2.470  0.00  0.00    +0.037 A 
ATOM     16  C   UNL     1       2.260 -21.345  -2.252  0.00  0.00    +0.013 A 
ATOM     17  C   UNL     1       1.456 -22.528  -2.072  0.00  0.00    +0.005 A 
ATOM     18  C   UNL     1      -0.001 -22.416  -2.107  0.00  0.00    -0.033 A 
ATOM     28  C   UNL     1      -0.611 -21.114  -2.320  0.00  0.00    +0.005 A 
ATOM     29  C   UNL     1       0.174 -19.953  -2.498  0.00  0.00    +0.013 A 
BRANCH  18  19
ATOM     19  C   UNL     1      -0.937 -23.628  -1.945  0.00  0.00    +0.119 C 
BRANCH  19  20
ATOM     20  N   UNL     1      -0.501 -24.916  -2.563  0.00  0.00    -0.302 NA
ATOM     21  C   UNL     1      -0.445 -24.831  -4.091  0.00  0.00    +0.066 C 
ATOM     22  C   UNL     1       0.035 -26.180  -4.719  0.00  0.00    -0.064 C 
ATOM     23  N   UNL     1      -0.898 -27.307  -4.273  0.00  0.00    +0.379 N 
ATOM     24  C   UNL     1      -0.484 -28.567  -4.908  0.00  0.00    -0.096 C 
ATOM     25  H   UNL     1      -1.922 -27.064  -4.640  0.00  0.00    -0.082 HD
ATOM     26  C   UNL     1      -0.961 -27.397  -2.755  0.00  0.00    -0.064 C 
ATOM     27  C   UNL     1      -1.411 -26.043  -2.139  0.00  0.00    +0.066 C 
ENDBRANCH  19  20
ENDBRANCH  18  19
ENDBRANCH  14  15
ENDBRANCH  12  13
TORSDOF 6
ENDMDL
MODEL 4
REMARK VINA RESULT:      -7.8      8.328     12.685
REMARK  Name = C:\Users\Docking\Desktop\test protocol\1iep_ligandH.pdb
REMARK  8 active torsions:
REMARK  status: ('A' for Active; 'I' for Inactive)
REMARK    1  A    between atoms: _5  and  _11
REMARK    2  A    between atoms: _19  and  _21
REMARK    3  A    between atoms: _22  and  _66
REMARK    4  A    between atoms: _27  and  _30
REMARK    5  A    between atoms: _32  and  _33
REMARK    6  A    between atoms: _38  and  _43
REMARK    7  A    between atoms: _43  and  _46
REMARK    8  A    between atoms: _53  and  _55
REMARK                            x       y       z     vdW  Elec       q    Type
REMARK                         _______ _______ _______ _____ _____    ______ ____
ROOT
ATOM     10  C   UNL     1       2.003  -6.821   1.609  0.00  0.00    +0.038 A 
ATOM     11  C   UNL     1       2.735  -7.854   2.248  0.00  0.00    +0.047 A 
ATOM     12  C   UNL     1       2.978  -9.126   1.585  0.00  0.00    +0.035 A 
ATOM     32  C   UNL     1       2.462  -9.310   0.269  0.00  0.00    +0.024 A 
ATOM     33  C   UNL     1       1.715  -8.271  -0.395  0.00  0.00    +0.007 A 
ATOM     34  C   UNL     1       1.471  -7.015   0.255  0.00  0.00    -0.029 A 
ATOM     35  C   UNL     1       0.658  -5.939  -0.502  0.00  0.00    +0.045 C 
ENDROOT
BRANCH  10   9
ATOM      4  C   UNL     1      -0.289  -4.138   4.862  0.00  0.00    +0.077 A 
ATOM      5  C   UNL     1      -1.175  -5.211   5.210  0.00  0.00    +0.048 A 
ATOM      6  C   UNL     1      -1.012  -6.435   4.524  0.00  0.00    +0.116 A 
ATOM      7  N   UNL     1      -0.033  -6.565   3.563  0.00  0.00    -0.223 NA
ATOM      8  C   UNL     1       0.803  -5.509   3.250  0.00  0.00    +0.220 A 
ATOM      9  N   UNL     1       1.800  -5.620   2.293  0.00  0.00    -0.283 N 
ATOM     36  H   UNL     1       2.392  -4.815   2.085  0.00  0.00    +0.155 HD
ATOM     37  N   UNL     1       0.667  -4.329   3.890  0.00  0.00    -0.214 NA
BRANCH   4   3
ATOM      1  C   UNL     1       0.005  -1.220   7.450  0.00  0.00    +0.020 A 
ATOM      2  C   UNL     1       0.068  -2.546   6.882  0.00  0.00    +0.013 A 
ATOM      3  C   UNL     1      -0.335  -2.784   5.501  0.00  0.00    +0.019 A 
ATOM     38  C   UNL     1      -0.798  -1.650   4.717  0.00  0.00    +0.120 A 
ATOM     39  N   UNL     1      -0.849  -0.384   5.292  0.00  0.00    -0.263 NA
ATOM     40  C   UNL     1      -0.466  -0.143   6.620  0.00  0.00    +0.111 A 
ENDBRANCH   4   3
ENDBRANCH  10   9
BRANCH  12  13
ATOM     13  N   UNL     1       3.707 -10.214   2.187  0.00  0.00    -0.281 N 
ATOM     14  C   UNL     1       3.228 -11.462   2.551  0.00  0.00    +0.248 C 
ATOM     30  O   UNL     1       2.043 -11.757   2.609  0.00  0.00    -0.270 OA
ATOM     31  H   UNL     1       4.696 -10.044   2.367  0.00  0.00    +0.155 HD
BRANCH  14  15
ATOM     15  C   UNL     1       4.205 -12.532   2.916  0.00  0.00    +0.037 A 
ATOM     16  C   UNL     1       3.915 -13.494   3.982  0.00  0.00    +0.013 A 
ATOM     17  C   UNL     1       4.882 -14.506   4.326  0.00  0.00    +0.005 A 
ATOM     18  C   UNL     1       6.149 -14.562   3.600  0.00  0.00    -0.033 A 
ATOM     28  C   UNL     1       6.408 -13.599   2.543  0.00  0.00    +0.005 A 
ATOM     29  C   UNL     1       5.463 -12.605   2.204  0.00  0.00    +0.013 A 
BRANCH  18  19
ATOM     19  C   UNL     1       7.248 -15.594   3.914  0.00  0.00    +0.119 C 
BRANCH  19  20
ATOM     20  N   UNL     1       8.479 -15.096   4.596  0.00  0.00    -0.302 NA
ATOM     21  C   UNL     1       8.170 -13.978   5.595  0.00  0.00    +0.066 C 
ATOM     22  C   UNL     1       9.466 -13.484   6.316  0.00  0.00    -0.064 C 
ATOM     23  N   UNL     1      10.480 -13.013   5.272  0.00  0.00    +0.379 N 
ATOM     24  C   UNL     1      11.677 -12.494   5.949  0.00  0.00    -0.096 C 
ATOM     25  H   UNL     1      10.017 -12.169   4.709  0.00  0.00    -0.082 HD
ATOM     26  C   UNL     1      10.791 -14.118   4.273  0.00  0.00    -0.064 C 
ATOM     27  C   UNL     1       9.492 -14.622   3.584  0.00  0.00    +0.066 C 
ENDBRANCH  19  20
ENDBRANCH  18  19
ENDBRANCH  14  15
ENDBRANCH  12  13
TORSDOF 6
ENDMDL
MODEL 5
REMARK VINA RESULT:      -7.6      6.287      9.404
REMARK  Name = C:\Users\Docking\Desktop\test protocol\1iep_ligandH.pdb
REMARK  8 active torsions:
REMARK  status: ('A' for Active; 'I' for Inactive)
REMARK    1  A    between atoms: _5  and  _11
REMARK    2  A    between atoms: _19  and  _21
REMARK    3  A    between atoms: _22  and  _66
REMARK    4  A    between atoms: _27  and  _30
REMARK    5  A    between atoms: _32  and  _33
REMARK    6  A    between atoms: _38  and  _43
REMARK    7  A    between atoms: _43  and  _46
REMARK    8  A    between atoms: _53  and  _55
REMARK                            x       y       z     vdW  Elec       q    Type
REMARK                         _______ _______ _______ _____ _____    ______ ____
ROOT
ATOM     10  C   UNL     1       5.064 -11.607   2.045  0.00  0.00    +0.038 A 
ATOM     11  C   UNL     1       5.334 -12.611   1.081  0.00  0.00    +0.047 A 
ATOM     12  C   UNL     1       5.737 -13.950   1.482  0.00  0.00    +0.035 A 
ATOM     32  C   UNL     1       5.852 -14.233   2.874  0.00  0.00    +0.024 A 
ATOM     33  C   UNL     1       5.582 -13.223   3.868  0.00  0.00    +0.007 A 
ATOM     34  C   UNL     1       5.187 -11.900   3.478  0.00  0.00    -0.029 A 
ATOM     35  C   UNL     1       4.917 -10.856   4.587  0.00  0.00    +0.045 C 
ENDROOT
BRANCH  10   9
ATOM      4  C   UNL     1       1.738  -8.419   0.698  0.00  0.00    +0.077 A 
ATOM      5  C   UNL     1       0.676  -9.370   0.861  0.00  0.00    +0.048 A 
ATOM      6  C   UNL     1       1.029 -10.671   1.286  0.00  0.00    +0.116 A 
ATOM      7  N   UNL     1       2.348 -10.985   1.528  0.00  0.00    -0.223 NA
ATOM      8  C   UNL     1       3.348 -10.045   1.360  0.00  0.00    +0.220 A 
ATOM      9  N   UNL     1       4.681 -10.338   1.605  0.00  0.00    -0.283 N 
ATOM     36  H   UNL     1       5.390  -9.619   1.462  0.00  0.00    +0.155 HD
ATOM     37  N   UNL     1       3.037  -8.797   0.953  0.00  0.00    -0.214 NA
BRANCH   4   3
ATOM      1  C   UNL     1       0.768  -5.272  -1.412  0.00  0.00    +0.020 A 
ATOM      2  C   UNL     1       0.954  -6.654  -1.036  0.00  0.00    +0.013 A 
ATOM      3  C   UNL     1       1.524  -7.004   0.259  0.00  0.00    +0.019 A 
ATOM     38  C   UNL     1       1.899  -5.923   1.157  0.00  0.00    +0.120 A 
ATOM     39  N   UNL     1       1.709  -4.600   0.768  0.00  0.00    -0.263 NA
ATOM     40  C   UNL     1       1.163  -4.252  -0.477  0.00  0.00    +0.111 A 
ENDBRANCH   4   3
ENDBRANCH  10   9
BRANCH  12  13
ATOM     13  N   UNL     1       6.031 -15.008   0.548  0.00  0.00    -0.281 N 
ATOM     14  C   UNL     1       7.220 -15.245  -0.124  0.00  0.00    +0.248 C 
ATOM     30  O   UNL     1       8.148 -14.452  -0.186  0.00  0.00    -0.270 OA
ATOM     31  H   UNL     1       5.272 -15.663   0.359  0.00  0.00    +0.155 HD
BRANCH  14  15
ATOM     15  C   UNL     1       7.397 -16.543  -0.843  0.00  0.00    +0.037 A 
ATOM     16  C   UNL     1       8.671 -16.894  -1.476  0.00  0.00    +0.013 A 
ATOM     17  C   UNL     1       8.809 -18.145  -2.178  0.00  0.00    +0.005 A 
ATOM     18  C   UNL     1       7.670 -19.057  -2.248  0.00  0.00    -0.033 A 
ATOM     28  C   UNL     1       6.420 -18.687  -1.606  0.00  0.00    +0.005 A 
ATOM     29  C   UNL     1       6.280 -17.460  -0.918  0.00  0.00    +0.013 A 
BRANCH  18  19
ATOM     19  C   UNL     1       7.721 -20.404  -2.993  0.00  0.00    +0.119 C 
BRANCH  19  20
ATOM     20  N   UNL     1       9.011 -21.157  -2.957  0.00  0.00    -0.302 NA
ATOM     21  C   UNL     1       9.050 -22.279  -3.997  0.00  0.00    +0.066 C 
ATOM     22  C   UNL     1      10.414 -23.042  -3.961  0.00  0.00    -0.064 C 
ATOM     23  N   UNL     1      10.647 -23.598  -2.555  0.00  0.00    +0.379 N 
ATOM     24  C   UNL     1      11.901 -24.365  -2.532  0.00  0.00    -0.096 C 
ATOM     25  H   UNL     1       9.814 -24.304  -2.329  0.00  0.00    -0.082 HD
ATOM     26  C   UNL     1      10.607 -22.489  -1.514  0.00  0.00    -0.064 C 
ATOM     27  C   UNL     1       9.258 -21.718  -1.578  0.00  0.00    +0.066 C 
ENDBRANCH  19  20
ENDBRANCH  18  19
ENDBRANCH  14  15
ENDBRANCH  12  13
TORSDOF 6
ENDMDL
