MODEL 1
REMARK VINA RESULT:      -9.4      0.000      0.000
REMARK  Name = C:\Users\Docking\Desktop\test protocol\1iep_ligandH.pdb
REMARK  8 active torsions:
REMARK  status: ('A' for Active; 'I' for Inactive)
REMARK    1  A    between atoms: _5  and  _11
REMARK    2  A    between atoms: _19  and  _21
REMARK    3  A    between atoms: _22  and  _66
REMARK    4  A    between atoms: _27  and  _30
REMARK    5  A    between atoms: _32  and  _33
REMARK    6  A    between atoms: _38  and  _43
REMARK    7  A    between atoms: _43  and  _46
REMARK    8  A    between atoms: _53  and  _55
REMARK                            x       y       z     vdW  Elec       q    Type
REMARK                         _______ _______ _______ _____ _____    ______ ____
ROOT
ATOM     10  C   UNL     1     -38.568  25.797 -41.811  0.00  0.00    +0.038 A 
ATOM     11  C   UNL     1     -39.942  25.544 -41.563  0.00  0.00    +0.047 A 
ATOM     12  C   UNL     1     -40.618  26.126 -40.414  0.00  0.00    +0.035 A 
ATOM     32  C   UNL     1     -39.866  26.964 -39.540  0.00  0.00    +0.024 A 
ATOM     33  C   UNL     1     -38.469  27.231 -39.777  0.00  0.00    +0.007 A 
ATOM     34  C   UNL     1     -37.796  26.658 -40.907  0.00  0.00    -0.029 A 
ATOM     35  C   UNL     1     -36.295  26.973 -41.108  0.00  0.00    +0.045 C 
ENDROOT
BRANCH  10   9
ATOM      4  C   UNL     1     -37.010  25.957 -46.348  0.00  0.00    +0.077 A 
ATOM      5  C   UNL     1     -37.451  27.312 -46.514  0.00  0.00    +0.048 A 
ATOM      6  C   UNL     1     -38.081  27.929 -45.410  0.00  0.00    +0.116 A 
ATOM      7  N   UNL     1     -38.251  27.234 -44.233  0.00  0.00    -0.223 NA
ATOM      8  C   UNL     1     -37.816  25.928 -44.106  0.00  0.00    +0.220 A 
ATOM      9  N   UNL     1     -37.969  25.212 -42.929  0.00  0.00    -0.283 N 
ATOM     36  H   UNL     1     -37.641  24.248 -42.878  0.00  0.00    +0.155 HD
ATOM     37  N   UNL     1     -37.213  25.315 -45.147  0.00  0.00    -0.214 NA
BRANCH   4   3
ATOM      1  C   UNL     1     -34.263  24.314 -48.596  0.00  0.00    +0.020 A 
ATOM      2  C   UNL     1     -34.875  25.088 -47.541  0.00  0.00    +0.013 A 
ATOM      3  C   UNL     1     -36.325  25.170 -47.422  0.00  0.00    +0.019 A 
ATOM     38  C   UNL     1     -37.134  24.451 -48.394  0.00  0.00    +0.120 A 
ATOM     39  N   UNL     1     -36.517  23.714 -49.400  0.00  0.00    -0.263 NA
ATOM     40  C   UNL     1     -35.123  23.629 -49.526  0.00  0.00    +0.111 A 
ENDBRANCH   4   3
ENDBRANCH  10   9
BRANCH  12  13
ATOM     13  N   UNL     1     -42.008  25.899 -40.106  0.00  0.00    -0.281 N 
ATOM     14  C   UNL     1     -43.094  26.695 -40.431  0.00  0.00    +0.248 C 
ATOM     30  O   UNL     1     -43.010  27.839 -40.854  0.00  0.00    -0.270 OA
ATOM     31  H   UNL     1     -42.217  25.047 -39.586  0.00  0.00    +0.155 HD
BRANCH  14  15
ATOM     15  C   UNL     1     -44.473  26.147 -40.247  0.00  0.00    +0.037 A 
ATOM     16  C   UNL     1     -45.559  26.982 -39.728  0.00  0.00    +0.013 A 
ATOM     17  C   UNL     1     -46.875  26.424 -39.544  0.00  0.00    +0.005 A 
ATOM     18  C   UNL     1     -47.112  25.022 -39.881  0.00  0.00    -0.033 A 
ATOM     28  C   UNL     1     -46.018  24.218 -40.399  0.00  0.00    +0.005 A 
ATOM     29  C   UNL     1     -44.726  24.762 -40.580  0.00  0.00    +0.013 A 
BRANCH  18  19
ATOM     19  C   UNL     1     -48.479  24.337 -39.697  0.00  0.00    +0.119 C 
BRANCH  19  20
ATOM     20  N   UNL     1     -48.652  23.467 -38.496  0.00  0.00    -0.302 NA
ATOM     21  C   UNL     1     -48.076  24.111 -37.232  0.00  0.00    +0.066 C 
ATOM     22  C   UNL     1     -48.285  23.196 -35.981  0.00  0.00    -0.064 C 
ATOM     23  N   UNL     1     -47.640  21.833 -36.236  0.00  0.00    +0.379 N 
ATOM     24  C   UNL     1     -47.784  20.991 -35.040  0.00  0.00    -0.096 C 
ATOM     25  H   UNL     1     -46.550  22.001 -36.403  0.00  0.00    -0.082 HD
ATOM     26  C   UNL     1     -48.205  21.187 -37.493  0.00  0.00    -0.064 C 
ATOM     27  C   UNL     1     -48.018  22.116 -38.724  0.00  0.00    +0.066 C 
ENDBRANCH  19  20
ENDBRANCH  18  19
ENDBRANCH  14  15
ENDBRANCH  12  13
TORSDOF 6
ENDMDL
MODEL 2
REMARK VINA RESULT:      -9.2     26.002     29.870
REMARK  Name = C:\Users\Docking\Desktop\test protocol\1iep_ligandH.pdb
REMARK  8 active torsions:
REMARK  status: ('A' for Active; 'I' for Inactive)
REMARK    1  A    between atoms: _5  and  _11
REMARK    2  A    between atoms: _19  and  _21
REMARK    3  A    between atoms: _22  and  _66
REMARK    4  A    between atoms: _27  and  _30
REMARK    5  A    between atoms: _32  and  _33
REMARK    6  A    between atoms: _38  and  _43
REMARK    7  A    between atoms: _43  and  _46
REMARK    8  A    between atoms: _53  and  _55
REMARK                            x       y       z     vdW  Elec       q    Type
REMARK                         _______ _______ _______ _____ _____    ______ ____
ROOT
ATOM     10  C   UNL     1     -26.201  48.282 -51.285  0.00  0.00    +0.038 A 
ATOM     11  C   UNL     1     -25.857  47.099 -51.986  0.00  0.00    +0.047 A 
ATOM     12  C   UNL     1     -24.486  46.613 -52.014  0.00  0.00    +0.035 A 
ATOM     32  C   UNL     1     -23.491  47.356 -51.313  0.00  0.00    +0.024 A 
ATOM     33  C   UNL     1     -23.824  48.561 -50.595  0.00  0.00    +0.007 A 
ATOM     34  C   UNL     1     -25.174  49.047 -50.567  0.00  0.00    -0.029 A 
ATOM     35  C   UNL     1     -25.472  50.348 -49.787  0.00  0.00    +0.045 C 
ENDROOT
BRANCH  10   9
ATOM      4  C   UNL     1     -29.736  51.119 -52.866  0.00  0.00    +0.077 A 
ATOM      5  C   UNL     1     -28.849  51.841 -53.732  0.00  0.00    +0.048 A 
ATOM      6  C   UNL     1     -27.489  51.456 -53.736  0.00  0.00    +0.116 A 
ATOM      7  N   UNL     1     -27.060  50.424 -52.930  0.00  0.00    -0.223 NA
ATOM      8  C   UNL     1     -27.941  49.749 -52.105  0.00  0.00    +0.220 A 
ATOM      9  N   UNL     1     -27.533  48.703 -51.292  0.00  0.00    -0.283 N 
ATOM     36  H   UNL     1     -28.213  48.236 -50.692  0.00  0.00    +0.155 HD
ATOM     37  N   UNL     1     -29.244  50.099 -52.082  0.00  0.00    -0.214 NA
BRANCH   4   3
ATOM      1  C   UNL     1     -33.446  51.995 -53.740  0.00  0.00    +0.020 A 
ATOM      2  C   UNL     1     -32.036  51.726 -53.904  0.00  0.00    +0.013 A 
ATOM      3  C   UNL     1     -31.201  51.406 -52.753  0.00  0.00    +0.019 A 
ATOM     38  C   UNL     1     -31.828  51.364 -51.441  0.00  0.00    +0.120 A 
ATOM     39  N   UNL     1     -33.188  51.628 -51.314  0.00  0.00    -0.263 NA
ATOM     40  C   UNL     1     -34.002  51.940 -52.413  0.00  0.00    +0.111 A 
ENDBRANCH   4   3
ENDBRANCH  10   9
BRANCH  12  13
ATOM     13  N   UNL     1     -24.075  45.423 -52.716  0.00  0.00    -0.281 N 
ATOM     14  C   UNL     1     -24.539  44.129 -52.544  0.00  0.00    +0.248 C 
ATOM     30  O   UNL     1     -25.231  43.762 -51.605  0.00  0.00    -0.270 OA
ATOM     31  H   UNL     1     -23.354  45.549 -53.426  0.00  0.00    +0.155 HD
BRANCH  14  15
ATOM     15  C   UNL     1     -24.170  43.089 -53.552  0.00  0.00    +0.037 A 
ATOM     16  C   UNL     1     -22.966  43.223 -54.376  0.00  0.00    +0.013 A 
ATOM     17  C   UNL     1     -22.642  42.214 -55.353  0.00  0.00    +0.005 A 
ATOM     18  C   UNL     1     -23.525  41.059 -55.509  0.00  0.00    -0.033 A 
ATOM     28  C   UNL     1     -24.709  40.949 -54.675  0.00  0.00    +0.005 A 
ATOM     29  C   UNL     1     -25.030  41.937 -53.717  0.00  0.00    +0.013 A 
BRANCH  18  19
ATOM     19  C   UNL     1     -23.268  39.945 -56.541  0.00  0.00    +0.119 C 
BRANCH  19  20
ATOM     20  N   UNL     1     -24.462  39.332 -57.196  0.00  0.00    -0.302 NA
ATOM     21  C   UNL     1     -24.797  37.958 -56.610  0.00  0.00    +0.066 C 
ATOM     22  C   UNL     1     -26.062  37.341 -57.291  0.00  0.00    -0.064 C 
ATOM     23  N   UNL     1     -25.829  37.244 -58.800  0.00  0.00    +0.379 N 
ATOM     24  C   UNL     1     -26.994  36.611 -59.436  0.00  0.00    -0.096 C 
ATOM     25  H   UNL     1     -24.950  36.578 -58.964  0.00  0.00    -0.082 HD
ATOM     26  C   UNL     1     -25.493  38.606 -59.391  0.00  0.00    -0.064 C 
ATOM     27  C   UNL     1     -24.252  39.223 -58.687  0.00  0.00    +0.066 C 
ENDBRANCH  19  20
ENDBRANCH  18  19
ENDBRANCH  14  15
ENDBRANCH  12  13
TORSDOF 6
ENDMDL
MODEL 3
REMARK VINA RESULT:      -8.7      2.581      3.862
REMARK  Name = C:\Users\Docking\Desktop\test protocol\1iep_ligandH.pdb
REMARK  8 active torsions:
REMARK  status: ('A' for Active; 'I' for Inactive)
REMARK    1  A    between atoms: _5  and  _11
REMARK    2  A    between atoms: _19  and  _21
REMARK    3  A    between atoms: _22  and  _66
REMARK    4  A    between atoms: _27  and  _30
REMARK    5  A    between atoms: _32  and  _33
REMARK    6  A    between atoms: _38  and  _43
REMARK    7  A    between atoms: _43  and  _46
REMARK    8  A    between atoms: _53  and  _55
REMARK                            x       y       z     vdW  Elec       q    Type
REMARK                         _______ _______ _______ _____ _____    ______ ____
ROOT
ATOM     10  C   UNL     1     -39.458  27.405 -41.799  0.00  0.00    +0.038 A 
ATOM     11  C   UNL     1     -40.809  26.985 -41.895  0.00  0.00    +0.047 A 
ATOM     12  C   UNL     1     -41.642  26.850 -40.710  0.00  0.00    +0.035 A 
ATOM     32  C   UNL     1     -41.066  27.154 -39.442  0.00  0.00    +0.024 A 
ATOM     33  C   UNL     1     -39.694  27.580 -39.325  0.00  0.00    +0.007 A 
ATOM     34  C   UNL     1     -38.867  27.713 -40.491  0.00  0.00    -0.029 A 
ATOM     35  C   UNL     1     -37.401  28.168 -40.306  0.00  0.00    +0.045 C 
ENDROOT
BRANCH  10   9
ATOM      4  C   UNL     1     -36.709  25.532 -45.259  0.00  0.00    +0.077 A 
ATOM      5  C   UNL     1     -36.756  24.225 -44.670  0.00  0.00    +0.048 A 
ATOM      6  C   UNL     1     -37.492  24.078 -43.474  0.00  0.00    +0.116 A 
ATOM      7  N   UNL     1     -38.130  25.164 -42.916  0.00  0.00    -0.223 NA
ATOM      8  C   UNL     1     -38.064  26.412 -43.508  0.00  0.00    +0.220 A 
ATOM      9  N   UNL     1     -38.704  27.517 -42.969  0.00  0.00    -0.283 N 
ATOM     36  H   UNL     1     -38.625  28.422 -43.433  0.00  0.00    +0.155 HD
ATOM     37  N   UNL     1     -37.366  26.579 -44.651  0.00  0.00    -0.214 NA
BRANCH   4   3
ATOM      1  C   UNL     1     -34.441  25.231 -48.432  0.00  0.00    +0.020 A 
ATOM      2  C   UNL     1     -35.129  24.878 -47.212  0.00  0.00    +0.013 A 
ATOM      3  C   UNL     1     -35.974  25.846 -46.525  0.00  0.00    +0.019 A 
ATOM     38  C   UNL     1     -36.105  27.174 -47.105  0.00  0.00    +0.120 A 
ATOM     39  N   UNL     1     -35.430  27.487 -48.281  0.00  0.00    -0.263 NA
ATOM     40  C   UNL     1     -34.612  26.564 -48.949  0.00  0.00    +0.111 A 
ENDBRANCH   4   3
ENDBRANCH  10   9
BRANCH  12  13
ATOM     13  N   UNL     1     -43.018  26.421 -40.745  0.00  0.00    -0.281 N 
ATOM     14  C   UNL     1     -43.558  25.250 -40.240  0.00  0.00    +0.248 C 
ATOM     30  O   UNL     1     -42.900  24.290 -39.867  0.00  0.00    -0.270 OA
ATOM     31  H   UNL     1     -43.674  27.058 -41.198  0.00  0.00    +0.155 HD
BRANCH  14  15
ATOM     15  C   UNL     1     -45.044  25.120 -40.149  0.00  0.00    +0.037 A 
ATOM     16  C   UNL     1     -45.791  24.267 -41.077  0.00  0.00    +0.013 A 
ATOM     17  C   UNL     1     -47.226  24.173 -40.978  0.00  0.00    +0.005 A 
ATOM     18  C   UNL     1     -47.924  24.935 -39.945  0.00  0.00    -0.033 A 
ATOM     28  C   UNL     1     -47.158  25.769 -39.034  0.00  0.00    +0.005 A 
ATOM     29  C   UNL     1     -45.751  25.864 -39.129  0.00  0.00    +0.013 A 
BRANCH  18  19
ATOM     19  C   UNL     1     -49.455  24.911 -39.779  0.00  0.00    +0.119 C 
BRANCH  19  20
ATOM     20  N   UNL     1     -50.249  25.848 -40.628  0.00  0.00    -0.302 NA
ATOM     21  C   UNL     1     -51.100  26.804 -39.788  0.00  0.00    +0.066 C 
ATOM     22  C   UNL     1     -51.907  27.792 -40.692  0.00  0.00    -0.064 C 
ATOM     23  N   UNL     1     -52.783  26.994 -41.660  0.00  0.00    +0.379 N 
ATOM     24  C   UNL     1     -53.586  27.920 -42.472  0.00  0.00    -0.096 C 
ATOM     25  H   UNL     1     -53.487  26.381 -41.050  0.00  0.00    -0.082 HD
ATOM     26  C   UNL     1     -51.944  26.039 -42.497  0.00  0.00    -0.064 C 
ATOM     27  C   UNL     1     -51.124  25.081 -41.589  0.00  0.00    +0.066 C 
ENDBRANCH  19  20
ENDBRANCH  18  19
ENDBRANCH  14  15
ENDBRANCH  12  13
TORSDOF 6
ENDMDL
MODEL 4
REMARK VINA RESULT:      -8.5      2.425     11.932
REMARK  Name = C:\Users\Docking\Desktop\test protocol\1iep_ligandH.pdb
REMARK  8 active torsions:
REMARK  status: ('A' for Active; 'I' for Inactive)
REMARK    1  A    between atoms: _5  and  _11
REMARK    2  A    between atoms: _19  and  _21
REMARK    3  A    between atoms: _22  and  _66
REMARK    4  A    between atoms: _27  and  _30
REMARK    5  A    between atoms: _32  and  _33
REMARK    6  A    between atoms: _38  and  _43
REMARK    7  A    between atoms: _43  and  _46
REMARK    8  A    between atoms: _53  and  _55
REMARK                            x       y       z     vdW  Elec       q    Type
REMARK                         _______ _______ _______ _____ _____    ______ ____
ROOT
ATOM     10  C   UNL     1     -41.889  28.403 -41.279  0.00  0.00    +0.038 A 
ATOM     11  C   UNL     1     -40.927  27.803 -42.132  0.00  0.00    +0.047 A 
ATOM     12  C   UNL     1     -39.975  28.611 -42.878  0.00  0.00    +0.035 A 
ATOM     32  C   UNL     1     -40.029  30.027 -42.731  0.00  0.00    +0.024 A 
ATOM     33  C   UNL     1     -41.001  30.654 -41.869  0.00  0.00    +0.007 A 
ATOM     34  C   UNL     1     -41.944  29.863 -41.133  0.00  0.00    -0.029 A 
ATOM     35  C   UNL     1     -42.968  30.589 -40.229  0.00  0.00    +0.045 C 
ENDROOT
BRANCH  10   9
ATOM      4  C   UNL     1     -45.960  25.880 -40.976  0.00  0.00    +0.077 A 
ATOM      5  C   UNL     1     -46.361  26.255 -42.301  0.00  0.00    +0.048 A 
ATOM      6  C   UNL     1     -45.495  27.105 -43.025  0.00  0.00    +0.116 A 
ATOM      7  N   UNL     1     -44.317  27.540 -42.456  0.00  0.00    -0.223 NA
ATOM      8  C   UNL     1     -43.961  27.160 -41.175  0.00  0.00    +0.220 A 
ATOM      9  N   UNL     1     -42.779  27.580 -40.586  0.00  0.00    -0.283 N 
ATOM     36  H   UNL     1     -42.556  27.283 -39.636  0.00  0.00    +0.155 HD
ATOM     37  N   UNL     1     -44.772  26.351 -40.463  0.00  0.00    -0.214 NA
BRANCH   4   3
ATOM      1  C   UNL     1     -48.133  22.909 -39.651  0.00  0.00    +0.020 A 
ATOM      2  C   UNL     1     -47.363  23.737 -40.550  0.00  0.00    +0.013 A 
ATOM      3  C   UNL     1     -46.767  24.985 -40.088  0.00  0.00    +0.019 A 
ATOM     38  C   UNL     1     -46.970  25.368 -38.699  0.00  0.00    +0.120 A 
ATOM     39  N   UNL     1     -47.718  24.551 -37.856  0.00  0.00    -0.263 NA
ATOM     40  C   UNL     1     -48.297  23.349 -38.290  0.00  0.00    +0.111 A 
ENDBRANCH   4   3
ENDBRANCH  10   9
BRANCH  12  13
ATOM     13  N   UNL     1     -38.981  28.058 -43.765  0.00  0.00    -0.281 N 
ATOM     14  C   UNL     1     -37.894  27.265 -43.437  0.00  0.00    +0.248 C 
ATOM     30  O   UNL     1     -37.488  27.085 -42.298  0.00  0.00    -0.270 OA
ATOM     31  H   UNL     1     -39.093  28.278 -44.755  0.00  0.00    +0.155 HD
BRANCH  14  15
ATOM     15  C   UNL     1     -37.140  26.584 -44.533  0.00  0.00    +0.037 A 
ATOM     16  C   UNL     1     -36.665  25.206 -44.386  0.00  0.00    +0.013 A 
ATOM     17  C   UNL     1     -35.925  24.578 -45.453  0.00  0.00    +0.005 A 
ATOM     18  C   UNL     1     -35.658  25.329 -46.677  0.00  0.00    -0.033 A 
ATOM     28  C   UNL     1     -36.146  26.693 -46.798  0.00  0.00    +0.005 A 
ATOM     29  C   UNL     1     -36.870  27.311 -45.755  0.00  0.00    +0.013 A 
BRANCH  18  19
ATOM     19  C   UNL     1     -34.858  24.746 -47.858  0.00  0.00    +0.119 C 
BRANCH  19  20
ATOM     20  N   UNL     1     -35.635  24.277 -49.044  0.00  0.00    -0.302 NA
ATOM     21  C   UNL     1     -37.122  24.103 -48.725  0.00  0.00    +0.066 C 
ATOM     22  C   UNL     1     -37.923  23.633 -49.982  0.00  0.00    -0.064 C 
ATOM     23  N   UNL     1     -37.325  22.327 -50.506  0.00  0.00    +0.379 N 
ATOM     24  C   UNL     1     -38.112  21.852 -51.654  0.00  0.00    -0.096 C 
ATOM     25  H   UNL     1     -37.414  21.565 -49.697  0.00  0.00    -0.082 HD
ATOM     26  C   UNL     1     -35.845  22.491 -50.824  0.00  0.00    -0.064 C 
ATOM     27  C   UNL     1     -35.064  22.986 -49.575  0.00  0.00    +0.066 C 
ENDBRANCH  19  20
ENDBRANCH  18  19
ENDBRANCH  14  15
ENDBRANCH  12  13
TORSDOF 6
ENDMDL
MODEL 5
REMARK VINA RESULT:      -8.4      5.530     11.403
REMARK  Name = C:\Users\Docking\Desktop\test protocol\1iep_ligandH.pdb
REMARK  8 active torsions:
REMARK  status: ('A' for Active; 'I' for Inactive)
REMARK    1  A    between atoms: _5  and  _11
REMARK    2  A    between atoms: _19  and  _21
REMARK    3  A    between atoms: _22  and  _66
REMARK    4  A    between atoms: _27  and  _30
REMARK    5  A    between atoms: _32  and  _33
REMARK    6  A    between atoms: _38  and  _43
REMARK    7  A    between atoms: _43  and  _46
REMARK    8  A    between atoms: _53  and  _55
REMARK                            x       y       z     vdW  Elec       q    Type
REMARK                         _______ _______ _______ _____ _____    ______ ____
ROOT
ATOM     10  C   UNL     1     -48.767  23.489 -43.014  0.00  0.00    +0.038 A 
ATOM     11  C   UNL     1     -47.423  23.881 -42.788  0.00  0.00    +0.047 A 
ATOM     12  C   UNL     1     -47.106  25.159 -42.169  0.00  0.00    +0.035 A 
ATOM     32  C   UNL     1     -48.183  26.012 -41.791  0.00  0.00    +0.024 A 
ATOM     33  C   UNL     1     -49.555  25.630 -42.015  0.00  0.00    +0.007 A 
ATOM     34  C   UNL     1     -49.874  24.372 -42.627  0.00  0.00    -0.029 A 
ATOM     35  C   UNL     1     -51.363  24.017 -42.849  0.00  0.00    +0.045 C 
ENDROOT
BRANCH  10   9
ATOM      4  C   UNL     1     -49.269  20.675 -46.870  0.00  0.00    +0.077 A 
ATOM      5  C   UNL     1     -49.046  21.769 -47.771  0.00  0.00    +0.048 A 
ATOM      6  C   UNL     1     -48.813  23.041 -47.202  0.00  0.00    +0.116 A 
ATOM      7  N   UNL     1     -48.805  23.196 -45.832  0.00  0.00    -0.223 NA
ATOM      8  C   UNL     1     -49.026  22.120 -44.992  0.00  0.00    +0.220 A 
ATOM      9  N   UNL     1     -49.015  22.251 -43.612  0.00  0.00    -0.283 N 
ATOM     36  H   UNL     1     -49.189  21.435 -43.027  0.00  0.00    +0.155 HD
ATOM     37  N   UNL     1     -49.252  20.895 -45.511  0.00  0.00    -0.214 NA
BRANCH   4   3
ATOM      1  C   UNL     1     -48.951  17.209 -48.656  0.00  0.00    +0.020 A 
ATOM      2  C   UNL     1     -48.658  18.566 -48.255  0.00  0.00    +0.013 A 
ATOM      3  C   UNL     1     -49.525  19.270 -47.319  0.00  0.00    +0.019 A 
ATOM     38  C   UNL     1     -50.690  18.566 -46.802  0.00  0.00    +0.120 A 
ATOM     39  N   UNL     1     -50.947  17.260 -47.207  0.00  0.00    -0.263 NA
ATOM     40  C   UNL     1     -50.120  16.574 -48.109  0.00  0.00    +0.111 A 
ENDBRANCH   4   3
ENDBRANCH  10   9
BRANCH  12  13
ATOM     13  N   UNL     1     -45.760  25.613 -41.921  0.00  0.00    -0.281 N 
ATOM     14  C   UNL     1     -45.043  25.547 -40.738  0.00  0.00    +0.248 C 
ATOM     30  O   UNL     1     -45.529  25.278 -39.650  0.00  0.00    -0.270 OA
ATOM     31  H   UNL     1     -45.278  26.035 -42.715  0.00  0.00    +0.155 HD
BRANCH  14  15
ATOM     15  C   UNL     1     -43.577  25.835 -40.765  0.00  0.00    +0.037 A 
ATOM     16  C   UNL     1     -43.028  26.906 -41.601  0.00  0.00    +0.013 A 
ATOM     17  C   UNL     1     -41.608  27.152 -41.622  0.00  0.00    +0.005 A 
ATOM     18  C   UNL     1     -40.726  26.325 -40.801  0.00  0.00    -0.033 A 
ATOM     28  C   UNL     1     -41.298  25.273 -39.977  0.00  0.00    +0.005 A 
ATOM     29  C   UNL     1     -42.689  25.029 -39.955  0.00  0.00    +0.013 A 
BRANCH  18  19
ATOM     19  C   UNL     1     -39.196  26.502 -40.778  0.00  0.00    +0.119 C 
BRANCH  19  20
ATOM     20  N   UNL     1     -38.453  26.196 -42.036  0.00  0.00    -0.302 NA
ATOM     21  C   UNL     1     -38.276  24.689 -42.246  0.00  0.00    +0.066 C 
ATOM     22  C   UNL     1     -37.516  24.386 -43.578  0.00  0.00    -0.064 C 
ATOM     23  N   UNL     1     -36.159  25.093 -43.561  0.00  0.00    +0.379 N 
ATOM     24  C   UNL     1     -35.418  24.763 -44.786  0.00  0.00    -0.096 C 
ATOM     25  H   UNL     1     -35.580  24.693 -42.696  0.00  0.00    -0.082 HD
ATOM     26  C   UNL     1     -36.326  26.592 -43.349  0.00  0.00    -0.064 C 
ATOM     27  C   UNL     1     -37.108  26.881 -42.038  0.00  0.00    +0.066 C 
ENDBRANCH  19  20
ENDBRANCH  18  19
ENDBRANCH  14  15
ENDBRANCH  12  13
TORSDOF 6
ENDMDL
