MODEL 1
REMARK VINA RESULT:      -9.1      0.000      0.000
REMARK  Name = C:\Users\Docking\Desktop\test protocol\1iep_ligandH.pdb
REMARK  8 active torsions:
REMARK  status: ('A' for Active; 'I' for Inactive)
REMARK    1  A    between atoms: _5  and  _11
REMARK    2  A    between atoms: _19  and  _21
REMARK    3  A    between atoms: _22  and  _66
REMARK    4  A    between atoms: _27  and  _30
REMARK    5  A    between atoms: _32  and  _33
REMARK    6  A    between atoms: _38  and  _43
REMARK    7  A    between atoms: _43  and  _46
REMARK    8  A    between atoms: _53  and  _55
REMARK                            x       y       z     vdW  Elec       q    Type
REMARK                         _______ _______ _______ _____ _____    ______ ____
ROOT
ATOM     10  C   UNL     1       7.831   8.118  -1.207  0.00  0.00    +0.038 A 
ATOM     11  C   UNL     1       7.799   6.701  -1.234  0.00  0.00    +0.047 A 
ATOM     12  C   UNL     1       7.015   5.948  -0.268  0.00  0.00    +0.035 A 
ATOM     32  C   UNL     1       6.273   6.671   0.711  0.00  0.00    +0.024 A 
ATOM     33  C   UNL     1       6.295   8.112   0.753  0.00  0.00    +0.007 A 
ATOM     34  C   UNL     1       7.069   8.860  -0.196  0.00  0.00    -0.029 A 
ATOM     35  C   UNL     1       7.061  10.404  -0.099  0.00  0.00    +0.045 C 
ENDROOT
BRANCH  10   9
ATOM      4  C   UNL     1       8.337  10.381  -5.410  0.00  0.00    +0.077 A 
ATOM      5  C   UNL     1       6.957  10.184  -5.749  0.00  0.00    +0.048 A 
ATOM      6  C   UNL     1       6.153   9.489  -4.819  0.00  0.00    +0.116 A 
ATOM      7  N   UNL     1       6.698   9.031  -3.639  0.00  0.00    -0.223 NA
ATOM      8  C   UNL     1       8.033   9.236  -3.343  0.00  0.00    +0.220 A 
ATOM      9  N   UNL     1       8.601   8.791  -2.160  0.00  0.00    -0.283 N 
ATOM     36  H   UNL     1       9.591   8.956  -1.982  0.00  0.00    +0.155 HD
ATOM     37  N   UNL     1       8.823   9.896  -4.216  0.00  0.00    -0.214 NA
BRANCH   4   3
ATOM      1  C   UNL     1      10.204  11.786  -8.547  0.00  0.00    +0.020 A 
ATOM      2  C   UNL     1       9.237  11.074  -7.744  0.00  0.00    +0.013 A 
ATOM      3  C   UNL     1       9.313  11.100  -6.289  0.00  0.00    +0.019 A 
ATOM     38  C   UNL     1      10.389  11.861  -5.672  0.00  0.00    +0.120 A 
ATOM     39  N   UNL     1      11.307  12.535  -6.471  0.00  0.00    -0.263 NA
ATOM     40  C   UNL     1      11.245  12.517  -7.872  0.00  0.00    +0.111 A 
ENDBRANCH   4   3
ENDBRANCH  10   9
BRANCH  12  13
ATOM     13  N   UNL     1       6.950   4.507  -0.241  0.00  0.00    -0.281 N 
ATOM     14  C   UNL     1       7.924   3.604  -0.632  0.00  0.00    +0.248 C 
ATOM     30  O   UNL     1       8.925   3.898  -1.268  0.00  0.00    -0.270 OA
ATOM     31  H   UNL     1       6.080   4.105   0.109  0.00  0.00    +0.155 HD
BRANCH  14  15
ATOM     15  C   UNL     1       7.755   2.161  -0.278  0.00  0.00    +0.037 A 
ATOM     16  C   UNL     1       6.425   1.568  -0.123  0.00  0.00    +0.013 A 
ATOM     17  C   UNL     1       6.290   0.178   0.236  0.00  0.00    +0.005 A 
ATOM     18  C   UNL     1       7.491  -0.628   0.441  0.00  0.00    -0.033 A 
ATOM     28  C   UNL     1       8.798  -0.015   0.276  0.00  0.00    +0.005 A 
ATOM     29  C   UNL     1       8.934   1.347  -0.074  0.00  0.00    +0.013 A 
BRANCH  18  19
ATOM     19  C   UNL     1       7.442  -2.113   0.846  0.00  0.00    +0.119 C 
BRANCH  19  20
ATOM     20  N   UNL     1       7.858  -2.456   2.239  0.00  0.00    -0.302 NA
ATOM     21  C   UNL     1       8.822  -3.646   2.274  0.00  0.00    +0.066 C 
ATOM     22  C   UNL     1       9.266  -3.976   3.736  0.00  0.00    -0.064 C 
ATOM     23  N   UNL     1       8.028  -4.257   4.590  0.00  0.00    +0.379 N 
ATOM     24  C   UNL     1       8.444  -4.625   5.951  0.00  0.00    -0.096 C 
ATOM     25  H   UNL     1       7.504  -5.136   4.147  0.00  0.00    -0.082 HD
ATOM     26  C   UNL     1       7.063  -3.080   4.559  0.00  0.00    -0.064 C 
ATOM     27  C   UNL     1       6.652  -2.741   3.099  0.00  0.00    +0.066 C 
ENDBRANCH  19  20
ENDBRANCH  18  19
ENDBRANCH  14  15
ENDBRANCH  12  13
TORSDOF 6
ENDMDL
MODEL 2
REMARK VINA RESULT:      -8.8      2.848      4.023
REMARK  Name = C:\Users\Docking\Desktop\test protocol\1iep_ligandH.pdb
REMARK  8 active torsions:
REMARK  status: ('A' for Active; 'I' for Inactive)
REMARK    1  A    between atoms: _5  and  _11
REMARK    2  A    between atoms: _19  and  _21
REMARK    3  A    between atoms: _22  and  _66
REMARK    4  A    between atoms: _27  and  _30
REMARK    5  A    between atoms: _32  and  _33
REMARK    6  A    between atoms: _38  and  _43
REMARK    7  A    between atoms: _43  and  _46
REMARK    8  A    between atoms: _53  and  _55
REMARK                            x       y       z     vdW  Elec       q    Type
REMARK                         _______ _______ _______ _____ _____    ______ ____
ROOT
ATOM     10  C   UNL     1       9.340   6.009  -2.116  0.00  0.00    +0.038 A 
ATOM     11  C   UNL     1       8.869   4.752  -1.657  0.00  0.00    +0.047 A 
ATOM     12  C   UNL     1       9.679   3.920  -0.781  0.00  0.00    +0.035 A 
ATOM     32  C   UNL     1      10.963   4.399  -0.390  0.00  0.00    +0.024 A 
ATOM     33  C   UNL     1      11.458   5.674  -0.849  0.00  0.00    +0.007 A 
ATOM     34  C   UNL     1      10.664   6.498  -1.715  0.00  0.00    -0.029 A 
ATOM     35  C   UNL     1      11.248   7.852  -2.181  0.00  0.00    +0.045 C 
ENDROOT
BRANCH  10   9
ATOM      4  C   UNL     1       6.067   9.438  -2.866  0.00  0.00    +0.077 A 
ATOM      5  C   UNL     1       5.960   9.725  -1.465  0.00  0.00    +0.048 A 
ATOM      6  C   UNL     1       6.760   8.963  -0.584  0.00  0.00    +0.116 A 
ATOM      7  N   UNL     1       7.600   7.989  -1.078  0.00  0.00    -0.223 NA
ATOM      8  C   UNL     1       7.677   7.736  -2.435  0.00  0.00    +0.220 A 
ATOM      9  N   UNL     1       8.521   6.767  -2.956  0.00  0.00    -0.283 N 
ATOM     36  H   UNL     1       8.543   6.606  -3.962  0.00  0.00    +0.155 HD
ATOM     37  N   UNL     1       6.923   8.449  -3.297  0.00  0.00    -0.214 NA
BRANCH   4   3
ATOM      1  C   UNL     1       4.752  10.699  -6.328  0.00  0.00    +0.020 A 
ATOM      2  C   UNL     1       5.531   9.977  -5.348  0.00  0.00    +0.013 A 
ATOM      3  C   UNL     1       5.289  10.160  -3.923  0.00  0.00    +0.019 A 
ATOM     38  C   UNL     1       4.243  11.087  -3.518  0.00  0.00    +0.120 A 
ATOM     39  N   UNL     1       3.509  11.769  -4.484  0.00  0.00    -0.263 NA
ATOM     40  C   UNL     1       3.734  11.602  -5.859  0.00  0.00    +0.111 A 
ENDBRANCH   4   3
ENDBRANCH  10   9
BRANCH  12  13
ATOM     13  N   UNL     1       9.257   2.631  -0.289  0.00  0.00    -0.281 N 
ATOM     14  C   UNL     1       9.743   1.384  -0.643  0.00  0.00    +0.248 C 
ATOM     30  O   UNL     1      10.472   1.173  -1.601  0.00  0.00    -0.270 OA
ATOM     31  H   UNL     1       8.509   2.641   0.405  0.00  0.00    +0.155 HD
BRANCH  14  15
ATOM     15  C   UNL     1       9.350   0.196   0.175  0.00  0.00    +0.037 A 
ATOM     16  C   UNL     1       8.115  -0.541  -0.099  0.00  0.00    +0.013 A 
ATOM     17  C   UNL     1       7.751  -1.672   0.717  0.00  0.00    +0.005 A 
ATOM     18  C   UNL     1       8.626  -2.074   1.815  0.00  0.00    -0.033 A 
ATOM     28  C   UNL     1       9.849  -1.328   2.062  0.00  0.00    +0.005 A 
ATOM     29  C   UNL     1      10.208  -0.218   1.265  0.00  0.00    +0.013 A 
BRANCH  18  19
ATOM     19  C   UNL     1       8.306  -3.255   2.750  0.00  0.00    +0.119 C 
BRANCH  19  20
ATOM     20  N   UNL     1       9.429  -3.803   3.568  0.00  0.00    -0.302 NA
ATOM     21  C   UNL     1      10.312  -4.762   2.764  0.00  0.00    +0.066 C 
ATOM     22  C   UNL     1      11.494  -5.308   3.629  0.00  0.00    -0.064 C 
ATOM     23  N   UNL     1      10.935  -6.001   4.873  0.00  0.00    +0.379 N 
ATOM     24  C   UNL     1      12.042  -6.566   5.659  0.00  0.00    -0.096 C 
ATOM     25  H   UNL     1      10.297  -6.848   4.530  0.00  0.00    -0.082 HD
ATOM     26  C   UNL     1      10.055  -5.055   5.677  0.00  0.00    -0.064 C 
ATOM     27  C   UNL     1       8.900  -4.495   4.800  0.00  0.00    +0.066 C 
ENDBRANCH  19  20
ENDBRANCH  18  19
ENDBRANCH  14  15
ENDBRANCH  12  13
TORSDOF 6
ENDMDL
MODEL 3
REMARK VINA RESULT:      -8.7      9.456     13.369
REMARK  Name = C:\Users\Docking\Desktop\test protocol\1iep_ligandH.pdb
REMARK  8 active torsions:
REMARK  status: ('A' for Active; 'I' for Inactive)
REMARK    1  A    between atoms: _5  and  _11
REMARK    2  A    between atoms: _19  and  _21
REMARK    3  A    between atoms: _22  and  _66
REMARK    4  A    between atoms: _27  and  _30
REMARK    5  A    between atoms: _32  and  _33
REMARK    6  A    between atoms: _38  and  _43
REMARK    7  A    between atoms: _43  and  _46
REMARK    8  A    between atoms: _53  and  _55
REMARK                            x       y       z     vdW  Elec       q    Type
REMARK                         _______ _______ _______ _____ _____    ______ ____
ROOT
ATOM     10  C   UNL     1       9.039  -3.873   3.534  0.00  0.00    +0.038 A 
ATOM     11  C   UNL     1       9.714  -4.442   2.423  0.00  0.00    +0.047 A 
ATOM     12  C   UNL     1      11.127  -4.780   2.493  0.00  0.00    +0.035 A 
ATOM     32  C   UNL     1      11.822  -4.526   3.711  0.00  0.00    +0.024 A 
ATOM     33  C   UNL     1      11.153  -3.948   4.849  0.00  0.00    +0.007 A 
ATOM     34  C   UNL     1       9.759  -3.611   4.785  0.00  0.00    -0.029 A 
ATOM     35  C   UNL     1       9.095  -2.986   6.034  0.00  0.00    +0.045 C 
ENDROOT
BRANCH  10   9
ATOM      4  C   UNL     1       5.398  -1.519   1.476  0.00  0.00    +0.077 A 
ATOM      5  C   UNL     1       6.278  -0.815   0.587  0.00  0.00    +0.048 A 
ATOM      6  C   UNL     1       7.661  -1.083   0.697  0.00  0.00    +0.116 A 
ATOM      7  N   UNL     1       8.119  -1.988   1.629  0.00  0.00    -0.223 NA
ATOM      8  C   UNL     1       7.244  -2.649   2.472  0.00  0.00    +0.220 A 
ATOM      9  N   UNL     1       7.682  -3.569   3.411  0.00  0.00    -0.283 N 
ATOM     36  H   UNL     1       7.005  -4.030   4.020  0.00  0.00    +0.155 HD
ATOM     37  N   UNL     1       5.918  -2.410   2.388  0.00  0.00    -0.214 NA
BRANCH   4   3
ATOM      1  C   UNL     1       1.679  -1.158   0.319  0.00  0.00    +0.020 A 
ATOM      2  C   UNL     1       3.113  -1.327   0.260  0.00  0.00    +0.013 A 
ATOM      3  C   UNL     1       3.911  -1.347   1.479  0.00  0.00    +0.019 A 
ATOM     38  C   UNL     1       3.222  -1.194   2.752  0.00  0.00    +0.120 A 
ATOM     39  N   UNL     1       1.840  -1.032   2.777  0.00  0.00    -0.263 NA
ATOM     40  C   UNL     1       1.062  -1.009   1.610  0.00  0.00    +0.111 A 
ENDBRANCH   4   3
ENDBRANCH  10   9
BRANCH  12  13
ATOM     13  N   UNL     1      11.867  -5.352   1.396  0.00  0.00    -0.281 N 
ATOM     14  C   UNL     1      12.403  -6.626   1.302  0.00  0.00    +0.248 C 
ATOM     30  O   UNL     1      12.512  -7.400   2.241  0.00  0.00    -0.270 OA
ATOM     31  H   UNL     1      12.013  -4.744   0.590  0.00  0.00    +0.155 HD
BRANCH  14  15
ATOM     15  C   UNL     1      12.903  -7.103  -0.023  0.00  0.00    +0.037 A 
ATOM     16  C   UNL     1      13.718  -8.315  -0.135  0.00  0.00    +0.013 A 
ATOM     17  C   UNL     1      14.202  -8.744  -1.424  0.00  0.00    +0.005 A 
ATOM     18  C   UNL     1      13.871  -7.960  -2.611  0.00  0.00    -0.033 A 
ATOM     28  C   UNL     1      13.057  -6.764  -2.471  0.00  0.00    +0.005 A 
ATOM     29  C   UNL     1      12.581  -6.340  -1.210  0.00  0.00    +0.013 A 
BRANCH  18  19
ATOM     19  C   UNL     1      14.362  -8.331  -4.023  0.00  0.00    +0.119 C 
BRANCH  19  20
ATOM     20  N   UNL     1      13.356  -8.303  -5.126  0.00  0.00    -0.302 NA
ATOM     21  C   UNL     1      12.324  -9.425  -4.991  0.00  0.00    +0.066 C 
ATOM     22  C   UNL     1      11.266  -9.367  -6.141  0.00  0.00    -0.064 C 
ATOM     23  N   UNL     1      11.980  -9.447  -7.492  0.00  0.00    +0.379 N 
ATOM     24  C   UNL     1      10.984  -9.450  -8.573  0.00  0.00    -0.096 C 
ATOM     25  H   UNL     1      12.524 -10.419  -7.529  0.00  0.00    -0.082 HD
ATOM     26  C   UNL     1      13.010  -8.335  -7.633  0.00  0.00    -0.064 C 
ATOM     27  C   UNL     1      14.039  -8.385  -6.469  0.00  0.00    +0.066 C 
ENDBRANCH  19  20
ENDBRANCH  18  19
ENDBRANCH  14  15
ENDBRANCH  12  13
TORSDOF 6
ENDMDL
MODEL 4
REMARK VINA RESULT:      -8.5      3.949     13.233
REMARK  Name = C:\Users\Docking\Desktop\test protocol\1iep_ligandH.pdb
REMARK  8 active torsions:
REMARK  status: ('A' for Active; 'I' for Inactive)
REMARK    1  A    between atoms: _5  and  _11
REMARK    2  A    between atoms: _19  and  _21
REMARK    3  A    between atoms: _22  and  _66
REMARK    4  A    between atoms: _27  and  _30
REMARK    5  A    between atoms: _32  and  _33
REMARK    6  A    between atoms: _38  and  _43
REMARK    7  A    between atoms: _43  and  _46
REMARK    8  A    between atoms: _53  and  _55
REMARK                            x       y       z     vdW  Elec       q    Type
REMARK                         _______ _______ _______ _____ _____    ______ ____
ROOT
ATOM     10  C   UNL     1       6.023   0.325  -0.152  0.00  0.00    +0.038 A 
ATOM     11  C   UNL     1       6.181   1.675  -0.556  0.00  0.00    +0.047 A 
ATOM     12  C   UNL     1       7.259   2.498  -0.030  0.00  0.00    +0.035 A 
ATOM     32  C   UNL     1       8.160   1.911   0.906  0.00  0.00    +0.024 A 
ATOM     33  C   UNL     1       8.015   0.541   1.328  0.00  0.00    +0.007 A 
ATOM     34  C   UNL     1       6.952  -0.275   0.814  0.00  0.00    -0.029 A 
ATOM     35  C   UNL     1       6.840  -1.736   1.307  0.00  0.00    +0.045 C 
ENDROOT
BRANCH  10   9
ATOM      4  C   UNL     1       1.596  -1.515   0.067  0.00  0.00    +0.077 A 
ATOM      5  C   UNL     1       1.370  -0.971   1.375  0.00  0.00    +0.048 A 
ATOM      6  C   UNL     1       2.422  -0.230   1.960  0.00  0.00    +0.116 A 
ATOM      7  N   UNL     1       3.606  -0.052   1.277  0.00  0.00    -0.223 NA
ATOM      8  C   UNL     1       3.791  -0.592   0.018  0.00  0.00    +0.220 A 
ATOM      9  N   UNL     1       4.971  -0.419  -0.690  0.00  0.00    -0.283 N 
ATOM     36  H   UNL     1       5.071  -0.840  -1.614  0.00  0.00    +0.155 HD
ATOM     37  N   UNL     1       2.803  -1.305  -0.561  0.00  0.00    -0.214 NA
BRANCH   4   3
ATOM      1  C   UNL     1      -1.175  -4.125  -0.835  0.00  0.00    +0.020 A 
ATOM      2  C   UNL     1      -0.205  -3.380  -0.065  0.00  0.00    +0.013 A 
ATOM      3  C   UNL     1       0.579  -2.318  -0.683  0.00  0.00    +0.019 A 
ATOM     38  C   UNL     1       0.357  -2.034  -2.093  0.00  0.00    +0.120 A 
ATOM     39  N   UNL     1      -0.582  -2.770  -2.809  0.00  0.00    -0.263 NA
ATOM     40  C   UNL     1      -1.342  -3.794  -2.225  0.00  0.00    +0.111 A 
ENDBRANCH   4   3
ENDBRANCH  10   9
BRANCH  12  13
ATOM     13  N   UNL     1       7.463   3.877  -0.397  0.00  0.00    -0.281 N 
ATOM     14  C   UNL     1       8.534   4.425  -1.084  0.00  0.00    +0.248 C 
ATOM     30  O   UNL     1       9.586   3.844  -1.302  0.00  0.00    -0.270 OA
ATOM     31  H   UNL     1       6.730   4.528  -0.116  0.00  0.00    +0.155 HD
BRANCH  14  15
ATOM     15  C   UNL     1       8.425   5.828  -1.590  0.00  0.00    +0.037 A 
ATOM     16  C   UNL     1       7.539   6.801  -0.946  0.00  0.00    +0.013 A 
ATOM     17  C   UNL     1       7.440   8.142  -1.465  0.00  0.00    +0.005 A 
ATOM     18  C   UNL     1       8.231   8.518  -2.634  0.00  0.00    -0.033 A 
ATOM     28  C   UNL     1       9.106   7.534  -3.249  0.00  0.00    +0.005 A 
ATOM     29  C   UNL     1       9.205   6.218  -2.745  0.00  0.00    +0.013 A 
BRANCH  18  19
ATOM     19  C   UNL     1       8.173   9.921  -3.267  0.00  0.00    +0.119 C 
BRANCH  19  20
ATOM     20  N   UNL     1       8.948  10.136  -4.525  0.00  0.00    -0.302 NA
ATOM     21  C   UNL     1      10.029  11.208  -4.358  0.00  0.00    +0.066 C 
ATOM     22  C   UNL     1      10.845  11.404  -5.677  0.00  0.00    -0.064 C 
ATOM     23  N   UNL     1       9.890  11.770  -6.815  0.00  0.00    +0.379 N 
ATOM     24  C   UNL     1      10.660  12.012  -8.043  0.00  0.00    -0.096 C 
ATOM     25  H   UNL     1       9.385  12.725  -6.538  0.00  0.00    -0.082 HD
ATOM     26  C   UNL     1       8.810  10.711  -6.986  0.00  0.00    -0.064 C 
ATOM     27  C   UNL     1       8.025  10.503  -5.661  0.00  0.00    +0.066 C 
ENDBRANCH  19  20
ENDBRANCH  18  19
ENDBRANCH  14  15
ENDBRANCH  12  13
TORSDOF 6
ENDMDL
MODEL 5
REMARK VINA RESULT:      -8.4      2.685      4.076
REMARK  Name = C:\Users\Docking\Desktop\test protocol\1iep_ligandH.pdb
REMARK  8 active torsions:
REMARK  status: ('A' for Active; 'I' for Inactive)
REMARK    1  A    between atoms: _5  and  _11
REMARK    2  A    between atoms: _19  and  _21
REMARK    3  A    between atoms: _22  and  _66
REMARK    4  A    between atoms: _27  and  _30
REMARK    5  A    between atoms: _32  and  _33
REMARK    6  A    between atoms: _38  and  _43
REMARK    7  A    between atoms: _43  and  _46
REMARK    8  A    between atoms: _53  and  _55
REMARK                            x       y       z     vdW  Elec       q    Type
REMARK                         _______ _______ _______ _____ _____    ______ ____
ROOT
ATOM     10  C   UNL     1       8.529   8.695  -2.981  0.00  0.00    +0.038 A 
ATOM     11  C   UNL     1       8.133   7.429  -2.478  0.00  0.00    +0.047 A 
ATOM     12  C   UNL     1       8.990   6.262  -2.619  0.00  0.00    +0.035 A 
ATOM     32  C   UNL     1      10.244   6.420  -3.276  0.00  0.00    +0.024 A 
ATOM     33  C   UNL     1      10.662   7.698  -3.795  0.00  0.00    +0.007 A 
ATOM     34  C   UNL     1       9.821   8.853  -3.661  0.00  0.00    -0.029 A 
ATOM     35  C   UNL     1      10.317  10.198  -4.242  0.00  0.00    +0.045 C 
ENDROOT
BRANCH  10   9
ATOM      4  C   UNL     1       4.928  11.501  -4.462  0.00  0.00    +0.077 A 
ATOM      5  C   UNL     1       4.767  10.754  -5.676  0.00  0.00    +0.048 A 
ATOM      6  C   UNL     1       5.635   9.659  -5.885  0.00  0.00    +0.116 A 
ATOM      7  N   UNL     1       6.590   9.344  -4.942  0.00  0.00    -0.223 NA
ATOM      8  C   UNL     1       6.720  10.086  -3.783  0.00  0.00    +0.220 A 
ATOM      9  N   UNL     1       7.668   9.782  -2.818  0.00  0.00    -0.283 N 
ATOM     36  H   UNL     1       7.737  10.358  -1.980  0.00  0.00    +0.155 HD
ATOM     37  N   UNL     1       5.904  11.137  -3.561  0.00  0.00    -0.214 NA
BRANCH   4   3
ATOM      1  C   UNL     1       2.843  14.805  -4.662  0.00  0.00    +0.020 A 
ATOM      2  C   UNL     1       3.658  13.682  -5.067  0.00  0.00    +0.013 A 
ATOM      3  C   UNL     1       4.084  12.682  -4.096  0.00  0.00    +0.019 A 
ATOM     38  C   UNL     1       3.665  12.848  -2.713  0.00  0.00    +0.120 A 
ATOM     39  N   UNL     1       2.882  13.940  -2.352  0.00  0.00    -0.263 NA
ATOM     40  C   UNL     1       2.467  14.909  -3.277  0.00  0.00    +0.111 A 
ENDBRANCH   4   3
ENDBRANCH  10   9
BRANCH  12  13
ATOM     13  N   UNL     1       8.637   4.950  -2.135  0.00  0.00    -0.281 N 
ATOM     14  C   UNL     1       9.137   4.289  -1.025  0.00  0.00    +0.248 C 
ATOM     30  O   UNL     1      10.124   4.642  -0.396  0.00  0.00    -0.270 OA
ATOM     31  H   UNL     1       7.934   4.447  -2.677  0.00  0.00    +0.155 HD
BRANCH  14  15
ATOM     15  C   UNL     1       8.449   3.049  -0.552  0.00  0.00    +0.037 A 
ATOM     16  C   UNL     1       7.029   3.058  -0.192  0.00  0.00    +0.013 A 
ATOM     17  C   UNL     1       6.394   1.852   0.277  0.00  0.00    +0.005 A 
ATOM     18  C   UNL     1       7.179   0.626   0.387  0.00  0.00    -0.033 A 
ATOM     28  C   UNL     1       8.585   0.644   0.019  0.00  0.00    +0.005 A 
ATOM     29  C   UNL     1       9.211   1.824  -0.440  0.00  0.00    +0.013 A 
BRANCH  18  19
ATOM     19  C   UNL     1       6.590  -0.702   0.899  0.00  0.00    +0.119 C 
BRANCH  19  20
ATOM     20  N   UNL     1       7.416  -1.492   1.859  0.00  0.00    -0.302 NA
ATOM     21  C   UNL     1       7.529  -2.962   1.445  0.00  0.00    +0.066 C 
ATOM     22  C   UNL     1       8.416  -3.769   2.449  0.00  0.00    -0.064 C 
ATOM     23  N   UNL     1       7.829  -3.647   3.856  0.00  0.00    +0.379 N 
ATOM     24  C   UNL     1       8.626  -4.452   4.793  0.00  0.00    -0.096 C 
ATOM     25  H   UNL     1       6.800  -4.076   3.832  0.00  0.00    -0.082 HD
ATOM     26  C   UNL     1       7.710  -2.188   4.275  0.00  0.00    -0.064 C 
ATOM     27  C   UNL     1       6.851  -1.389   3.255  0.00  0.00    +0.066 C 
ENDBRANCH  19  20
ENDBRANCH  18  19
ENDBRANCH  14  15
ENDBRANCH  12  13
TORSDOF 6
ENDMDL
