MODEL 1
REMARK VINA RESULT:      -8.1      0.000      0.000
REMARK  Name = C:\Users\Docking\Desktop\test protocol\1iep_ligandH.pdb
REMARK  8 active torsions:
REMARK  status: ('A' for Active; 'I' for Inactive)
REMARK    1  A    between atoms: _5  and  _11
REMARK    2  A    between atoms: _19  and  _21
REMARK    3  A    between atoms: _22  and  _66
REMARK    4  A    between atoms: _27  and  _30
REMARK    5  A    between atoms: _32  and  _33
REMARK    6  A    between atoms: _38  and  _43
REMARK    7  A    between atoms: _43  and  _46
REMARK    8  A    between atoms: _53  and  _55
REMARK                            x       y       z     vdW  Elec       q    Type
REMARK                         _______ _______ _______ _____ _____    ______ ____
ROOT
ATOM     10  C   UNL     1       2.736 -15.139 -16.168  0.00  0.00    +0.038 A 
ATOM     11  C   UNL     1       3.860 -15.771 -15.578  0.00  0.00    +0.047 A 
ATOM     12  C   UNL     1       4.918 -16.343 -16.397  0.00  0.00    +0.035 A 
ATOM     32  C   UNL     1       4.800 -16.250 -17.814  0.00  0.00    +0.024 A 
ATOM     33  C   UNL     1       3.664 -15.611 -18.431  0.00  0.00    +0.007 A 
ATOM     34  C   UNL     1       2.616 -15.048 -17.628  0.00  0.00    -0.029 A 
ATOM     35  C   UNL     1       1.418 -14.381 -18.343  0.00  0.00    +0.045 C 
ENDROOT
BRANCH  10   9
ATOM      4  C   UNL     1      -1.439 -15.446 -13.820  0.00  0.00    +0.077 A 
ATOM      5  C   UNL     1      -1.690 -16.767 -14.319  0.00  0.00    +0.048 A 
ATOM      6  C   UNL     1      -0.723 -17.329 -15.183  0.00  0.00    +0.116 A 
ATOM      7  N   UNL     1       0.407 -16.614 -15.516  0.00  0.00    -0.223 NA
ATOM      8  C   UNL     1       0.617 -15.341 -15.019  0.00  0.00    +0.220 A 
ATOM      9  N   UNL     1       1.750 -14.607 -15.334  0.00  0.00    -0.283 N 
ATOM     36  H   UNL     1       1.865 -13.668 -14.952  0.00  0.00    +0.155 HD
ATOM     37  N   UNL     1      -0.292 -14.782 -14.193  0.00  0.00    -0.214 NA
BRANCH   4   3
ATOM      1  C   UNL     1      -3.110 -13.983 -10.601  0.00  0.00    +0.020 A 
ATOM      2  C   UNL     1      -2.188 -14.701 -11.449  0.00  0.00    +0.013 A 
ATOM      3  C   UNL     1      -2.365 -14.718 -12.896  0.00  0.00    +0.019 A 
ATOM     38  C   UNL     1      -3.494 -13.992 -13.456  0.00  0.00    +0.120 A 
ATOM     39  N   UNL     1      -4.367 -13.310 -12.615  0.00  0.00    -0.263 NA
ATOM     40  C   UNL     1      -4.208 -13.288 -11.221  0.00  0.00    +0.111 A 
ENDBRANCH   4   3
ENDBRANCH  10   9
BRANCH  12  13
ATOM     13  N   UNL     1       6.079 -17.005 -15.854  0.00  0.00    -0.281 N 
ATOM     14  C   UNL     1       7.145 -16.435 -15.178  0.00  0.00    +0.248 C 
ATOM     30  O   UNL     1       7.368 -15.235 -15.124  0.00  0.00    -0.270 OA
ATOM     31  H   UNL     1       6.119 -18.016 -15.984  0.00  0.00    +0.155 HD
BRANCH  14  15
ATOM     15  C   UNL     1       8.113 -17.329 -14.473  0.00  0.00    +0.037 A 
ATOM     16  C   UNL     1       9.352 -16.802 -13.894  0.00  0.00    +0.013 A 
ATOM     17  C   UNL     1      10.276 -17.689 -13.233  0.00  0.00    +0.005 A 
ATOM     18  C   UNL     1       9.964 -19.113 -13.146  0.00  0.00    -0.033 A 
ATOM     28  C   UNL     1       8.725 -19.609 -13.724  0.00  0.00    +0.005 A 
ATOM     29  C   UNL     1       7.817 -18.742 -14.373  0.00  0.00    +0.013 A 
BRANCH  18  19
ATOM     19  C   UNL     1      10.902 -20.136 -12.478  0.00  0.00    +0.119 C 
BRANCH  19  20
ATOM     20  N   UNL     1      10.597 -21.583 -12.689  0.00  0.00    -0.302 NA
ATOM     21  C   UNL     1       9.972 -22.225 -11.448  0.00  0.00    +0.066 C 
ATOM     22  C   UNL     1       9.639 -23.733 -11.693  0.00  0.00    -0.064 C 
ATOM     23  N   UNL     1      10.914 -24.473 -12.103  0.00  0.00    +0.379 N 
ATOM     24  C   UNL     1      10.616 -25.902 -12.278  0.00  0.00    -0.096 C 
ATOM     25  H   UNL     1      11.643 -24.380 -11.264  0.00  0.00    -0.082 HD
ATOM     26  C   UNL     1      11.544 -23.840 -13.335  0.00  0.00    -0.064 C 
ATOM     27  C   UNL     1      11.843 -22.334 -13.090  0.00  0.00    +0.066 C 
ENDBRANCH  19  20
ENDBRANCH  18  19
ENDBRANCH  14  15
ENDBRANCH  12  13
TORSDOF 6
ENDMDL
MODEL 2
REMARK VINA RESULT:      -7.8     10.344     16.875
REMARK  Name = C:\Users\Docking\Desktop\test protocol\1iep_ligandH.pdb
REMARK  8 active torsions:
REMARK  status: ('A' for Active; 'I' for Inactive)
REMARK    1  A    between atoms: _5  and  _11
REMARK    2  A    between atoms: _19  and  _21
REMARK    3  A    between atoms: _22  and  _66
REMARK    4  A    between atoms: _27  and  _30
REMARK    5  A    between atoms: _32  and  _33
REMARK    6  A    between atoms: _38  and  _43
REMARK    7  A    between atoms: _43  and  _46
REMARK    8  A    between atoms: _53  and  _55
REMARK                            x       y       z     vdW  Elec       q    Type
REMARK                         _______ _______ _______ _____ _____    ______ ____
ROOT
ATOM     10  C   UNL     1      19.848 -17.868 -19.139  0.00  0.00    +0.038 A 
ATOM     11  C   UNL     1      18.538 -18.110 -18.653  0.00  0.00    +0.047 A 
ATOM     12  C   UNL     1      17.983 -19.454 -18.624  0.00  0.00    +0.035 A 
ATOM     32  C   UNL     1      18.791 -20.529 -19.095  0.00  0.00    +0.024 A 
ATOM     33  C   UNL     1      20.125 -20.301 -19.594  0.00  0.00    +0.007 A 
ATOM     34  C   UNL     1      20.677 -18.977 -19.627  0.00  0.00    -0.029 A 
ATOM     35  C   UNL     1      22.110 -18.790 -20.178  0.00  0.00    +0.045 C 
ENDROOT
BRANCH  10   9
ATOM      4  C   UNL     1      20.724 -13.688 -21.330  0.00  0.00    +0.077 A 
ATOM      5  C   UNL     1      20.199 -14.164 -22.577  0.00  0.00    +0.048 A 
ATOM      6  C   UNL     1      19.721 -15.493 -22.615  0.00  0.00    +0.116 A 
ATOM      7  N   UNL     1      19.768 -16.278 -21.483  0.00  0.00    -0.223 NA
ATOM      8  C   UNL     1      20.281 -15.788 -20.296  0.00  0.00    +0.220 A 
ATOM      9  N   UNL     1      20.331 -16.557 -19.144  0.00  0.00    -0.283 N 
ATOM     36  H   UNL     1      20.724 -16.161 -18.290  0.00  0.00    +0.155 HD
ATOM     37  N   UNL     1      20.746 -14.523 -20.235  0.00  0.00    -0.214 NA
BRANCH   4   3
ATOM      1  C   UNL     1      22.616 -10.306 -21.863  0.00  0.00    +0.020 A 
ATOM      2  C   UNL     1      22.121 -11.642 -22.104  0.00  0.00    +0.013 A 
ATOM      3  C   UNL     1      21.263 -12.306 -21.130  0.00  0.00    +0.019 A 
ATOM     38  C   UNL     1      20.921 -11.584 -19.914  0.00  0.00    +0.120 A 
ATOM     39  N   UNL     1      21.413 -10.299 -19.709  0.00  0.00    -0.263 NA
ATOM     40  C   UNL     1      22.241  -9.651 -20.638  0.00  0.00    +0.111 A 
ENDBRANCH   4   3
ENDBRANCH  10   9
BRANCH  12  13
ATOM     13  N   UNL     1      16.656 -19.760 -18.149  0.00  0.00    -0.281 N 
ATOM     14  C   UNL     1      16.297 -20.368 -16.957  0.00  0.00    +0.248 C 
ATOM     30  O   UNL     1      17.078 -20.937 -16.209  0.00  0.00    -0.270 OA
ATOM     31  H   UNL     1      15.888 -19.497 -18.767  0.00  0.00    +0.155 HD
BRANCH  14  15
ATOM     15  C   UNL     1      14.861 -20.354 -16.543  0.00  0.00    +0.037 A 
ATOM     16  C   UNL     1      13.814 -19.875 -17.450  0.00  0.00    +0.013 A 
ATOM     17  C   UNL     1      12.438 -19.857 -17.019  0.00  0.00    +0.005 A 
ATOM     18  C   UNL     1      12.102 -20.320 -15.675  0.00  0.00    -0.033 A 
ATOM     28  C   UNL     1      13.160 -20.795 -14.799  0.00  0.00    +0.005 A 
ATOM     29  C   UNL     1      14.509 -20.813 -15.217  0.00  0.00    +0.013 A 
BRANCH  18  19
ATOM     19  C   UNL     1      10.663 -20.316 -15.124  0.00  0.00    +0.119 C 
BRANCH  19  20
ATOM     20  N   UNL     1       9.917 -19.023 -15.173  0.00  0.00    -0.302 NA
ATOM     21  C   UNL     1      10.698 -17.883 -14.515  0.00  0.00    +0.066 C 
ATOM     22  C   UNL     1       9.912 -16.534 -14.595  0.00  0.00    -0.064 C 
ATOM     23  N   UNL     1       8.543 -16.705 -13.934  0.00  0.00    +0.379 N 
ATOM     24  C   UNL     1       7.824 -15.422 -13.956  0.00  0.00    -0.096 C 
ATOM     25  H   UNL     1       8.715 -16.978 -12.867  0.00  0.00    -0.082 HD
ATOM     26  C   UNL     1       7.760 -17.838 -14.581  0.00  0.00    -0.064 C 
ATOM     27  C   UNL     1       8.563 -19.168 -14.522  0.00  0.00    +0.066 C 
ENDBRANCH  19  20
ENDBRANCH  18  19
ENDBRANCH  14  15
ENDBRANCH  12  13
TORSDOF 6
ENDMDL
MODEL 3
REMARK VINA RESULT:      -7.7     10.352     16.546
REMARK  Name = C:\Users\Docking\Desktop\test protocol\1iep_ligandH.pdb
REMARK  8 active torsions:
REMARK  status: ('A' for Active; 'I' for Inactive)
REMARK    1  A    between atoms: _5  and  _11
REMARK    2  A    between atoms: _19  and  _21
REMARK    3  A    between atoms: _22  and  _66
REMARK    4  A    between atoms: _27  and  _30
REMARK    5  A    between atoms: _32  and  _33
REMARK    6  A    between atoms: _38  and  _43
REMARK    7  A    between atoms: _43  and  _46
REMARK    8  A    between atoms: _53  and  _55
REMARK                            x       y       z     vdW  Elec       q    Type
REMARK                         _______ _______ _______ _____ _____    ______ ____
ROOT
ATOM     10  C   UNL     1      19.568 -17.590 -18.965  0.00  0.00    +0.038 A 
ATOM     11  C   UNL     1      18.239 -17.663 -18.476  0.00  0.00    +0.047 A 
ATOM     12  C   UNL     1      17.525 -18.929 -18.424  0.00  0.00    +0.035 A 
ATOM     32  C   UNL     1      18.196 -20.102 -18.877  0.00  0.00    +0.024 A 
ATOM     33  C   UNL     1      19.547 -20.046 -19.378  0.00  0.00    +0.007 A 
ATOM     34  C   UNL     1      20.256 -18.799 -19.433  0.00  0.00    -0.029 A 
ATOM     35  C   UNL     1      21.700 -18.797 -19.986  0.00  0.00    +0.045 C 
ENDROOT
BRANCH  10   9
ATOM      4  C   UNL     1      20.826 -13.524 -21.184  0.00  0.00    +0.077 A 
ATOM      5  C   UNL     1      20.179 -13.919 -22.402  0.00  0.00    +0.048 A 
ATOM      6  C   UNL     1      19.540 -15.179 -22.418  0.00  0.00    +0.116 A 
ATOM      7  N   UNL     1      19.553 -15.976 -21.294  0.00  0.00    -0.223 NA
ATOM      8  C   UNL     1      20.188 -15.566 -20.136  0.00  0.00    +0.220 A 
ATOM      9  N   UNL     1      20.207 -16.348 -18.991  0.00  0.00    -0.283 N 
ATOM     36  H   UNL     1      20.692 -16.012 -18.159  0.00  0.00    +0.155 HD
ATOM     37  N   UNL     1      20.806 -14.367 -20.096  0.00  0.00    -0.214 NA
BRANCH   4   3
ATOM      1  C   UNL     1      22.335 -10.275 -19.613  0.00  0.00    +0.020 A 
ATOM      2  C   UNL     1      21.633 -11.532 -19.728  0.00  0.00    +0.013 A 
ATOM      3  C   UNL     1      21.540 -12.220 -21.010  0.00  0.00    +0.019 A 
ATOM     38  C   UNL     1      22.176 -11.604 -22.165  0.00  0.00    +0.120 A 
ATOM     39  N   UNL     1      22.844 -10.392 -22.025  0.00  0.00    -0.263 NA
ATOM     40  C   UNL     1      22.938  -9.720 -20.797  0.00  0.00    +0.111 A 
ENDBRANCH   4   3
ENDBRANCH  10   9
BRANCH  12  13
ATOM     13  N   UNL     1      16.171 -19.064 -17.946  0.00  0.00    -0.281 N 
ATOM     14  C   UNL     1      15.045 -19.426 -18.667  0.00  0.00    +0.248 C 
ATOM     30  O   UNL     1      14.994 -19.483 -19.886  0.00  0.00    -0.270 OA
ATOM     31  H   UNL     1      16.026 -18.868 -16.955  0.00  0.00    +0.155 HD
BRANCH  14  15
ATOM     15  C   UNL     1      13.791 -19.760 -17.926  0.00  0.00    +0.037 A 
ATOM     16  C   UNL     1      12.504 -19.861 -18.619  0.00  0.00    +0.013 A 
ATOM     17  C   UNL     1      11.306 -20.168 -17.879  0.00  0.00    +0.005 A 
ATOM     18  C   UNL     1      11.390 -20.377 -16.435  0.00  0.00    -0.033 A 
ATOM     28  C   UNL     1      12.680 -20.275 -15.774  0.00  0.00    +0.005 A 
ATOM     29  C   UNL     1      13.857 -19.974 -16.497  0.00  0.00    +0.013 A 
BRANCH  18  19
ATOM     19  C   UNL     1      10.160 -20.687 -15.562  0.00  0.00    +0.119 C 
BRANCH  19  20
ATOM     20  N   UNL     1      10.378 -21.531 -14.349  0.00  0.00    -0.302 NA
ATOM     21  C   UNL     1       9.534 -22.809 -14.379  0.00  0.00    +0.066 C 
ATOM     22  C   UNL     1       9.791 -23.691 -13.114  0.00  0.00    -0.064 C 
ATOM     23  N   UNL     1       9.491 -22.873 -11.856  0.00  0.00    +0.379 N 
ATOM     24  C   UNL     1       9.676 -23.717 -10.667  0.00  0.00    -0.096 C 
ATOM     25  H   UNL     1       8.418 -22.574 -11.896  0.00  0.00    -0.082 HD
ATOM     26  C   UNL     1      10.324 -21.600 -11.820  0.00  0.00    -0.064 C 
ATOM     27  C   UNL     1      10.084 -20.745 -13.095  0.00  0.00    +0.066 C 
ENDBRANCH  19  20
ENDBRANCH  18  19
ENDBRANCH  14  15
ENDBRANCH  12  13
TORSDOF 6
ENDMDL
MODEL 4
REMARK VINA RESULT:      -7.7      2.602     12.130
REMARK  Name = C:\Users\Docking\Desktop\test protocol\1iep_ligandH.pdb
REMARK  8 active torsions:
REMARK  status: ('A' for Active; 'I' for Inactive)
REMARK    1  A    between atoms: _5  and  _11
REMARK    2  A    between atoms: _19  and  _21
REMARK    3  A    between atoms: _22  and  _66
REMARK    4  A    between atoms: _27  and  _30
REMARK    5  A    between atoms: _32  and  _33
REMARK    6  A    between atoms: _38  and  _43
REMARK    7  A    between atoms: _43  and  _46
REMARK    8  A    between atoms: _53  and  _55
REMARK                            x       y       z     vdW  Elec       q    Type
REMARK                         _______ _______ _______ _____ _____    ______ ____
ROOT
ATOM     10  C   UNL     1       9.071 -17.689 -14.702  0.00  0.00    +0.038 A 
ATOM     11  C   UNL     1       7.727 -17.675 -15.153  0.00  0.00    +0.047 A 
ATOM     12  C   UNL     1       6.912 -16.474 -15.056  0.00  0.00    +0.035 A 
ATOM     32  C   UNL     1       7.500 -15.303 -14.496  0.00  0.00    +0.024 A 
ATOM     33  C   UNL     1       8.865 -15.299 -14.031  0.00  0.00    +0.007 A 
ATOM     34  C   UNL     1       9.672 -16.482 -14.122  0.00  0.00    -0.029 A 
ATOM     35  C   UNL     1      11.127 -16.422 -13.601  0.00  0.00    +0.045 C 
ENDROOT
BRANCH  10   9
ATOM      4  C   UNL     1      11.036 -21.654 -12.843  0.00  0.00    +0.077 A 
ATOM      5  C   UNL     1      10.580 -21.332 -11.521  0.00  0.00    +0.048 A 
ATOM      6  C   UNL     1       9.849 -20.133 -11.361  0.00  0.00    +0.116 A 
ATOM      7  N   UNL     1       9.599 -19.324 -12.449  0.00  0.00    -0.223 NA
ATOM      8  C   UNL     1      10.054 -19.664 -13.709  0.00  0.00    +0.220 A 
ATOM      9  N   UNL     1       9.807 -18.870 -14.819  0.00  0.00    -0.283 N 
ATOM     36  H   UNL     1      10.167 -19.151 -15.730  0.00  0.00    +0.155 HD
ATOM     37  N   UNL     1      10.756 -20.803 -13.888  0.00  0.00    -0.214 NA
BRANCH   4   3
ATOM      1  C   UNL     1      13.880 -24.068 -14.017  0.00  0.00    +0.020 A 
ATOM      2  C   UNL     1      13.169 -22.847 -13.716  0.00  0.00    +0.013 A 
ATOM      3  C   UNL     1      11.817 -22.887 -13.173  0.00  0.00    +0.019 A 
ATOM     38  C   UNL     1      11.209 -24.190 -12.944  0.00  0.00    +0.120 A 
ATOM     39  N   UNL     1      11.918 -25.348 -13.245  0.00  0.00    -0.263 NA
ATOM     40  C   UNL     1      13.219 -25.322 -13.769  0.00  0.00    +0.111 A 
ENDBRANCH   4   3
ENDBRANCH  10   9
BRANCH  12  13
ATOM     13  N   UNL     1       5.539 -16.403 -15.491  0.00  0.00    -0.281 N 
ATOM     14  C   UNL     1       5.060 -16.330 -16.789  0.00  0.00    +0.248 C 
ATOM     30  O   UNL     1       5.751 -16.098 -17.769  0.00  0.00    -0.270 OA
ATOM     31  H   UNL     1       4.836 -16.407 -14.753  0.00  0.00    +0.155 HD
BRANCH  14  15
ATOM     15  C   UNL     1       3.598 -16.529 -17.030  0.00  0.00    +0.037 A 
ATOM     16  C   UNL     1       3.074 -17.812 -17.505  0.00  0.00    +0.013 A 
ATOM     17  C   UNL     1       1.662 -17.971 -17.746  0.00  0.00    +0.005 A 
ATOM     18  C   UNL     1       0.763 -16.844 -17.512  0.00  0.00    -0.033 A 
ATOM     28  C   UNL     1       1.309 -15.583 -17.036  0.00  0.00    +0.005 A 
ATOM     29  C   UNL     1       2.693 -15.423 -16.799  0.00  0.00    +0.013 A 
BRANCH  18  19
ATOM     19  C   UNL     1      -0.755 -16.917 -17.763  0.00  0.00    +0.119 C 
BRANCH  19  20
ATOM     20  N   UNL     1      -1.607 -17.437 -16.652  0.00  0.00    -0.302 NA
ATOM     21  C   UNL     1      -0.907 -17.333 -15.294  0.00  0.00    +0.066 C 
ATOM     22  C   UNL     1      -1.821 -17.860 -14.140  0.00  0.00    -0.064 C 
ATOM     23  N   UNL     1      -2.224 -19.307 -14.433  0.00  0.00    +0.379 N 
ATOM     24  C   UNL     1      -3.037 -19.824 -13.322  0.00  0.00    -0.096 C 
ATOM     25  H   UNL     1      -1.291 -19.914 -14.482  0.00  0.00    -0.082 HD
ATOM     26  C   UNL     1      -2.919 -19.419 -15.783  0.00  0.00    -0.064 C 
ATOM     27  C   UNL     1      -2.013 -18.866 -16.918  0.00  0.00    +0.066 C 
ENDBRANCH  19  20
ENDBRANCH  18  19
ENDBRANCH  14  15
ENDBRANCH  12  13
TORSDOF 6
ENDMDL
MODEL 5
REMARK VINA RESULT:      -7.6      6.811     10.351
REMARK  Name = C:\Users\Docking\Desktop\test protocol\1iep_ligandH.pdb
REMARK  8 active torsions:
REMARK  status: ('A' for Active; 'I' for Inactive)
REMARK    1  A    between atoms: _5  and  _11
REMARK    2  A    between atoms: _19  and  _21
REMARK    3  A    between atoms: _22  and  _66
REMARK    4  A    between atoms: _27  and  _30
REMARK    5  A    between atoms: _32  and  _33
REMARK    6  A    between atoms: _38  and  _43
REMARK    7  A    between atoms: _43  and  _46
REMARK    8  A    between atoms: _53  and  _55
REMARK                            x       y       z     vdW  Elec       q    Type
REMARK                         _______ _______ _______ _____ _____    ______ ____
ROOT
ATOM     10  C   UNL     1       9.778 -19.846 -14.594  0.00  0.00    +0.038 A 
ATOM     11  C   UNL     1      10.968 -19.741 -15.358  0.00  0.00    +0.047 A 
ATOM     12  C   UNL     1      12.222 -20.300 -14.878  0.00  0.00    +0.035 A 
ATOM     32  C   UNL     1      12.227 -20.963 -13.616  0.00  0.00    +0.024 A 
ATOM     33  C   UNL     1      11.026 -21.078 -12.826  0.00  0.00    +0.007 A 
ATOM     34  C   UNL     1       9.787 -20.526 -13.293  0.00  0.00    -0.029 A 
ATOM     35  C   UNL     1       8.532 -20.673 -12.401  0.00  0.00    +0.045 C 
ENDROOT
BRANCH  10   9
ATOM      4  C   UNL     1       6.824 -16.136 -15.336  0.00  0.00    +0.077 A 
ATOM      5  C   UNL     1       7.683 -15.234 -14.625  0.00  0.00    +0.048 A 
ATOM      6  C   UNL     1       8.873 -15.765 -14.078  0.00  0.00    +0.116 A 
ATOM      7  N   UNL     1       9.170 -17.102 -14.236  0.00  0.00    -0.223 NA
ATOM      8  C   UNL     1       8.319 -17.945 -14.925  0.00  0.00    +0.220 A 
ATOM      9  N   UNL     1       8.602 -19.291 -15.103  0.00  0.00    -0.283 N 
ATOM     36  H   UNL     1       7.944 -19.881 -15.612  0.00  0.00    +0.155 HD
ATOM     37  N   UNL     1       7.176 -17.462 -15.456  0.00  0.00    -0.214 NA
BRANCH   4   3
ATOM      1  C   UNL     1       3.308 -14.537 -15.952  0.00  0.00    +0.020 A 
ATOM      2  C   UNL     1       4.538 -14.908 -15.291  0.00  0.00    +0.013 A 
ATOM      3  C   UNL     1       5.534 -15.724 -15.974  0.00  0.00    +0.019 A 
ATOM     38  C   UNL     1       5.253 -16.152 -17.336  0.00  0.00    +0.120 A 
ATOM     39  N   UNL     1       4.059 -15.781 -17.947  0.00  0.00    -0.263 NA
ATOM     40  C   UNL     1       3.092 -14.997 -17.299  0.00  0.00    +0.111 A 
ENDBRANCH   4   3
ENDBRANCH  10   9
BRANCH  12  13
ATOM     13  N   UNL     1      13.464 -20.217 -15.605  0.00  0.00    -0.281 N 
ATOM     14  C   UNL     1      13.684 -20.482 -16.947  0.00  0.00    +0.248 C 
ATOM     30  O   UNL     1      12.883 -21.040 -17.682  0.00  0.00    -0.270 OA
ATOM     31  H   UNL     1      14.280 -19.928 -15.066  0.00  0.00    +0.155 HD
BRANCH  14  15
ATOM     15  C   UNL     1      14.989 -20.082 -17.557  0.00  0.00    +0.037 A 
ATOM     16  C   UNL     1      15.051 -19.483 -18.893  0.00  0.00    +0.013 A 
ATOM     17  C   UNL     1      16.324 -19.122 -19.465  0.00  0.00    +0.005 A 
ATOM     18  C   UNL     1      17.546 -19.359 -18.700  0.00  0.00    -0.033 A 
ATOM     28  C   UNL     1      17.455 -19.950 -17.375  0.00  0.00    +0.005 A 
ATOM     29  C   UNL     1      16.209 -20.306 -16.812  0.00  0.00    +0.013 A 
BRANCH  18  19
ATOM     19  C   UNL     1      18.949 -19.025 -19.240  0.00  0.00    +0.119 C 
BRANCH  19  20
ATOM     20  N   UNL     1      19.068 -17.849 -20.153  0.00  0.00    -0.302 NA
ATOM     21  C   UNL     1      20.421 -17.812 -20.869  0.00  0.00    +0.066 C 
ATOM     22  C   UNL     1      20.520 -16.587 -21.836  0.00  0.00    -0.064 C 
ATOM     23  N   UNL     1      20.290 -15.298 -21.047  0.00  0.00    +0.379 N 
ATOM     24  C   UNL     1      20.440 -14.141 -21.942  0.00  0.00    -0.096 C 
ATOM     25  H   UNL     1      21.087 -15.230 -20.270  0.00  0.00    -0.082 HD
ATOM     26  C   UNL     1      18.948 -15.327 -20.329  0.00  0.00    -0.064 C 
ATOM     27  C   UNL     1      18.849 -16.564 -19.393  0.00  0.00    +0.066 C 
ENDBRANCH  19  20
ENDBRANCH  18  19
ENDBRANCH  14  15
ENDBRANCH  12  13
TORSDOF 6
ENDMDL
