MODEL 1
REMARK VINA RESULT:     -12.0      0.000      0.000
REMARK  Name = C:\Users\Docking\Desktop\test protocol\1iep_ligandH.pdb
REMARK  8 active torsions:
REMARK  status: ('A' for Active; 'I' for Inactive)
REMARK    1  A    between atoms: _5  and  _11
REMARK    2  A    between atoms: _19  and  _21
REMARK    3  A    between atoms: _22  and  _66
REMARK    4  A    between atoms: _27  and  _30
REMARK    5  A    between atoms: _32  and  _33
REMARK    6  A    between atoms: _38  and  _43
REMARK    7  A    between atoms: _43  and  _46
REMARK    8  A    between atoms: _53  and  _55
REMARK                            x       y       z     vdW  Elec       q    Type
REMARK                         _______ _______ _______ _____ _____    ______ ____
ROOT
ATOM     10  C   UNL     1      24.405  16.619   9.269  0.00  0.00    +0.038 A 
ATOM     11  C   UNL     1      24.460  17.113  10.597  0.00  0.00    +0.047 A 
ATOM     12  C   UNL     1      23.427  16.783  11.567  0.00  0.00    +0.035 A 
ATOM     32  C   UNL     1      22.352  15.945  11.150  0.00  0.00    +0.024 A 
ATOM     33  C   UNL     1      22.279  15.435   9.804  0.00  0.00    +0.007 A 
ATOM     34  C   UNL     1      23.294  15.759   8.842  0.00  0.00    -0.029 A 
ATOM     35  C   UNL     1      23.161  15.189   7.411  0.00  0.00    +0.045 C 
ENDROOT
BRANCH  10   9
ATOM      4  C   UNL     1      28.452  15.647   6.880  0.00  0.00    +0.077 A 
ATOM      5  C   UNL     1      28.561  14.346   7.475  0.00  0.00    +0.048 A 
ATOM      6  C   UNL     1      27.558  13.968   8.396  0.00  0.00    +0.116 A 
ATOM      7  N   UNL     1      26.529  14.834   8.692  0.00  0.00    -0.223 NA
ATOM      8  C   UNL     1      26.455  16.083   8.102  0.00  0.00    +0.220 A 
ATOM      9  N   UNL     1      25.423  16.967   8.379  0.00  0.00    -0.283 N 
ATOM     36  H   UNL     1      25.409  17.882   7.929  0.00  0.00    +0.155 HD
ATOM     37  N   UNL     1      27.400  16.468   7.220  0.00  0.00    -0.214 NA
BRANCH   4   3
ATOM      1  C   UNL     1      30.273  17.985   4.326  0.00  0.00    +0.020 A 
ATOM      2  C   UNL     1      29.298  17.508   5.280  0.00  0.00    +0.013 A 
ATOM      3  C   UNL     1      29.432  16.189   5.886  0.00  0.00    +0.019 A 
ATOM     38  C   UNL     1      30.572  15.371   5.502  0.00  0.00    +0.120 A 
ATOM     39  N   UNL     1      31.494  15.856   4.579  0.00  0.00    -0.263 NA
ATOM     40  C   UNL     1      31.375  17.123   3.988  0.00  0.00    +0.111 A 
ENDBRANCH   4   3
ENDBRANCH  10   9
BRANCH  12  13
ATOM     13  N   UNL     1      23.427  17.262  12.927  0.00  0.00    -0.281 N 
ATOM     14  C   UNL     1      24.156  18.313  13.460  0.00  0.00    +0.248 C 
ATOM     30  O   UNL     1      25.085  18.868  12.893  0.00  0.00    -0.270 OA
ATOM     31  H   UNL     1      22.815  16.766  13.575  0.00  0.00    +0.155 HD
BRANCH  14  15
ATOM     15  C   UNL     1      23.812  18.809  14.828  0.00  0.00    +0.037 A 
ATOM     16  C   UNL     1      22.746  18.186  15.616  0.00  0.00    +0.013 A 
ATOM     17  C   UNL     1      22.423  18.696  16.926  0.00  0.00    +0.005 A 
ATOM     18  C   UNL     1      23.170  19.834  17.456  0.00  0.00    -0.033 A 
ATOM     28  C   UNL     1      24.227  20.429  16.654  0.00  0.00    +0.005 A 
ATOM     29  C   UNL     1      24.545  19.933  15.370  0.00  0.00    +0.013 A 
BRANCH  18  19
ATOM     19  C   UNL     1      22.880  20.456  18.834  0.00  0.00    +0.119 C 
BRANCH  19  20
ATOM     20  N   UNL     1      22.787  19.526  19.999  0.00  0.00    -0.302 NA
ATOM     21  C   UNL     1      22.685  20.278  21.328  0.00  0.00    +0.066 C 
ATOM     22  C   UNL     1      22.566  19.289  22.534  0.00  0.00    -0.064 C 
ATOM     23  N   UNL     1      23.769  18.345  22.537  0.00  0.00    +0.379 N 
ATOM     24  C   UNL     1      23.690  17.453  23.702  0.00  0.00    -0.096 C 
ATOM     25  H   UNL     1      24.687  18.968  22.649  0.00  0.00    -0.082 HD
ATOM     26  C   UNL     1      23.880  17.595  21.217  0.00  0.00    -0.064 C 
ATOM     27  C   UNL     1      23.968  18.587  20.023  0.00  0.00    +0.066 C 
ENDBRANCH  19  20
ENDBRANCH  18  19
ENDBRANCH  14  15
ENDBRANCH  12  13
TORSDOF 6
ENDMDL
MODEL 2
REMARK VINA RESULT:     -10.8      1.539      2.291
REMARK  Name = C:\Users\Docking\Desktop\test protocol\1iep_ligandH.pdb
REMARK  8 active torsions:
REMARK  status: ('A' for Active; 'I' for Inactive)
REMARK    1  A    between atoms: _5  and  _11
REMARK    2  A    between atoms: _19  and  _21
REMARK    3  A    between atoms: _22  and  _66
REMARK    4  A    between atoms: _27  and  _30
REMARK    5  A    between atoms: _32  and  _33
REMARK    6  A    between atoms: _38  and  _43
REMARK    7  A    between atoms: _43  and  _46
REMARK    8  A    between atoms: _53  and  _55
REMARK                            x       y       z     vdW  Elec       q    Type
REMARK                         _______ _______ _______ _____ _____    ______ ____
ROOT
ATOM     10  C   UNL     1      24.731  15.105   9.606  0.00  0.00    +0.038 A 
ATOM     11  C   UNL     1      24.776  15.691  10.897  0.00  0.00    +0.047 A 
ATOM     12  C   UNL     1      23.623  16.386  11.448  0.00  0.00    +0.035 A 
ATOM     32  C   UNL     1      22.439  16.462  10.659  0.00  0.00    +0.024 A 
ATOM     33  C   UNL     1      22.377  15.873   9.344  0.00  0.00    +0.007 A 
ATOM     34  C   UNL     1      23.512  15.188   8.794  0.00  0.00    -0.029 A 
ATOM     35  C   UNL     1      23.390  14.581   7.377  0.00  0.00    +0.045 C 
ENDROOT
BRANCH  10   9
ATOM      4  C   UNL     1      28.803  15.003   7.066  0.00  0.00    +0.077 A 
ATOM      5  C   UNL     1      28.638  16.363   6.638  0.00  0.00    +0.048 A 
ATOM      6  C   UNL     1      27.489  17.050   7.087  0.00  0.00    +0.116 A 
ATOM      7  N   UNL     1      26.579  16.416   7.905  0.00  0.00    -0.223 NA
ATOM      8  C   UNL     1      26.766  15.104   8.298  0.00  0.00    +0.220 A 
ATOM      9  N   UNL     1      25.868  14.450   9.126  0.00  0.00    -0.283 N 
ATOM     36  H   UNL     1      26.038  13.479   9.388  0.00  0.00    +0.155 HD
ATOM     37  N   UNL     1      27.855  14.425   7.881  0.00  0.00    -0.214 NA
BRANCH   4   3
ATOM      1  C   UNL     1      32.048  13.677   5.332  0.00  0.00    +0.020 A 
ATOM      2  C   UNL     1      30.941  14.542   5.669  0.00  0.00    +0.013 A 
ATOM      3  C   UNL     1      29.967  14.146   6.678  0.00  0.00    +0.019 A 
ATOM     38  C   UNL     1      30.143  12.858   7.332  0.00  0.00    +0.120 A 
ATOM     39  N   UNL     1      31.218  12.045   6.985  0.00  0.00    -0.263 NA
ATOM     40  C   UNL     1      32.161  12.415   6.015  0.00  0.00    +0.111 A 
ENDBRANCH   4   3
ENDBRANCH  10   9
BRANCH  12  13
ATOM     13  N   UNL     1      23.613  17.008  12.749  0.00  0.00    -0.281 N 
ATOM     14  C   UNL     1      24.315  18.128  13.164  0.00  0.00    +0.248 C 
ATOM     30  O   UNL     1      25.228  18.642  12.536  0.00  0.00    -0.270 OA
ATOM     31  H   UNL     1      23.015  16.569  13.450  0.00  0.00    +0.155 HD
BRANCH  14  15
ATOM     15  C   UNL     1      23.961  18.759  14.472  0.00  0.00    +0.037 A 
ATOM     16  C   UNL     1      24.522  20.053  14.867  0.00  0.00    +0.013 A 
ATOM     17  C   UNL     1      24.178  20.631  16.142  0.00  0.00    +0.005 A 
ATOM     18  C   UNL     1      23.265  19.915  17.030  0.00  0.00    -0.033 A 
ATOM     28  C   UNL     1      22.719  18.636  16.610  0.00  0.00    +0.005 A 
ATOM     29  C   UNL     1      23.055  18.065  15.362  0.00  0.00    +0.013 A 
BRANCH  18  19
ATOM     19  C   UNL     1      22.859  20.447  18.417  0.00  0.00    +0.119 C 
BRANCH  19  20
ATOM     20  N   UNL     1      23.240  19.624  19.603  0.00  0.00    -0.302 NA
ATOM     21  C   UNL     1      24.738  19.311  19.628  0.00  0.00    +0.066 C 
ATOM     22  C   UNL     1      25.123  18.468  20.887  0.00  0.00    -0.064 C 
ATOM     23  N   UNL     1      24.300  17.179  20.906  0.00  0.00    +0.379 N 
ATOM     24  C   UNL     1      24.701  16.358  22.058  0.00  0.00    -0.096 C 
ATOM     25  H   UNL     1      24.545  16.608  19.981  0.00  0.00    -0.082 HD
ATOM     26  C   UNL     1      22.808  17.482  20.880  0.00  0.00    -0.064 C 
ATOM     27  C   UNL     1      22.441  18.344  19.640  0.00  0.00    +0.066 C 
ENDBRANCH  19  20
ENDBRANCH  18  19
ENDBRANCH  14  15
ENDBRANCH  12  13
TORSDOF 6
ENDMDL
MODEL 3
REMARK VINA RESULT:     -10.1      7.291     12.499
REMARK  Name = C:\Users\Docking\Desktop\test protocol\1iep_ligandH.pdb
REMARK  8 active torsions:
REMARK  status: ('A' for Active; 'I' for Inactive)
REMARK    1  A    between atoms: _5  and  _11
REMARK    2  A    between atoms: _19  and  _21
REMARK    3  A    between atoms: _22  and  _66
REMARK    4  A    between atoms: _27  and  _30
REMARK    5  A    between atoms: _32  and  _33
REMARK    6  A    between atoms: _38  and  _43
REMARK    7  A    between atoms: _43  and  _46
REMARK    8  A    between atoms: _53  and  _55
REMARK                            x       y       z     vdW  Elec       q    Type
REMARK                         _______ _______ _______ _____ _____    ______ ____
ROOT
ATOM     10  C   UNL     1      29.668  14.689   6.723  0.00  0.00    +0.038 A 
ATOM     11  C   UNL     1      30.751  14.699   7.638  0.00  0.00    +0.047 A 
ATOM     12  C   UNL     1      32.074  14.240   7.244  0.00  0.00    +0.035 A 
ATOM     32  C   UNL     1      32.258  13.779   5.907  0.00  0.00    +0.024 A 
ATOM     33  C   UNL     1      31.167  13.761   4.965  0.00  0.00    +0.007 A 
ATOM     34  C   UNL     1      29.860  14.211   5.349  0.00  0.00    -0.029 A 
ATOM     35  C   UNL     1      28.726  14.163   4.298  0.00  0.00    +0.045 C 
ENDROOT
BRANCH  10   9
ATOM      4  C   UNL     1      25.752  14.320   9.474  0.00  0.00    +0.077 A 
ATOM      5  C   UNL     1      26.221  13.108  10.082  0.00  0.00    +0.048 A 
ATOM      6  C   UNL     1      27.472  12.609   9.654  0.00  0.00    +0.116 A 
ATOM      7  N   UNL     1      28.191  13.281   8.689  0.00  0.00    -0.223 NA
ATOM      8  C   UNL     1      27.709  14.446   8.122  0.00  0.00    +0.220 A 
ATOM      9  N   UNL     1      28.419  15.142   7.156  0.00  0.00    -0.283 N 
ATOM     36  H   UNL     1      28.026  15.994   6.757  0.00  0.00    +0.155 HD
ATOM     37  N   UNL     1      26.517  14.942   8.513  0.00  0.00    -0.214 NA
BRANCH   4   3
ATOM      1  C   UNL     1      22.104  15.717   9.274  0.00  0.00    +0.020 A 
ATOM      2  C   UNL     1      23.339  15.076   8.887  0.00  0.00    +0.013 A 
ATOM      3  C   UNL     1      24.451  14.974   9.824  0.00  0.00    +0.019 A 
ATOM     38  C   UNL     1      24.279  15.534  11.156  0.00  0.00    +0.120 A 
ATOM     39  N   UNL     1      23.078  16.146  11.500  0.00  0.00    -0.263 NA
ATOM     40  C   UNL     1      22.002  16.252  10.606  0.00  0.00    +0.111 A 
ENDBRANCH   4   3
ENDBRANCH  10   9
BRANCH  12  13
ATOM     13  N   UNL     1      33.210  14.219   8.131  0.00  0.00    -0.281 N 
ATOM     14  C   UNL     1      33.395  13.436   9.259  0.00  0.00    +0.248 C 
ATOM     30  O   UNL     1      32.515  12.783   9.800  0.00  0.00    -0.270 OA
ATOM     31  H   UNL     1      33.969  14.859   7.900  0.00  0.00    +0.155 HD
BRANCH  14  15
ATOM     15  C   UNL     1      34.751  13.382   9.885  0.00  0.00    +0.037 A 
ATOM     16  C   UNL     1      34.945  12.838  11.232  0.00  0.00    +0.013 A 
ATOM     17  C   UNL     1      36.261  12.813  11.819  0.00  0.00    +0.005 A 
ATOM     18  C   UNL     1      37.395  13.332  11.058  0.00  0.00    -0.033 A 
ATOM     28  C   UNL     1      37.175  13.861   9.722  0.00  0.00    +0.005 A 
ATOM     29  C   UNL     1      35.886  13.888   9.144  0.00  0.00    +0.013 A 
BRANCH  18  19
ATOM     19  C   UNL     1      38.831  13.364  11.614  0.00  0.00    +0.119 C 
BRANCH  19  20
ATOM     20  N   UNL     1      39.029  12.912  13.023  0.00  0.00    -0.302 NA
ATOM     21  C   UNL     1      39.992  13.824  13.789  0.00  0.00    +0.066 C 
ATOM     22  C   UNL     1      40.170  13.350  15.268  0.00  0.00    -0.064 C 
ATOM     23  N   UNL     1      40.668  11.904  15.281  0.00  0.00    +0.379 N 
ATOM     24  C   UNL     1      40.892  11.474  16.669  0.00  0.00    -0.096 C 
ATOM     25  H   UNL     1      41.652  11.881  14.756  0.00  0.00    -0.082 HD
ATOM     26  C   UNL     1      39.718  10.990  14.519  0.00  0.00    -0.064 C 
ATOM     27  C   UNL     1      39.525  11.488  13.059  0.00  0.00    +0.066 C 
ENDBRANCH  19  20
ENDBRANCH  18  19
ENDBRANCH  14  15
ENDBRANCH  12  13
TORSDOF 6
ENDMDL
