MODEL 1
REMARK VINA RESULT:      -8.3      0.000      0.000
REMARK  Name = C:\Users\Docking\Desktop\test protocol\1iep_ligandH.pdb
REMARK  8 active torsions:
REMARK  status: ('A' for Active; 'I' for Inactive)
REMARK    1  A    between atoms: _5  and  _11
REMARK    2  A    between atoms: _19  and  _21
REMARK    3  A    between atoms: _22  and  _66
REMARK    4  A    between atoms: _27  and  _30
REMARK    5  A    between atoms: _32  and  _33
REMARK    6  A    between atoms: _38  and  _43
REMARK    7  A    between atoms: _43  and  _46
REMARK    8  A    between atoms: _53  and  _55
REMARK                            x       y       z     vdW  Elec       q    Type
REMARK                         _______ _______ _______ _____ _____    ______ ____
ROOT
ATOM     10  C   UNL     1      21.680  15.800 -39.639  0.00  0.00    +0.038 A 
ATOM     11  C   UNL     1      21.773  16.903 -38.752  0.00  0.00    +0.047 A 
ATOM     12  C   UNL     1      21.134  18.172 -39.061  0.00  0.00    +0.035 A 
ATOM     32  C   UNL     1      20.405  18.283 -40.281  0.00  0.00    +0.024 A 
ATOM     33  C   UNL     1      20.301  17.172 -41.194  0.00  0.00    +0.007 A 
ATOM     34  C   UNL     1      20.932  15.918 -40.896  0.00  0.00    -0.029 A 
ATOM     35  C   UNL     1      20.792  14.763 -41.915  0.00  0.00    +0.045 C 
ENDROOT
BRANCH  10   9
ATOM      4  C   UNL     1      25.455  12.835 -39.705  0.00  0.00    +0.077 A 
ATOM      5  C   UNL     1      26.220  13.733 -40.522  0.00  0.00    +0.048 A 
ATOM      6  C   UNL     1      25.603  14.944 -40.910  0.00  0.00    +0.116 A 
ATOM      7  N   UNL     1      24.317  15.226 -40.504  0.00  0.00    -0.223 NA
ATOM      8  C   UNL     1      23.606  14.337 -39.718  0.00  0.00    +0.220 A 
ATOM      9  N   UNL     1      22.314  14.604 -39.292  0.00  0.00    -0.283 N 
ATOM     36  H   UNL     1      21.820  13.920 -38.720  0.00  0.00    +0.155 HD
ATOM     37  N   UNL     1      24.172  13.174 -39.336  0.00  0.00    -0.214 NA
BRANCH   4   3
ATOM      1  C   UNL     1      25.652   9.123 -38.490  0.00  0.00    +0.020 A 
ATOM      2  C   UNL     1      25.104  10.372 -38.966  0.00  0.00    +0.013 A 
ATOM      3  C   UNL     1      25.969  11.519 -39.213  0.00  0.00    +0.019 A 
ATOM     38  C   UNL     1      27.396  11.367 -38.967  0.00  0.00    +0.120 A 
ATOM     39  N   UNL     1      27.894  10.152 -38.508  0.00  0.00    -0.263 NA
ATOM     40  C   UNL     1      27.071   9.042 -38.265  0.00  0.00    +0.111 A 
ENDBRANCH   4   3
ENDBRANCH  10   9
BRANCH  12  13
ATOM     13  N   UNL     1      21.201  19.330 -38.203  0.00  0.00    -0.281 N 
ATOM     14  C   UNL     1      20.406  19.625 -37.108  0.00  0.00    +0.248 C 
ATOM     30  O   UNL     1      19.372  19.038 -36.826  0.00  0.00    -0.270 OA
ATOM     31  H   UNL     1      21.922  20.014 -38.431  0.00  0.00    +0.155 HD
BRANCH  14  15
ATOM     15  C   UNL     1      20.811  20.743 -36.202  0.00  0.00    +0.037 A 
ATOM     16  C   UNL     1      22.029  21.519 -36.451  0.00  0.00    +0.013 A 
ATOM     17  C   UNL     1      22.405  22.581 -35.552  0.00  0.00    +0.005 A 
ATOM     18  C   UNL     1      21.560  22.875 -34.396  0.00  0.00    -0.033 A 
ATOM     28  C   UNL     1      20.355  22.092 -34.177  0.00  0.00    +0.005 A 
ATOM     29  C   UNL     1      19.984  21.050 -35.055  0.00  0.00    +0.013 A 
BRANCH  18  19
ATOM     19  C   UNL     1      21.896  23.976 -33.373  0.00  0.00    +0.119 C 
BRANCH  19  20
ATOM     20  N   UNL     1      23.168  23.831 -32.605  0.00  0.00    -0.302 NA
ATOM     21  C   UNL     1      22.943  23.942 -31.094  0.00  0.00    +0.066 C 
ATOM     22  C   UNL     1      24.280  23.765 -30.304  0.00  0.00    -0.064 C 
ATOM     23  N   UNL     1      25.292  24.810 -30.779  0.00  0.00    +0.379 N 
ATOM     24  C   UNL     1      26.531  24.683 -29.998  0.00  0.00    -0.096 C 
ATOM     25  H   UNL     1      24.861  25.816 -30.571  0.00  0.00    -0.082 HD
ATOM     26  C   UNL     1      25.520  24.708 -32.281  0.00  0.00    -0.064 C 
ATOM     27  C   UNL     1      24.180  24.855 -33.055  0.00  0.00    +0.066 C 
ENDBRANCH  19  20
ENDBRANCH  18  19
ENDBRANCH  14  15
ENDBRANCH  12  13
TORSDOF 6
ENDMDL
MODEL 2
REMARK VINA RESULT:      -8.0     29.112     33.841
REMARK  Name = C:\Users\Docking\Desktop\test protocol\1iep_ligandH.pdb
REMARK  8 active torsions:
REMARK  status: ('A' for Active; 'I' for Inactive)
REMARK    1  A    between atoms: _5  and  _11
REMARK    2  A    between atoms: _19  and  _21
REMARK    3  A    between atoms: _22  and  _66
REMARK    4  A    between atoms: _27  and  _30
REMARK    5  A    between atoms: _32  and  _33
REMARK    6  A    between atoms: _38  and  _43
REMARK    7  A    between atoms: _43  and  _46
REMARK    8  A    between atoms: _53  and  _55
REMARK                            x       y       z     vdW  Elec       q    Type
REMARK                         _______ _______ _______ _____ _____    ______ ____
ROOT
ATOM     10  C   UNL     1       8.184  -8.592 -44.222  0.00  0.00    +0.038 A 
ATOM     11  C   UNL     1       6.922  -8.081 -44.620  0.00  0.00    +0.047 A 
ATOM     12  C   UNL     1       6.310  -8.484 -45.876  0.00  0.00    +0.035 A 
ATOM     32  C   UNL     1       7.009  -9.412 -46.702  0.00  0.00    +0.024 A 
ATOM     33  C   UNL     1       8.292  -9.941 -46.313  0.00  0.00    +0.007 A 
ATOM     34  C   UNL     1       8.903  -9.545 -45.076  0.00  0.00    -0.029 A 
ATOM     35  C   UNL     1      10.283 -10.140 -44.713  0.00  0.00    +0.045 C 
ENDROOT
BRANCH  10   9
ATOM      4  C   UNL     1       9.055  -9.198 -39.541  0.00  0.00    +0.077 A 
ATOM      5  C   UNL     1       8.348 -10.446 -39.510  0.00  0.00    +0.048 A 
ATOM      6  C   UNL     1       7.768 -10.893 -40.719  0.00  0.00    +0.116 A 
ATOM      7  N   UNL     1       7.894 -10.140 -41.866  0.00  0.00    -0.223 NA
ATOM      8  C   UNL     1       8.581  -8.940 -41.861  0.00  0.00    +0.220 A 
ATOM      9  N   UNL     1       8.726  -8.171 -43.005  0.00  0.00    -0.283 N 
ATOM     36  H   UNL     1       9.234  -7.288 -42.958  0.00  0.00    +0.155 HD
ATOM     37  N   UNL     1       9.142  -8.491 -40.719  0.00  0.00    -0.214 NA
BRANCH   4   3
ATOM      1  C   UNL     1      11.747  -7.706 -37.126  0.00  0.00    +0.020 A 
ATOM      2  C   UNL     1      11.149  -8.290 -38.305  0.00  0.00    +0.013 A 
ATOM      3  C   UNL     1       9.725  -8.594 -38.346  0.00  0.00    +0.019 A 
ATOM     38  C   UNL     1       8.926  -8.293 -37.167  0.00  0.00    +0.120 A 
ATOM     39  N   UNL     1       9.529  -7.732 -36.045  0.00  0.00    -0.263 NA
ATOM     40  C   UNL     1      10.899  -7.437 -35.994  0.00  0.00    +0.111 A 
ENDBRANCH   4   3
ENDBRANCH  10   9
BRANCH  12  13
ATOM     13  N   UNL     1       5.035  -7.992 -46.337  0.00  0.00    -0.281 N 
ATOM     14  C   UNL     1       3.771  -8.387 -45.929  0.00  0.00    +0.248 C 
ATOM     30  O   UNL     1       3.542  -9.381 -45.255  0.00  0.00    -0.270 OA
ATOM     31  H   UNL     1       5.068  -7.264 -47.050  0.00  0.00    +0.155 HD
BRANCH  14  15
ATOM     15  C   UNL     1       2.591  -7.569 -46.340  0.00  0.00    +0.037 A 
ATOM     16  C   UNL     1       2.161  -7.504 -47.739  0.00  0.00    +0.013 A 
ATOM     17  C   UNL     1       1.029  -6.693 -48.112  0.00  0.00    +0.005 A 
ATOM     18  C   UNL     1       0.317  -5.941 -47.081  0.00  0.00    -0.033 A 
ATOM     28  C   UNL     1       0.761  -6.028 -45.700  0.00  0.00    +0.005 A 
ATOM     29  C   UNL     1       1.871  -6.821 -45.331  0.00  0.00    +0.013 A 
BRANCH  18  19
ATOM     19  C   UNL     1      -0.889  -5.034 -47.391  0.00  0.00    +0.119 C 
BRANCH  19  20
ATOM     20  N   UNL     1      -1.643  -5.305 -48.651  0.00  0.00    -0.302 NA
ATOM     21  C   UNL     1      -2.143  -4.017 -49.310  0.00  0.00    +0.066 C 
ATOM     22  C   UNL     1      -2.910  -4.318 -50.638  0.00  0.00    -0.064 C 
ATOM     23  N   UNL     1      -4.076  -5.264 -50.347  0.00  0.00    +0.379 N 
ATOM     24  C   UNL     1      -4.835  -5.504 -51.584  0.00  0.00    -0.096 C 
ATOM     25  H   UNL     1      -4.756  -4.752 -49.627  0.00  0.00    -0.082 HD
ATOM     26  C   UNL     1      -3.589  -6.547 -49.688  0.00  0.00    -0.064 C 
ATOM     27  C   UNL     1      -2.802  -6.235 -48.385  0.00  0.00    +0.066 C 
ENDBRANCH  19  20
ENDBRANCH  18  19
ENDBRANCH  14  15
ENDBRANCH  12  13
TORSDOF 6
ENDMDL
MODEL 3
REMARK VINA RESULT:      -7.7     28.363     33.233
REMARK  Name = C:\Users\Docking\Desktop\test protocol\1iep_ligandH.pdb
REMARK  8 active torsions:
REMARK  status: ('A' for Active; 'I' for Inactive)
REMARK    1  A    between atoms: _5  and  _11
REMARK    2  A    between atoms: _19  and  _21
REMARK    3  A    between atoms: _22  and  _66
REMARK    4  A    between atoms: _27  and  _30
REMARK    5  A    between atoms: _32  and  _33
REMARK    6  A    between atoms: _38  and  _43
REMARK    7  A    between atoms: _43  and  _46
REMARK    8  A    between atoms: _53  and  _55
REMARK                            x       y       z     vdW  Elec       q    Type
REMARK                         _______ _______ _______ _____ _____    ______ ____
ROOT
ATOM     10  C   UNL     1       9.256  -8.591 -42.886  0.00  0.00    +0.038 A 
ATOM     11  C   UNL     1       7.905  -8.479 -43.300  0.00  0.00    +0.047 A 
ATOM     12  C   UNL     1       7.464  -9.007 -44.582  0.00  0.00    +0.035 A 
ATOM     32  C   UNL     1       8.427  -9.646 -45.417  0.00  0.00    +0.024 A 
ATOM     33  C   UNL     1       9.806  -9.767 -45.012  0.00  0.00    +0.007 A 
ATOM     34  C   UNL     1      10.246  -9.246 -43.749  0.00  0.00    -0.029 A 
ATOM     35  C   UNL     1      11.738  -9.399 -43.370  0.00  0.00    +0.045 C 
ENDROOT
BRANCH  10   9
ATOM      4  C   UNL     1       9.461  -8.799 -38.095  0.00  0.00    +0.077 A 
ATOM      5  C   UNL     1       8.751 -10.045 -38.060  0.00  0.00    +0.048 A 
ATOM      6  C   UNL     1       8.344 -10.596 -39.296  0.00  0.00    +0.116 A 
ATOM      7  N   UNL     1       8.632  -9.940 -40.474  0.00  0.00    -0.223 NA
ATOM      8  C   UNL     1       9.317  -8.739 -40.472  0.00  0.00    +0.220 A 
ATOM      9  N   UNL     1       9.624  -8.066 -41.645  0.00  0.00    -0.283 N 
ATOM     36  H   UNL     1      10.124  -7.179 -41.601  0.00  0.00    +0.155 HD
ATOM     37  N   UNL     1       9.715  -8.192 -39.305  0.00  0.00    -0.214 NA
BRANCH   4   3
ATOM      1  C   UNL     1       9.667  -7.201 -34.531  0.00  0.00    +0.020 A 
ATOM      2  C   UNL     1       9.137  -7.888 -35.686  0.00  0.00    +0.013 A 
ATOM      3  C   UNL     1       9.959  -8.093 -36.872  0.00  0.00    +0.019 A 
ATOM     38  C   UNL     1      11.323  -7.586 -36.857  0.00  0.00    +0.120 A 
ATOM     39  N   UNL     1      11.805  -6.926 -35.731  0.00  0.00    -0.263 NA
ATOM     40  C   UNL     1      11.023  -6.722 -34.585  0.00  0.00    +0.111 A 
ENDBRANCH   4   3
ENDBRANCH  10   9
BRANCH  12  13
ATOM     13  N   UNL     1       6.107  -8.915 -45.060  0.00  0.00    -0.281 N 
ATOM     14  C   UNL     1       5.113  -8.045 -44.641  0.00  0.00    +0.248 C 
ATOM     30  O   UNL     1       5.180  -7.352 -43.636  0.00  0.00    -0.270 OA
ATOM     31  H   UNL     1       5.846  -9.572 -45.796  0.00  0.00    +0.155 HD
BRANCH  14  15
ATOM     15  C   UNL     1       3.858  -7.941 -45.446  0.00  0.00    +0.037 A 
ATOM     16  C   UNL     1       2.814  -6.971 -45.103  0.00  0.00    +0.013 A 
ATOM     17  C   UNL     1       1.606  -6.903 -45.886  0.00  0.00    +0.005 A 
ATOM     18  C   UNL     1       1.436  -7.807 -47.021  0.00  0.00    -0.033 A 
ATOM     28  C   UNL     1       2.490  -8.756 -47.341  0.00  0.00    +0.005 A 
ATOM     29  C   UNL     1       3.675  -8.826 -46.576  0.00  0.00    +0.013 A 
BRANCH  18  19
ATOM     19  C   UNL     1       0.170  -7.819 -47.899  0.00  0.00    +0.119 C 
BRANCH  19  20
ATOM     20  N   UNL     1      -0.387  -6.497 -48.312  0.00  0.00    -0.302 NA
ATOM     21  C   UNL     1      -1.730  -6.203 -47.637  0.00  0.00    +0.066 C 
ATOM     22  C   UNL     1      -2.287  -4.806 -48.064  0.00  0.00    -0.064 C 
ATOM     23  N   UNL     1      -2.425  -4.758 -49.587  0.00  0.00    +0.379 N 
ATOM     24  C   UNL     1      -3.003  -3.467 -49.987  0.00  0.00    -0.096 C 
ATOM     25  H   UNL     1      -3.141  -5.557 -49.887  0.00  0.00    -0.082 HD
ATOM     26  C   UNL     1      -1.095  -5.052 -50.266  0.00  0.00    -0.064 C 
ATOM     27  C   UNL     1      -0.535  -6.429 -49.812  0.00  0.00    +0.066 C 
ENDBRANCH  19  20
ENDBRANCH  18  19
ENDBRANCH  14  15
ENDBRANCH  12  13
TORSDOF 6
ENDMDL
MODEL 4
REMARK VINA RESULT:      -7.3     35.473     39.665
REMARK  Name = C:\Users\Docking\Desktop\test protocol\1iep_ligandH.pdb
REMARK  8 active torsions:
REMARK  status: ('A' for Active; 'I' for Inactive)
REMARK    1  A    between atoms: _5  and  _11
REMARK    2  A    between atoms: _19  and  _21
REMARK    3  A    between atoms: _22  and  _66
REMARK    4  A    between atoms: _27  and  _30
REMARK    5  A    between atoms: _32  and  _33
REMARK    6  A    between atoms: _38  and  _43
REMARK    7  A    between atoms: _43  and  _46
REMARK    8  A    between atoms: _53  and  _55
REMARK                            x       y       z     vdW  Elec       q    Type
REMARK                         _______ _______ _______ _____ _____    ______ ____
ROOT
ATOM     10  C   UNL     1     -12.390  16.084 -37.882  0.00  0.00    +0.038 A 
ATOM     11  C   UNL     1     -13.088  15.159 -38.699  0.00  0.00    +0.047 A 
ATOM     12  C   UNL     1     -14.057  14.235 -38.132  0.00  0.00    +0.035 A 
ATOM     32  C   UNL     1     -14.293  14.282 -36.727  0.00  0.00    +0.024 A 
ATOM     33  C   UNL     1     -13.591  15.215 -35.881  0.00  0.00    +0.007 A 
ATOM     34  C   UNL     1     -12.633  16.128 -36.435  0.00  0.00    -0.029 A 
ATOM     35  C   UNL     1     -11.906  17.102 -35.479  0.00  0.00    +0.045 C 
ENDROOT
BRANCH  10   9
ATOM      4  C   UNL     1     -11.304  20.012 -40.418  0.00  0.00    +0.077 A 
ATOM      5  C   UNL     1     -12.686  20.355 -40.590  0.00  0.00    +0.048 A 
ATOM      6  C   UNL     1     -13.646  19.491 -40.015  0.00  0.00    +0.116 A 
ATOM      7  N   UNL     1     -13.241  18.370 -39.323  0.00  0.00    -0.223 NA
ATOM      8  C   UNL     1     -11.900  18.067 -39.178  0.00  0.00    +0.220 A 
ATOM      9  N   UNL     1     -11.471  16.949 -38.480  0.00  0.00    -0.283 N 
ATOM     36  H   UNL     1     -10.473  16.756 -38.402  0.00  0.00    +0.155 HD
ATOM     37  N   UNL     1     -10.965  18.875 -39.719  0.00  0.00    -0.214 NA
BRANCH   4   3
ATOM      1  C   UNL     1      -7.816  21.087 -41.824  0.00  0.00    +0.020 A 
ATOM      2  C   UNL     1      -8.875  20.256 -41.300  0.00  0.00    +0.013 A 
ATOM      3  C   UNL     1     -10.173  20.827 -40.964  0.00  0.00    +0.019 A 
ATOM     38  C   UNL     1     -10.368  22.254 -41.172  0.00  0.00    +0.120 A 
ATOM     39  N   UNL     1      -9.330  23.029 -41.677  0.00  0.00    -0.263 NA
ATOM     40  C   UNL     1      -8.076  22.491 -42.002  0.00  0.00    +0.111 A 
ENDBRANCH   4   3
ENDBRANCH  10   9
BRANCH  12  13
ATOM     13  N   UNL     1     -14.790  13.268 -38.911  0.00  0.00    -0.281 N 
ATOM     14  C   UNL     1     -16.084  13.369 -39.396  0.00  0.00    +0.248 C 
ATOM     30  O   UNL     1     -16.887  14.223 -39.049  0.00  0.00    -0.270 OA
ATOM     31  H   UNL     1     -14.295  12.404 -39.132  0.00  0.00    +0.155 HD
BRANCH  14  15
ATOM     15  C   UNL     1     -16.559  12.369 -40.400  0.00  0.00    +0.037 A 
ATOM     16  C   UNL     1     -15.613  11.563 -41.176  0.00  0.00    +0.013 A 
ATOM     17  C   UNL     1     -16.098  10.618 -42.150  0.00  0.00    +0.005 A 
ATOM     18  C   UNL     1     -17.538  10.472 -42.352  0.00  0.00    -0.033 A 
ATOM     28  C   UNL     1     -18.454  11.280 -41.564  0.00  0.00    +0.005 A 
ATOM     29  C   UNL     1     -17.982  12.209 -40.609  0.00  0.00    +0.013 A 
BRANCH  18  19
ATOM     19  C   UNL     1     -18.143   9.503 -43.385  0.00  0.00    +0.119 C 
BRANCH  19  20
ATOM     20  N   UNL     1     -18.754  10.103 -44.609  0.00  0.00    -0.302 NA
ATOM     21  C   UNL     1     -19.084   9.044 -45.664  0.00  0.00    +0.066 C 
ATOM     22  C   UNL     1     -19.743   9.685 -46.928  0.00  0.00    -0.064 C 
ATOM     23  N   UNL     1     -18.806  10.749 -47.504  0.00  0.00    +0.379 N 
ATOM     24  C   UNL     1     -19.396  11.314 -48.726  0.00  0.00    -0.096 C 
ATOM     25  H   UNL     1     -17.855  10.242 -47.790  0.00  0.00    -0.082 HD
ATOM     26  C   UNL     1     -18.470  11.805 -46.460  0.00  0.00    -0.064 C 
ATOM     27  C   UNL     1     -17.843  11.153 -45.196  0.00  0.00    +0.066 C 
ENDBRANCH  19  20
ENDBRANCH  18  19
ENDBRANCH  14  15
ENDBRANCH  12  13
TORSDOF 6
ENDMDL
MODEL 5
REMARK VINA RESULT:      -7.0     17.025     19.281
REMARK  Name = C:\Users\Docking\Desktop\test protocol\1iep_ligandH.pdb
REMARK  8 active torsions:
REMARK  status: ('A' for Active; 'I' for Inactive)
REMARK    1  A    between atoms: _5  and  _11
REMARK    2  A    between atoms: _19  and  _21
REMARK    3  A    between atoms: _22  and  _66
REMARK    4  A    between atoms: _27  and  _30
REMARK    5  A    between atoms: _32  and  _33
REMARK    6  A    between atoms: _38  and  _43
REMARK    7  A    between atoms: _43  and  _46
REMARK    8  A    between atoms: _53  and  _55
REMARK                            x       y       z     vdW  Elec       q    Type
REMARK                         _______ _______ _______ _____ _____    ______ ____
ROOT
ATOM     10  C   UNL     1      13.745  12.249 -24.660  0.00  0.00    +0.038 A 
ATOM     11  C   UNL     1      12.533  12.068 -25.374  0.00  0.00    +0.047 A 
ATOM     12  C   UNL     1      11.352  12.859 -25.065  0.00  0.00    +0.035 A 
ATOM     32  C   UNL     1      11.442  13.828 -24.023  0.00  0.00    +0.024 A 
ATOM     33  C   UNL     1      12.665  14.024 -23.286  0.00  0.00    +0.007 A 
ATOM     34  C   UNL     1      13.833  13.245 -23.585  0.00  0.00    -0.029 A 
ATOM     35  C   UNL     1      15.115  13.493 -22.757  0.00  0.00    +0.045 C 
ENDROOT
BRANCH  10   9
ATOM      4  C   UNL     1      17.595  11.297 -27.364  0.00  0.00    +0.077 A 
ATOM      5  C   UNL     1      17.374  12.449 -28.189  0.00  0.00    +0.048 A 
ATOM      6  C   UNL     1      16.254  13.258 -27.888  0.00  0.00    +0.116 A 
ATOM      7  N   UNL     1      15.425  12.928 -26.838  0.00  0.00    -0.223 NA
ATOM      8  C   UNL     1      15.665  11.808 -26.064  0.00  0.00    +0.220 A 
ATOM      9  N   UNL     1      14.848  11.462 -24.998  0.00  0.00    -0.283 N 
ATOM     36  H   UNL     1      15.055  10.624 -24.456  0.00  0.00    +0.155 HD
ATOM     37  N   UNL     1      16.727  11.020 -26.331  0.00  0.00    -0.214 NA
BRANCH   4   3
ATOM      1  C   UNL     1      21.121   9.815 -28.180  0.00  0.00    +0.020 A 
ATOM      2  C   UNL     1      20.052  10.772 -28.014  0.00  0.00    +0.013 A 
ATOM      3  C   UNL     1      18.736  10.347 -27.553  0.00  0.00    +0.019 A 
ATOM     38  C   UNL     1      18.534   8.935 -27.267  0.00  0.00    +0.120 A 
ATOM     39  N   UNL     1      19.582   8.036 -27.437  0.00  0.00    -0.263 NA
ATOM     40  C   UNL     1      20.852   8.433 -27.882  0.00  0.00    +0.111 A 
ENDBRANCH   4   3
ENDBRANCH  10   9
BRANCH  12  13
ATOM     13  N   UNL     1      10.092  12.715 -25.751  0.00  0.00    -0.281 N 
ATOM     14  C   UNL     1       9.045  11.864 -25.438  0.00  0.00    +0.248 C 
ATOM     30  O   UNL     1       9.119  10.941 -24.640  0.00  0.00    -0.270 OA
ATOM     31  H   UNL     1       9.956  13.311 -26.567  0.00  0.00    +0.155 HD
BRANCH  14  15
ATOM     15  C   UNL     1       7.729  12.058 -26.119  0.00  0.00    +0.037 A 
ATOM     16  C   UNL     1       7.567  11.789 -27.550  0.00  0.00    +0.013 A 
ATOM     17  C   UNL     1       6.291  12.001 -28.186  0.00  0.00    +0.005 A 
ATOM     18  C   UNL     1       5.165  12.483 -27.389  0.00  0.00    -0.033 A 
ATOM     28  C   UNL     1       5.352  12.737 -25.970  0.00  0.00    +0.005 A 
ATOM     29  C   UNL     1       6.602  12.532 -25.344  0.00  0.00    +0.013 A 
BRANCH  18  19
ATOM     19  C   UNL     1       3.773  12.757 -27.989  0.00  0.00    +0.119 C 
BRANCH  19  20
ATOM     20  N   UNL     1       2.778  13.452 -27.118  0.00  0.00    -0.302 NA
ATOM     21  C   UNL     1       1.746  12.481 -26.538  0.00  0.00    +0.066 C 
ATOM     22  C   UNL     1       0.726  13.221 -25.611  0.00  0.00    -0.064 C 
ATOM     23  N   UNL     1       0.038  14.335 -26.402  0.00  0.00    +0.379 N 
ATOM     24  C   UNL     1      -0.963  14.994 -25.551  0.00  0.00    -0.096 C 
ATOM     25  H   UNL     1      -0.502  13.860 -27.254  0.00  0.00    -0.082 HD
ATOM     26  C   UNL     1       1.058  15.303 -26.985  0.00  0.00    -0.064 C 
ATOM     27  C   UNL     1       2.083  14.553 -27.880  0.00  0.00    +0.066 C 
ENDBRANCH  19  20
ENDBRANCH  18  19
ENDBRANCH  14  15
ENDBRANCH  12  13
TORSDOF 6
ENDMDL
