MODEL 1
REMARK VINA RESULT:      -9.8      0.000      0.000
REMARK  Name = C:\Users\Docking\Desktop\test protocol\1iep_ligandH.pdb
REMARK  8 active torsions:
REMARK  status: ('A' for Active; 'I' for Inactive)
REMARK    1  A    between atoms: _5  and  _11
REMARK    2  A    between atoms: _19  and  _21
REMARK    3  A    between atoms: _22  and  _66
REMARK    4  A    between atoms: _27  and  _30
REMARK    5  A    between atoms: _32  and  _33
REMARK    6  A    between atoms: _38  and  _43
REMARK    7  A    between atoms: _43  and  _46
REMARK    8  A    between atoms: _53  and  _55
REMARK                            x       y       z     vdW  Elec       q    Type
REMARK                         _______ _______ _______ _____ _____    ______ ____
ROOT
ATOM     10  C   UNL     1      31.351  15.386  16.429  0.00  0.00    +0.038 A 
ATOM     11  C   UNL     1      30.609  16.492  15.941  0.00  0.00    +0.047 A 
ATOM     12  C   UNL     1      30.814  16.999  14.593  0.00  0.00    +0.035 A 
ATOM     32  C   UNL     1      31.781  16.355  13.768  0.00  0.00    +0.024 A 
ATOM     33  C   UNL     1      32.545  15.230  14.249  0.00  0.00    +0.007 A 
ATOM     34  C   UNL     1      32.349  14.727  15.578  0.00  0.00    -0.029 A 
ATOM     35  C   UNL     1      33.201  13.523  16.043  0.00  0.00    +0.045 C 
ENDROOT
BRANCH  10   9
ATOM      4  C   UNL     1      31.297  16.042  21.184  0.00  0.00    +0.077 A 
ATOM      5  C   UNL     1      31.810  17.376  21.065  0.00  0.00    +0.048 A 
ATOM      6  C   UNL     1      32.081  17.854  19.763  0.00  0.00    +0.116 A 
ATOM      7  N   UNL     1      31.852  17.048  18.669  0.00  0.00    -0.223 NA
ATOM      8  C   UNL     1      31.359  15.765  18.818  0.00  0.00    +0.220 A 
ATOM      9  N   UNL     1      31.114  14.940  17.731  0.00  0.00    -0.283 N 
ATOM     36  H   UNL     1      30.757  13.998  17.884  0.00  0.00    +0.155 HD
ATOM     37  N   UNL     1      31.093  15.285  20.051  0.00  0.00    -0.214 NA
BRANCH   4   3
ATOM      1  C   UNL     1      29.841  15.380  24.753  0.00  0.00    +0.020 A 
ATOM      2  C   UNL     1      30.140  16.047  23.507  0.00  0.00    +0.013 A 
ATOM      3  C   UNL     1      30.958  15.397  22.491  0.00  0.00    +0.019 A 
ATOM     38  C   UNL     1      31.462  14.060  22.769  0.00  0.00    +0.120 A 
ATOM     39  N   UNL     1      31.159  13.443  23.979  0.00  0.00    -0.263 NA
ATOM     40  C   UNL     1      30.375  14.060  24.965  0.00  0.00    +0.111 A 
ENDBRANCH   4   3
ENDBRANCH  10   9
BRANCH  12  13
ATOM     13  N   UNL     1      30.095  18.123  14.046  0.00  0.00    -0.281 N 
ATOM     14  C   UNL     1      28.982  18.103  13.221  0.00  0.00    +0.248 C 
ATOM     30  O   UNL     1      28.561  17.106  12.653  0.00  0.00    -0.270 OA
ATOM     31  H   UNL     1      30.451  19.046  14.296  0.00  0.00    +0.155 HD
BRANCH  14  15
ATOM     15  C   UNL     1      28.238  19.377  12.982  0.00  0.00    +0.037 A 
ATOM     16  C   UNL     1      28.867  20.507  12.294  0.00  0.00    +0.013 A 
ATOM     17  C   UNL     1      28.132  21.730  12.091  0.00  0.00    +0.005 A 
ATOM     18  C   UNL     1      26.757  21.829  12.576  0.00  0.00    -0.033 A 
ATOM     28  C   UNL     1      26.156  20.690  13.250  0.00  0.00    +0.005 A 
ATOM     29  C   UNL     1      26.873  19.490  13.452  0.00  0.00    +0.013 A 
BRANCH  18  19
ATOM     19  C   UNL     1      25.905  23.102  12.422  0.00  0.00    +0.119 C 
BRANCH  19  20
ATOM     20  N   UNL     1      26.286  24.284  13.251  0.00  0.00    -0.302 NA
ATOM     21  C   UNL     1      27.504  25.017  12.682  0.00  0.00    +0.066 C 
ATOM     22  C   UNL     1      27.875  26.264  13.550  0.00  0.00    -0.064 C 
ATOM     23  N   UNL     1      28.134  25.820  14.990  0.00  0.00    +0.379 N 
ATOM     24  C   UNL     1      28.540  26.981  15.796  0.00  0.00    -0.096 C 
ATOM     25  H   UNL     1      28.989  25.104  14.975  0.00  0.00    -0.082 HD
ATOM     26  C   UNL     1      26.929  25.088  15.563  0.00  0.00    -0.064 C 
ATOM     27  C   UNL     1      26.551  23.868  14.677  0.00  0.00    +0.066 C 
ENDBRANCH  19  20
ENDBRANCH  18  19
ENDBRANCH  14  15
ENDBRANCH  12  13
TORSDOF 6
ENDMDL
MODEL 2
REMARK VINA RESULT:      -9.6      1.959      2.511
REMARK  Name = C:\Users\Docking\Desktop\test protocol\1iep_ligandH.pdb
REMARK  8 active torsions:
REMARK  status: ('A' for Active; 'I' for Inactive)
REMARK    1  A    between atoms: _5  and  _11
REMARK    2  A    between atoms: _19  and  _21
REMARK    3  A    between atoms: _22  and  _66
REMARK    4  A    between atoms: _27  and  _30
REMARK    5  A    between atoms: _32  and  _33
REMARK    6  A    between atoms: _38  and  _43
REMARK    7  A    between atoms: _43  and  _46
REMARK    8  A    between atoms: _53  and  _55
REMARK                            x       y       z     vdW  Elec       q    Type
REMARK                         _______ _______ _______ _____ _____    ______ ____
ROOT
ATOM     10  C   UNL     1      32.118  15.497  17.399  0.00  0.00    +0.038 A 
ATOM     11  C   UNL     1      31.100  16.353  16.909  0.00  0.00    +0.047 A 
ATOM     12  C   UNL     1      31.193  16.953  15.587  0.00  0.00    +0.035 A 
ATOM     32  C   UNL     1      32.337  16.657  14.790  0.00  0.00    +0.024 A 
ATOM     33  C   UNL     1      33.382  15.789  15.273  0.00  0.00    +0.007 A 
ATOM     34  C   UNL     1      33.297  15.196  16.577  0.00  0.00    -0.029 A 
ATOM     35  C   UNL     1      34.450  14.279  17.046  0.00  0.00    +0.045 C 
ENDROOT
BRANCH  10   9
ATOM      4  C   UNL     1      31.662  15.914  22.159  0.00  0.00    +0.077 A 
ATOM      5  C   UNL     1      31.738  17.346  22.100  0.00  0.00    +0.048 A 
ATOM      6  C   UNL     1      31.902  17.935  20.826  0.00  0.00    +0.116 A 
ATOM      7  N   UNL     1      31.982  17.142  19.702  0.00  0.00    -0.223 NA
ATOM      8  C   UNL     1      31.907  15.764  19.794  0.00  0.00    +0.220 A 
ATOM      9  N   UNL     1      31.977  14.948  18.676  0.00  0.00    -0.283 N 
ATOM     36  H   UNL     1      31.925  13.936  18.787  0.00  0.00    +0.155 HD
ATOM     37  N   UNL     1      31.752  15.177  20.999  0.00  0.00    -0.214 NA
BRANCH   4   3
ATOM      1  C   UNL     1      30.145  14.429  25.444  0.00  0.00    +0.020 A 
ATOM      2  C   UNL     1      30.264  15.193  24.224  0.00  0.00    +0.013 A 
ATOM      3  C   UNL     1      31.486  15.144  23.431  0.00  0.00    +0.019 A 
ATOM     38  C   UNL     1      32.578  14.307  23.905  0.00  0.00    +0.120 A 
ATOM     39  N   UNL     1      32.435  13.584  25.085  0.00  0.00    -0.263 NA
ATOM     40  C   UNL     1      31.264  13.624  25.857  0.00  0.00    +0.111 A 
ENDBRANCH   4   3
ENDBRANCH  10   9
BRANCH  12  13
ATOM     13  N   UNL     1      30.195  17.837  15.038  0.00  0.00    -0.281 N 
ATOM     14  C   UNL     1      29.816  19.086  15.502  0.00  0.00    +0.248 C 
ATOM     30  O   UNL     1      30.132  19.544  16.590  0.00  0.00    -0.270 OA
ATOM     31  H   UNL     1      29.708  17.501  14.208  0.00  0.00    +0.155 HD
BRANCH  14  15
ATOM     15  C   UNL     1      28.950  19.945  14.638  0.00  0.00    +0.037 A 
ATOM     16  C   UNL     1      28.562  19.521  13.291  0.00  0.00    +0.013 A 
ATOM     17  C   UNL     1      27.740  20.376  12.472  0.00  0.00    +0.005 A 
ATOM     18  C   UNL     1      27.299  21.665  13.000  0.00  0.00    -0.033 A 
ATOM     28  C   UNL     1      27.695  22.059  14.341  0.00  0.00    +0.005 A 
ATOM     29  C   UNL     1      28.502  21.224  15.147  0.00  0.00    +0.013 A 
BRANCH  18  19
ATOM     19  C   UNL     1      26.438  22.651  12.188  0.00  0.00    +0.119 C 
BRANCH  19  20
ATOM     20  N   UNL     1      27.153  23.592  11.275  0.00  0.00    -0.302 NA
ATOM     21  C   UNL     1      27.688  24.818  12.019  0.00  0.00    +0.066 C 
ATOM     22  C   UNL     1      28.453  25.781  11.052  0.00  0.00    -0.064 C 
ATOM     23  N   UNL     1      27.521  26.202   9.914  0.00  0.00    +0.379 N 
ATOM     24  C   UNL     1      28.218  27.153   9.036  0.00  0.00    -0.096 C 
ATOM     25  H   UNL     1      26.653  26.734  10.367  0.00  0.00    -0.082 HD
ATOM     26  C   UNL     1      26.982  24.988   9.171  0.00  0.00    -0.064 C 
ATOM     27  C   UNL     1      26.250  24.023  10.146  0.00  0.00    +0.066 C 
ENDBRANCH  19  20
ENDBRANCH  18  19
ENDBRANCH  14  15
ENDBRANCH  12  13
TORSDOF 6
ENDMDL
MODEL 3
REMARK VINA RESULT:      -9.3      5.728     14.297
REMARK  Name = C:\Users\Docking\Desktop\test protocol\1iep_ligandH.pdb
REMARK  8 active torsions:
REMARK  status: ('A' for Active; 'I' for Inactive)
REMARK    1  A    between atoms: _5  and  _11
REMARK    2  A    between atoms: _19  and  _21
REMARK    3  A    between atoms: _22  and  _66
REMARK    4  A    between atoms: _27  and  _30
REMARK    5  A    between atoms: _32  and  _33
REMARK    6  A    between atoms: _38  and  _43
REMARK    7  A    between atoms: _43  and  _46
REMARK    8  A    between atoms: _53  and  _55
REMARK                            x       y       z     vdW  Elec       q    Type
REMARK                         _______ _______ _______ _____ _____    ______ ____
ROOT
ATOM     10  C   UNL     1      29.834  16.522  21.772  0.00  0.00    +0.038 A 
ATOM     11  C   UNL     1      30.884  15.606  21.506  0.00  0.00    +0.047 A 
ATOM     12  C   UNL     1      31.398  14.728  22.545  0.00  0.00    +0.035 A 
ATOM     32  C   UNL     1      30.818  14.807  23.845  0.00  0.00    +0.024 A 
ATOM     33  C   UNL     1      29.751  15.733  24.133  0.00  0.00    +0.007 A 
ATOM     34  C   UNL     1      29.241  16.604  23.112  0.00  0.00    -0.029 A 
ATOM     35  C   UNL     1      28.101  17.581  23.479  0.00  0.00    +0.045 C 
ENDROOT
BRANCH  10   9
ATOM      4  C   UNL     1      30.551  19.810  18.350  0.00  0.00    +0.077 A 
ATOM      5  C   UNL     1      31.945  19.926  18.670  0.00  0.00    +0.048 A 
ATOM      6  C   UNL     1      32.436  19.127  19.727  0.00  0.00    +0.116 A 
ATOM      7  N   UNL     1      31.588  18.279  20.406  0.00  0.00    -0.223 NA
ATOM      8  C   UNL     1      30.249  18.193  20.072  0.00  0.00    +0.220 A 
ATOM      9  N   UNL     1      29.379  17.341  20.736  0.00  0.00    -0.283 N 
ATOM     36  H   UNL     1      28.397  17.312  20.465  0.00  0.00    +0.155 HD
ATOM     37  N   UNL     1      29.755  18.947  19.068  0.00  0.00    -0.214 NA
BRANCH   4   3
ATOM      1  C   UNL     1      28.727  20.758  15.022  0.00  0.00    +0.020 A 
ATOM      2  C   UNL     1      29.363  19.963  16.047  0.00  0.00    +0.013 A 
ATOM      3  C   UNL     1      29.884  20.586  17.257  0.00  0.00    +0.019 A 
ATOM     38  C   UNL     1      29.743  22.028  17.401  0.00  0.00    +0.120 A 
ATOM     39  N   UNL     1      29.127  22.768  16.396  0.00  0.00    -0.263 NA
ATOM     40  C   UNL     1      28.624  22.179  15.227  0.00  0.00    +0.111 A 
ENDBRANCH   4   3
ENDBRANCH  10   9
BRANCH  12  13
ATOM     13  N   UNL     1      32.468  13.784  22.336  0.00  0.00    -0.281 N 
ATOM     14  C   UNL     1      33.461  13.411  23.227  0.00  0.00    +0.248 C 
ATOM     30  O   UNL     1      33.708  13.996  24.272  0.00  0.00    -0.270 OA
ATOM     31  H   UNL     1      32.496  13.336  21.421  0.00  0.00    +0.155 HD
BRANCH  14  15
ATOM     15  C   UNL     1      34.313  12.227  22.904  0.00  0.00    +0.037 A 
ATOM     16  C   UNL     1      34.482  11.766  21.524  0.00  0.00    +0.013 A 
ATOM     17  C   UNL     1      35.296  10.610  21.242  0.00  0.00    +0.005 A 
ATOM     18  C   UNL     1      35.949   9.908  22.344  0.00  0.00    -0.033 A 
ATOM     28  C   UNL     1      35.769  10.390  23.703  0.00  0.00    +0.005 A 
ATOM     29  C   UNL     1      34.971  11.521  23.984  0.00  0.00    +0.013 A 
BRANCH  18  19
ATOM     19  C   UNL     1      36.819   8.653  22.138  0.00  0.00    +0.119 C 
BRANCH  19  20
ATOM     20  N   UNL     1      36.632   7.526  23.100  0.00  0.00    -0.302 NA
ATOM     21  C   UNL     1      37.953   7.094  23.743  0.00  0.00    +0.066 C 
ATOM     22  C   UNL     1      37.736   5.930  24.763  0.00  0.00    -0.064 C 
ATOM     23  N   UNL     1      37.069   4.751  24.052  0.00  0.00    +0.379 N 
ATOM     24  C   UNL     1      36.916   3.633  24.995  0.00  0.00    -0.096 C 
ATOM     25  H   UNL     1      37.752   4.416  23.238  0.00  0.00    -0.082 HD
ATOM     26  C   UNL     1      35.755   5.173  23.409  0.00  0.00    -0.064 C 
ATOM     27  C   UNL     1      35.978   6.350  22.419  0.00  0.00    +0.066 C 
ENDBRANCH  19  20
ENDBRANCH  18  19
ENDBRANCH  14  15
ENDBRANCH  12  13
TORSDOF 6
ENDMDL
MODEL 4
REMARK VINA RESULT:      -9.2      3.135      6.420
REMARK  Name = C:\Users\Docking\Desktop\test protocol\1iep_ligandH.pdb
REMARK  8 active torsions:
REMARK  status: ('A' for Active; 'I' for Inactive)
REMARK    1  A    between atoms: _5  and  _11
REMARK    2  A    between atoms: _19  and  _21
REMARK    3  A    between atoms: _22  and  _66
REMARK    4  A    between atoms: _27  and  _30
REMARK    5  A    between atoms: _32  and  _33
REMARK    6  A    between atoms: _38  and  _43
REMARK    7  A    between atoms: _43  and  _46
REMARK    8  A    between atoms: _53  and  _55
REMARK                            x       y       z     vdW  Elec       q    Type
REMARK                         _______ _______ _______ _____ _____    ______ ____
ROOT
ATOM     10  C   UNL     1      31.397  15.073  18.836  0.00  0.00    +0.038 A 
ATOM     11  C   UNL     1      30.811  16.275  18.364  0.00  0.00    +0.047 A 
ATOM     12  C   UNL     1      30.153  17.200  19.275  0.00  0.00    +0.035 A 
ATOM     32  C   UNL     1      30.113  16.869  20.661  0.00  0.00    +0.024 A 
ATOM     33  C   UNL     1      30.702  15.651  21.157  0.00  0.00    +0.007 A 
ATOM     34  C   UNL     1      31.350  14.734  20.264  0.00  0.00    -0.029 A 
ATOM     35  C   UNL     1      31.959  13.439  20.851  0.00  0.00    +0.045 C 
ENDROOT
BRANCH  10   9
ATOM      4  C   UNL     1      34.601  14.194  15.372  0.00  0.00    +0.077 A 
ATOM      5  C   UNL     1      35.063  15.553  15.374  0.00  0.00    +0.048 A 
ATOM      6  C   UNL     1      34.445  16.447  16.276  0.00  0.00    +0.116 A 
ATOM      7  N   UNL     1      33.441  16.006  17.110  0.00  0.00    -0.223 NA
ATOM      8  C   UNL     1      33.018  14.690  17.082  0.00  0.00    +0.220 A 
ATOM      9  N   UNL     1      32.016  14.222  17.918  0.00  0.00    -0.283 N 
ATOM     36  H   UNL     1      31.727  13.245  17.862  0.00  0.00    +0.155 HD
ATOM     37  N   UNL     1      33.592  13.816  16.229  0.00  0.00    -0.214 NA
BRANCH   4   3
ATOM      1  C   UNL     1      37.014  11.611  13.698  0.00  0.00    +0.020 A 
ATOM      2  C   UNL     1      36.527  12.641  14.586  0.00  0.00    +0.013 A 
ATOM      3  C   UNL     1      35.158  13.130  14.479  0.00  0.00    +0.019 A 
ATOM     38  C   UNL     1      34.301  12.549  13.456  0.00  0.00    +0.120 A 
ATOM     39  N   UNL     1      34.798  11.559  12.615  0.00  0.00    -0.263 NA
ATOM     40  C   UNL     1      36.115  11.083  12.707  0.00  0.00    +0.111 A 
ENDBRANCH   4   3
ENDBRANCH  10   9
BRANCH  12  13
ATOM     13  N   UNL     1      29.534  18.432  18.852  0.00  0.00    -0.281 N 
ATOM     14  C   UNL     1      30.130  19.670  18.682  0.00  0.00    +0.248 C 
ATOM     30  O   UNL     1      31.251  19.957  19.076  0.00  0.00    -0.270 OA
ATOM     31  H   UNL     1      28.534  18.385  18.655  0.00  0.00    +0.155 HD
BRANCH  14  15
ATOM     15  C   UNL     1      29.366  20.751  17.988  0.00  0.00    +0.037 A 
ATOM     16  C   UNL     1      29.879  22.121  17.920  0.00  0.00    +0.013 A 
ATOM     17  C   UNL     1      29.114  23.148  17.259  0.00  0.00    +0.005 A 
ATOM     18  C   UNL     1      27.826  22.807  16.659  0.00  0.00    -0.033 A 
ATOM     28  C   UNL     1      27.343  21.438  16.736  0.00  0.00    +0.005 A 
ATOM     29  C   UNL     1      28.090  20.429  17.384  0.00  0.00    +0.013 A 
BRANCH  18  19
ATOM     19  C   UNL     1      26.932  23.843  15.952  0.00  0.00    +0.119 C 
BRANCH  19  20
ATOM     20  N   UNL     1      26.835  23.760  14.464  0.00  0.00    -0.302 NA
ATOM     21  C   UNL     1      28.114  24.245  13.776  0.00  0.00    +0.066 C 
ATOM     22  C   UNL     1      28.003  24.130  12.221  0.00  0.00    -0.064 C 
ATOM     23  N   UNL     1      26.793  24.931  11.738  0.00  0.00    +0.379 N 
ATOM     24  C   UNL     1      26.719  24.872  10.271  0.00  0.00    -0.096 C 
ATOM     25  H   UNL     1      26.955  25.995  12.027  0.00  0.00    -0.082 HD
ATOM     26  C   UNL     1      25.516  24.457  12.419  0.00  0.00    -0.064 C 
ATOM     27  C   UNL     1      25.648  24.548  13.965  0.00  0.00    +0.066 C 
ENDBRANCH  19  20
ENDBRANCH  18  19
ENDBRANCH  14  15
ENDBRANCH  12  13
TORSDOF 6
ENDMDL
MODEL 5
REMARK VINA RESULT:      -9.1      4.805      6.821
REMARK  Name = C:\Users\Docking\Desktop\test protocol\1iep_ligandH.pdb
REMARK  8 active torsions:
REMARK  status: ('A' for Active; 'I' for Inactive)
REMARK    1  A    between atoms: _5  and  _11
REMARK    2  A    between atoms: _19  and  _21
REMARK    3  A    between atoms: _22  and  _66
REMARK    4  A    between atoms: _27  and  _30
REMARK    5  A    between atoms: _32  and  _33
REMARK    6  A    between atoms: _38  and  _43
REMARK    7  A    between atoms: _43  and  _46
REMARK    8  A    between atoms: _53  and  _55
REMARK                            x       y       z     vdW  Elec       q    Type
REMARK                         _______ _______ _______ _____ _____    ______ ____
ROOT
ATOM     10  C   UNL     1      28.544  20.640  17.132  0.00  0.00    +0.038 A 
ATOM     11  C   UNL     1      28.675  20.171  15.800  0.00  0.00    +0.047 A 
ATOM     12  C   UNL     1      28.650  21.090  14.673  0.00  0.00    +0.035 A 
ATOM     32  C   UNL     1      28.491  22.481  14.938  0.00  0.00    +0.024 A 
ATOM     33  C   UNL     1      28.355  22.975  16.286  0.00  0.00    +0.007 A 
ATOM     34  C   UNL     1      28.377  22.073  17.402  0.00  0.00    -0.029 A 
ATOM     35  C   UNL     1      28.219  22.658  18.825  0.00  0.00    +0.045 C 
ENDROOT
BRANCH  10   9
ATOM      4  C   UNL     1      30.891  18.028  20.404  0.00  0.00    +0.077 A 
ATOM      5  C   UNL     1      32.165  18.531  19.978  0.00  0.00    +0.048 A 
ATOM      6  C   UNL     1      32.174  19.455  18.908  0.00  0.00    +0.116 A 
ATOM      7  N   UNL     1      30.990  19.840  18.317  0.00  0.00    -0.223 NA
ATOM      8  C   UNL     1      29.778  19.335  18.752  0.00  0.00    +0.220 A 
ATOM      9  N   UNL     1      28.575  19.714  18.177  0.00  0.00    -0.283 N 
ATOM     36  H   UNL     1      27.703  19.312  18.521  0.00  0.00    +0.155 HD
ATOM     37  N   UNL     1      29.744  18.450  19.770  0.00  0.00    -0.214 NA
BRANCH   4   3
ATOM      1  C   UNL     1      29.546  16.197  23.587  0.00  0.00    +0.020 A 
ATOM      2  C   UNL     1      29.670  17.171  22.528  0.00  0.00    +0.013 A 
ATOM      3  C   UNL     1      30.718  17.048  21.522  0.00  0.00    +0.019 A 
ATOM     38  C   UNL     1      31.632  15.919  21.618  0.00  0.00    +0.120 A 
ATOM     39  N   UNL     1      31.489  14.998  22.651  0.00  0.00    -0.263 NA
ATOM     40  C   UNL     1      30.485  15.106  23.625  0.00  0.00    +0.111 A 
ENDBRANCH   4   3
ENDBRANCH  10   9
BRANCH  12  13
ATOM     13  N   UNL     1      28.771  20.671  13.298  0.00  0.00    -0.281 N 
ATOM     14  C   UNL     1      28.485  21.401  12.157  0.00  0.00    +0.248 C 
ATOM     30  O   UNL     1      27.874  22.460  12.149  0.00  0.00    -0.270 OA
ATOM     31  H   UNL     1      29.109  19.720  13.149  0.00  0.00    +0.155 HD
BRANCH  14  15
ATOM     15  C   UNL     1      28.928  20.872  10.831  0.00  0.00    +0.037 A 
ATOM     16  C   UNL     1      30.087  21.438  10.136  0.00  0.00    +0.013 A 
ATOM     17  C   UNL     1      30.482  20.920   8.850  0.00  0.00    +0.005 A 
ATOM     18  C   UNL     1      29.718  19.829   8.251  0.00  0.00    -0.033 A 
ATOM     28  C   UNL     1      28.575  19.283   8.965  0.00  0.00    +0.005 A 
ATOM     29  C   UNL     1      28.184  19.788  10.225  0.00  0.00    +0.013 A 
BRANCH  18  19
ATOM     19  C   UNL     1      30.055  19.229   6.874  0.00  0.00    +0.119 C 
BRANCH  19  20
ATOM     20  N   UNL     1      29.804  20.084   5.675  0.00  0.00    -0.302 NA
ATOM     21  C   UNL     1      29.289  19.269   4.485  0.00  0.00    +0.066 C 
ATOM     22  C   UNL     1      29.010  20.182   3.248  0.00  0.00    -0.064 C 
ATOM     23  N   UNL     1      30.288  20.936   2.876  0.00  0.00    +0.379 N 
ATOM     24  C   UNL     1      30.045  21.752   1.677  0.00  0.00    -0.096 C 
ATOM     25  H   UNL     1      31.065  20.179   2.618  0.00  0.00    -0.082 HD
ATOM     26  C   UNL     1      30.808  21.748   4.054  0.00  0.00    -0.064 C 
ATOM     27  C   UNL     1      31.054  20.835   5.288  0.00  0.00    +0.066 C 
ENDBRANCH  19  20
ENDBRANCH  18  19
ENDBRANCH  14  15
ENDBRANCH  12  13
TORSDOF 6
ENDMDL
