MODEL 1
REMARK VINA RESULT:      -9.1      0.000      0.000
REMARK  Name = C:\Users\Docking\Desktop\test protocol\1iep_ligandH.pdb
REMARK  8 active torsions:
REMARK  status: ('A' for Active; 'I' for Inactive)
REMARK    1  A    between atoms: _5  and  _11
REMARK    2  A    between atoms: _19  and  _21
REMARK    3  A    between atoms: _22  and  _66
REMARK    4  A    between atoms: _27  and  _30
REMARK    5  A    between atoms: _32  and  _33
REMARK    6  A    between atoms: _38  and  _43
REMARK    7  A    between atoms: _43  and  _46
REMARK    8  A    between atoms: _53  and  _55
REMARK                            x       y       z     vdW  Elec       q    Type
REMARK                         _______ _______ _______ _____ _____    ______ ____
ROOT
ATOM     10  C   UNL     1      20.365  29.952  22.146  0.00  0.00    +0.038 A 
ATOM     11  C   UNL     1      20.788  29.968  20.792  0.00  0.00    +0.047 A 
ATOM     12  C   UNL     1      20.201  30.888  19.831  0.00  0.00    +0.035 A 
ATOM     32  C   UNL     1      19.186  31.781  20.284  0.00  0.00    +0.024 A 
ATOM     33  C   UNL     1      18.743  31.778  21.656  0.00  0.00    +0.007 A 
ATOM     34  C   UNL     1      19.318  30.871  22.608  0.00  0.00    -0.029 A 
ATOM     35  C   UNL     1      18.800  30.907  24.065  0.00  0.00    +0.045 C 
ENDROOT
BRANCH  10   9
ATOM      4  C   UNL     1      20.332  25.904  24.725  0.00  0.00    +0.077 A 
ATOM      5  C   UNL     1      19.000  25.577  24.305  0.00  0.00    +0.048 A 
ATOM      6  C   UNL     1      18.356  26.481  23.430  0.00  0.00    +0.116 A 
ATOM      7  N   UNL     1      19.005  27.623  23.013  0.00  0.00    -0.223 NA
ATOM      8  C   UNL     1      20.289  27.909  23.439  0.00  0.00    +0.220 A 
ATOM      9  N   UNL     1      20.963  29.048  23.026  0.00  0.00    -0.283 N 
ATOM     36  H   UNL     1      21.907  29.227  23.369  0.00  0.00    +0.155 HD
ATOM     37  N   UNL     1      20.925  27.063  24.276  0.00  0.00    -0.214 NA
BRANCH   4   3
ATOM      1  C   UNL     1      21.420  23.596  27.690  0.00  0.00    +0.020 A 
ATOM      2  C   UNL     1      20.591  24.414  26.835  0.00  0.00    +0.013 A 
ATOM      3  C   UNL     1      21.146  25.048  25.645  0.00  0.00    +0.019 A 
ATOM     38  C   UNL     1      22.554  24.832  25.347  0.00  0.00    +0.120 A 
ATOM     39  N   UNL     1      23.327  24.040  26.190  0.00  0.00    -0.263 NA
ATOM     40  C   UNL     1      22.805  23.427  27.338  0.00  0.00    +0.111 A 
ENDBRANCH   4   3
ENDBRANCH  10   9
BRANCH  12  13
ATOM     13  N   UNL     1      20.584  30.944  18.442  0.00  0.00    -0.281 N 
ATOM     14  C   UNL     1      21.170  31.999  17.762  0.00  0.00    +0.248 C 
ATOM     30  O   UNL     1      21.260  33.137  18.198  0.00  0.00    -0.270 OA
ATOM     31  H   UNL     1      20.401  30.104  17.893  0.00  0.00    +0.155 HD
BRANCH  14  15
ATOM     15  C   UNL     1      21.725  31.758  16.395  0.00  0.00    +0.037 A 
ATOM     16  C   UNL     1      22.874  32.517  15.897  0.00  0.00    +0.013 A 
ATOM     17  C   UNL     1      23.379  32.277  14.568  0.00  0.00    +0.005 A 
ATOM     18  C   UNL     1      22.734  31.270  13.728  0.00  0.00    -0.033 A 
ATOM     28  C   UNL     1      21.598  30.528  14.250  0.00  0.00    +0.005 A 
ATOM     29  C   UNL     1      21.101  30.761  15.552  0.00  0.00    +0.013 A 
BRANCH  18  19
ATOM     19  C   UNL     1      23.191  30.963  12.290  0.00  0.00    +0.119 C 
BRANCH  19  20
ATOM     20  N   UNL     1      23.114  32.074  11.296  0.00  0.00    -0.302 NA
ATOM     21  C   UNL     1      21.714  32.689  11.230  0.00  0.00    +0.066 C 
ATOM     22  C   UNL     1      21.656  33.865  10.201  0.00  0.00    -0.064 C 
ATOM     23  N   UNL     1      22.090  33.356   8.825  0.00  0.00    +0.379 N 
ATOM     24  C   UNL     1      21.982  34.445   7.843  0.00  0.00    -0.096 C 
ATOM     25  H   UNL     1      21.377  32.555   8.521  0.00  0.00    -0.082 HD
ATOM     26  C   UNL     1      23.480  32.740   8.882  0.00  0.00    -0.064 C 
ATOM     27  C   UNL     1      23.534  31.592   9.929  0.00  0.00    +0.066 C 
ENDBRANCH  19  20
ENDBRANCH  18  19
ENDBRANCH  14  15
ENDBRANCH  12  13
TORSDOF 6
ENDMDL
MODEL 2
REMARK VINA RESULT:      -8.7      2.054      2.897
REMARK  Name = C:\Users\Docking\Desktop\test protocol\1iep_ligandH.pdb
REMARK  8 active torsions:
REMARK  status: ('A' for Active; 'I' for Inactive)
REMARK    1  A    between atoms: _5  and  _11
REMARK    2  A    between atoms: _19  and  _21
REMARK    3  A    between atoms: _22  and  _66
REMARK    4  A    between atoms: _27  and  _30
REMARK    5  A    between atoms: _32  and  _33
REMARK    6  A    between atoms: _38  and  _43
REMARK    7  A    between atoms: _43  and  _46
REMARK    8  A    between atoms: _53  and  _55
REMARK                            x       y       z     vdW  Elec       q    Type
REMARK                         _______ _______ _______ _____ _____    ______ ____
ROOT
ATOM     10  C   UNL     1      20.289  29.955  22.290  0.00  0.00    +0.038 A 
ATOM     11  C   UNL     1      20.558  29.860  20.901  0.00  0.00    +0.047 A 
ATOM     12  C   UNL     1      19.953  30.783  19.953  0.00  0.00    +0.035 A 
ATOM     32  C   UNL     1      19.080  31.792  20.454  0.00  0.00    +0.024 A 
ATOM     33  C   UNL     1      18.795  31.902  21.863  0.00  0.00    +0.007 A 
ATOM     34  C   UNL     1      19.387  30.994  22.803  0.00  0.00    -0.029 A 
ATOM     35  C   UNL     1      19.040  31.154  24.302  0.00  0.00    +0.045 C 
ENDROOT
BRANCH  10   9
ATOM      4  C   UNL     1      20.295  25.874  24.816  0.00  0.00    +0.077 A 
ATOM      5  C   UNL     1      18.963  25.543  24.396  0.00  0.00    +0.048 A 
ATOM      6  C   UNL     1      18.309  26.453  23.536  0.00  0.00    +0.116 A 
ATOM      7  N   UNL     1      18.948  27.605  23.132  0.00  0.00    -0.223 NA
ATOM      8  C   UNL     1      20.232  27.895  23.556  0.00  0.00    +0.220 A 
ATOM      9  N   UNL     1      20.897  29.044  23.156  0.00  0.00    -0.283 N 
ATOM     36  H   UNL     1      21.840  29.225  23.497  0.00  0.00    +0.155 HD
ATOM     37  N   UNL     1      20.878  27.042  24.379  0.00  0.00    -0.214 NA
BRANCH   4   3
ATOM      1  C   UNL     1      21.412  23.543  27.751  0.00  0.00    +0.020 A 
ATOM      2  C   UNL     1      20.575  24.366  26.910  0.00  0.00    +0.013 A 
ATOM      3  C   UNL     1      21.118  25.011  25.721  0.00  0.00    +0.019 A 
ATOM     38  C   UNL     1      22.523  24.800  25.408  0.00  0.00    +0.120 A 
ATOM     39  N   UNL     1      23.306  24.002  26.237  0.00  0.00    -0.263 NA
ATOM     40  C   UNL     1      22.795  23.378  27.385  0.00  0.00    +0.111 A 
ENDBRANCH   4   3
ENDBRANCH  10   9
BRANCH  12  13
ATOM     13  N   UNL     1      20.183  30.730  18.530  0.00  0.00    -0.281 N 
ATOM     14  C   UNL     1      20.826  31.665  17.736  0.00  0.00    +0.248 C 
ATOM     30  O   UNL     1      21.115  32.796  18.097  0.00  0.00    -0.270 OA
ATOM     31  H   UNL     1      19.828  29.903  18.050  0.00  0.00    +0.155 HD
BRANCH  14  15
ATOM     15  C   UNL     1      21.187  31.296  16.333  0.00  0.00    +0.037 A 
ATOM     16  C   UNL     1      22.348  31.889  15.666  0.00  0.00    +0.013 A 
ATOM     17  C   UNL     1      22.664  31.528  14.307  0.00  0.00    +0.005 A 
ATOM     18  C   UNL     1      21.817  30.566  13.606  0.00  0.00    -0.033 A 
ATOM     28  C   UNL     1      20.673  29.989  14.293  0.00  0.00    +0.005 A 
ATOM     29  C   UNL     1      20.360  30.342  15.625  0.00  0.00    +0.013 A 
BRANCH  18  19
ATOM     19  C   UNL     1      22.066  30.139  12.148  0.00  0.00    +0.119 C 
BRANCH  19  20
ATOM     20  N   UNL     1      22.586  28.757  11.919  0.00  0.00    -0.302 NA
ATOM     21  C   UNL     1      23.624  28.713  10.794  0.00  0.00    +0.066 C 
ATOM     22  C   UNL     1      24.174  27.264  10.584  0.00  0.00    -0.064 C 
ATOM     23  N   UNL     1      23.009  26.318  10.285  0.00  0.00    +0.379 N 
ATOM     24  C   UNL     1      23.528  24.967  10.030  0.00  0.00    -0.096 C 
ATOM     25  H   UNL     1      22.517  26.674   9.350  0.00  0.00    -0.082 HD
ATOM     26  C   UNL     1      21.971  26.359  11.397  0.00  0.00    -0.064 C 
ATOM     27  C   UNL     1      21.453  27.807  11.618  0.00  0.00    +0.066 C 
ENDBRANCH  19  20
ENDBRANCH  18  19
ENDBRANCH  14  15
ENDBRANCH  12  13
TORSDOF 6
ENDMDL
MODEL 3
REMARK VINA RESULT:      -8.6      9.533     12.484
REMARK  Name = C:\Users\Docking\Desktop\test protocol\1iep_ligandH.pdb
REMARK  8 active torsions:
REMARK  status: ('A' for Active; 'I' for Inactive)
REMARK    1  A    between atoms: _5  and  _11
REMARK    2  A    between atoms: _19  and  _21
REMARK    3  A    between atoms: _22  and  _66
REMARK    4  A    between atoms: _27  and  _30
REMARK    5  A    between atoms: _32  and  _33
REMARK    6  A    between atoms: _38  and  _43
REMARK    7  A    between atoms: _43  and  _46
REMARK    8  A    between atoms: _53  and  _55
REMARK                            x       y       z     vdW  Elec       q    Type
REMARK                         _______ _______ _______ _____ _____    ______ ____
ROOT
ATOM     10  C   UNL     1      21.488  33.857  10.950  0.00  0.00    +0.038 A 
ATOM     11  C   UNL     1      21.998  34.520   9.805  0.00  0.00    +0.047 A 
ATOM     12  C   UNL     1      21.988  35.971   9.708  0.00  0.00    +0.035 A 
ATOM     32  C   UNL     1      21.454  36.717  10.799  0.00  0.00    +0.024 A 
ATOM     33  C   UNL     1      20.930  36.060  11.970  0.00  0.00    +0.007 A 
ATOM     34  C   UNL     1      20.935  34.629  12.070  0.00  0.00    -0.029 A 
ATOM     35  C   UNL     1      20.355  33.977  13.347  0.00  0.00    +0.045 C 
ENDROOT
BRANCH  10   9
ATOM      4  C   UNL     1      23.845  29.689  11.283  0.00  0.00    +0.077 A 
ATOM      5  C   UNL     1      25.117  30.347  11.358  0.00  0.00    +0.048 A 
ATOM      6  C   UNL     1      25.123  31.759  11.300  0.00  0.00    +0.116 A 
ATOM      7  N   UNL     1      23.937  32.451  11.177  0.00  0.00    -0.223 NA
ATOM      8  C   UNL     1      22.727  31.786  11.106  0.00  0.00    +0.220 A 
ATOM      9  N   UNL     1      21.522  32.462  10.990  0.00  0.00    -0.283 N 
ATOM     36  H   UNL     1      20.652  31.934  10.933  0.00  0.00    +0.155 HD
ATOM     37  N   UNL     1      22.696  30.438  11.158  0.00  0.00    -0.214 NA
BRANCH   4   3
ATOM      1  C   UNL     1      24.574  25.846  11.280  0.00  0.00    +0.020 A 
ATOM      2  C   UNL     1      24.792  27.273  11.224  0.00  0.00    +0.013 A 
ATOM      3  C   UNL     1      23.675  28.203  11.335  0.00  0.00    +0.019 A 
ATOM     38  C   UNL     1      22.339  27.651  11.504  0.00  0.00    +0.120 A 
ATOM     39  N   UNL     1      22.159  26.272  11.553  0.00  0.00    -0.263 NA
ATOM     40  C   UNL     1      23.226  25.368  11.446  0.00  0.00    +0.111 A 
ENDBRANCH   4   3
ENDBRANCH  10   9
BRANCH  12  13
ATOM     13  N   UNL     1      22.485  36.699   8.567  0.00  0.00    -0.281 N 
ATOM     14  C   UNL     1      23.633  37.469   8.481  0.00  0.00    +0.248 C 
ATOM     30  O   UNL     1      24.300  37.824   9.442  0.00  0.00    -0.270 OA
ATOM     31  H   UNL     1      21.921  36.639   7.719  0.00  0.00    +0.155 HD
BRANCH  14  15
ATOM     15  C   UNL     1      24.100  37.922   7.136  0.00  0.00    +0.037 A 
ATOM     16  C   UNL     1      23.162  38.097   6.025  0.00  0.00    +0.013 A 
ATOM     17  C   UNL     1      23.641  38.519   4.732  0.00  0.00    +0.005 A 
ATOM     18  C   UNL     1      25.068  38.770   4.545  0.00  0.00    -0.033 A 
ATOM     28  C   UNL     1      25.977  38.593   5.666  0.00  0.00    +0.005 A 
ATOM     29  C   UNL     1      25.510  38.179   6.934  0.00  0.00    +0.013 A 
BRANCH  18  19
ATOM     19  C   UNL     1      25.671  39.202   3.195  0.00  0.00    +0.119 C 
BRANCH  19  20
ATOM     20  N   UNL     1      25.983  38.125   2.209  0.00  0.00    -0.302 NA
ATOM     21  C   UNL     1      24.716  37.538   1.580  0.00  0.00    +0.066 C 
ATOM     22  C   UNL     1      25.061  36.428   0.535  0.00  0.00    -0.064 C 
ATOM     23  N   UNL     1      25.887  35.333   1.211  0.00  0.00    +0.379 N 
ATOM     24  C   UNL     1      26.164  34.260   0.245  0.00  0.00    -0.096 C 
ATOM     25  H   UNL     1      25.268  34.899   2.030  0.00  0.00    -0.082 HD
ATOM     26  C   UNL     1      27.148  35.908   1.842  0.00  0.00    -0.064 C 
ATOM     27  C   UNL     1      26.795  37.031   2.857  0.00  0.00    +0.066 C 
ENDBRANCH  19  20
ENDBRANCH  18  19
ENDBRANCH  14  15
ENDBRANCH  12  13
TORSDOF 6
ENDMDL
MODEL 4
REMARK VINA RESULT:      -8.4      2.661     15.283
REMARK  Name = C:\Users\Docking\Desktop\test protocol\1iep_ligandH.pdb
REMARK  8 active torsions:
REMARK  status: ('A' for Active; 'I' for Inactive)
REMARK    1  A    between atoms: _5  and  _11
REMARK    2  A    between atoms: _19  and  _21
REMARK    3  A    between atoms: _22  and  _66
REMARK    4  A    between atoms: _27  and  _30
REMARK    5  A    between atoms: _32  and  _33
REMARK    6  A    between atoms: _38  and  _43
REMARK    7  A    between atoms: _43  and  _46
REMARK    8  A    between atoms: _53  and  _55
REMARK                            x       y       z     vdW  Elec       q    Type
REMARK                         _______ _______ _______ _____ _____    ______ ____
ROOT
ATOM     10  C   UNL     1      22.292  32.581   9.741  0.00  0.00    +0.038 A 
ATOM     11  C   UNL     1      21.871  32.522  11.095  0.00  0.00    +0.047 A 
ATOM     12  C   UNL     1      22.523  31.638  12.048  0.00  0.00    +0.035 A 
ATOM     32  C   UNL     1      23.603  30.829  11.590  0.00  0.00    +0.024 A 
ATOM     33  C   UNL     1      24.043  30.875  10.218  0.00  0.00    +0.007 A 
ATOM     34  C   UNL     1      23.402  31.743   9.272  0.00  0.00    -0.029 A 
ATOM     35  C   UNL     1      23.912  31.746   7.812  0.00  0.00    +0.045 C 
ENDROOT
BRANCH  10   9
ATOM      4  C   UNL     1      21.813  36.819   7.540  0.00  0.00    +0.077 A 
ATOM      5  C   UNL     1      22.963  37.361   8.205  0.00  0.00    +0.048 A 
ATOM      6  C   UNL     1      23.645  36.519   9.112  0.00  0.00    +0.116 A 
ATOM      7  N   UNL     1      23.202  35.232   9.328  0.00  0.00    -0.223 NA
ATOM      8  C   UNL     1      22.089  34.741   8.672  0.00  0.00    +0.220 A 
ATOM      9  N   UNL     1      21.630  33.447   8.869  0.00  0.00    -0.283 N 
ATOM     36  H   UNL     1      20.801  33.125   8.371  0.00  0.00    +0.155 HD
ATOM     37  N   UNL     1      21.419  35.526   7.803  0.00  0.00    -0.214 NA
BRANCH   4   3
ATOM      1  C   UNL     1      18.975  38.961   5.911  0.00  0.00    +0.020 A 
ATOM      2  C   UNL     1      19.732  38.234   6.903  0.00  0.00    +0.013 A 
ATOM      3  C   UNL     1      20.989  37.584   6.552  0.00  0.00    +0.019 A 
ATOM     38  C   UNL     1      21.455  37.690   5.178  0.00  0.00    +0.120 A 
ATOM     39  N   UNL     1      20.703  38.396   4.243  0.00  0.00    -0.263 NA
ATOM     40  C   UNL     1      19.492  39.024   4.569  0.00  0.00    +0.111 A 
ENDBRANCH   4   3
ENDBRANCH  10   9
BRANCH  12  13
ATOM     13  N   UNL     1      22.134  31.531  13.432  0.00  0.00    -0.281 N 
ATOM     14  C   UNL     1      22.761  32.081  14.538  0.00  0.00    +0.248 C 
ATOM     30  O   UNL     1      23.879  32.574  14.525  0.00  0.00    -0.270 OA
ATOM     31  H   UNL     1      21.294  30.982  13.620  0.00  0.00    +0.155 HD
BRANCH  14  15
ATOM     15  C   UNL     1      22.049  32.068  15.853  0.00  0.00    +0.037 A 
ATOM     16  C   UNL     1      22.475  32.932  16.956  0.00  0.00    +0.013 A 
ATOM     17  C   UNL     1      21.782  32.887  18.219  0.00  0.00    +0.005 A 
ATOM     18  C   UNL     1      20.653  31.975  18.384  0.00  0.00    -0.033 A 
ATOM     28  C   UNL     1      20.248  31.132  17.271  0.00  0.00    +0.005 A 
ATOM     29  C   UNL     1      20.926  31.172  16.033  0.00  0.00    +0.013 A 
BRANCH  18  19
ATOM     19  C   UNL     1      19.868  31.845  19.703  0.00  0.00    +0.119 C 
BRANCH  19  20
ATOM     20  N   UNL     1      20.275  30.753  20.637  0.00  0.00    -0.302 NA
ATOM     21  C   UNL     1      19.406  29.503  20.472  0.00  0.00    +0.066 C 
ATOM     22  C   UNL     1      19.860  28.362  21.440  0.00  0.00    -0.064 C 
ATOM     23  N   UNL     1      19.809  28.871  22.882  0.00  0.00    +0.379 N 
ATOM     24  C   UNL     1      20.180  27.783  23.799  0.00  0.00    -0.096 C 
ATOM     25  H   UNL     1      18.755  29.155  23.103  0.00  0.00    -0.082 HD
ATOM     26  C   UNL     1      20.669  30.115  23.054  0.00  0.00    -0.064 C 
ATOM     27  C   UNL     1      20.229  31.232  22.067  0.00  0.00    +0.066 C 
ENDBRANCH  19  20
ENDBRANCH  18  19
ENDBRANCH  14  15
ENDBRANCH  12  13
TORSDOF 6
ENDMDL
MODEL 5
REMARK VINA RESULT:      -8.4      2.651     15.364
REMARK  Name = C:\Users\Docking\Desktop\test protocol\1iep_ligandH.pdb
REMARK  8 active torsions:
REMARK  status: ('A' for Active; 'I' for Inactive)
REMARK    1  A    between atoms: _5  and  _11
REMARK    2  A    between atoms: _19  and  _21
REMARK    3  A    between atoms: _22  and  _66
REMARK    4  A    between atoms: _27  and  _30
REMARK    5  A    between atoms: _32  and  _33
REMARK    6  A    between atoms: _38  and  _43
REMARK    7  A    between atoms: _43  and  _46
REMARK    8  A    between atoms: _53  and  _55
REMARK                            x       y       z     vdW  Elec       q    Type
REMARK                         _______ _______ _______ _____ _____    ______ ____
ROOT
ATOM     10  C   UNL     1      22.255  32.607  10.008  0.00  0.00    +0.038 A 
ATOM     11  C   UNL     1      21.722  32.707  11.319  0.00  0.00    +0.047 A 
ATOM     12  C   UNL     1      22.265  31.917  12.413  0.00  0.00    +0.035 A 
ATOM     32  C   UNL     1      23.352  31.038  12.137  0.00  0.00    +0.024 A 
ATOM     33  C   UNL     1      23.905  30.923  10.811  0.00  0.00    +0.007 A 
ATOM     34  C   UNL     1      23.372  31.698   9.727  0.00  0.00    -0.029 A 
ATOM     35  C   UNL     1      24.000  31.530   8.323  0.00  0.00    +0.045 C 
ENDROOT
BRANCH  10   9
ATOM      4  C   UNL     1      22.033  36.631   7.400  0.00  0.00    +0.077 A 
ATOM      5  C   UNL     1      23.104  37.238   8.137  0.00  0.00    +0.048 A 
ATOM      6  C   UNL     1      23.680  36.483   9.183  0.00  0.00    +0.116 A 
ATOM      7  N   UNL     1      23.213  35.218   9.464  0.00  0.00    -0.223 NA
ATOM      8  C   UNL     1      22.176  34.663   8.735  0.00  0.00    +0.220 A 
ATOM      9  N   UNL     1      21.695  33.389   8.995  0.00  0.00    -0.283 N 
ATOM     36  H   UNL     1      20.925  33.018   8.439  0.00  0.00    +0.155 HD
ATOM     37  N   UNL     1      21.608  35.364   7.732  0.00  0.00    -0.214 NA
BRANCH   4   3
ATOM      1  C   UNL     1      19.612  38.899   5.327  0.00  0.00    +0.020 A 
ATOM      2  C   UNL     1      20.265  38.282   6.459  0.00  0.00    +0.013 A 
ATOM      3  C   UNL     1      21.324  37.300   6.264  0.00  0.00    +0.019 A 
ATOM     38  C   UNL     1      21.703  36.963   4.900  0.00  0.00    +0.120 A 
ATOM     39  N   UNL     1      21.056  37.572   3.830  0.00  0.00    -0.263 NA
ATOM     40  C   UNL     1      20.034  38.517   4.005  0.00  0.00    +0.111 A 
ENDBRANCH   4   3
ENDBRANCH  10   9
BRANCH  12  13
ATOM     13  N   UNL     1      21.760  31.970  13.763  0.00  0.00    -0.281 N 
ATOM     14  C   UNL     1      20.903  31.079  14.387  0.00  0.00    +0.248 C 
ATOM     30  O   UNL     1      20.267  30.211  13.808  0.00  0.00    -0.270 OA
ATOM     31  H   UNL     1      22.073  32.761  14.327  0.00  0.00    +0.155 HD
BRANCH  14  15
ATOM     15  C   UNL     1      20.713  31.175  15.866  0.00  0.00    +0.037 A 
ATOM     16  C   UNL     1      19.721  30.350  16.561  0.00  0.00    +0.013 A 
ATOM     17  C   UNL     1      19.547  30.475  17.986  0.00  0.00    +0.005 A 
ATOM     18  C   UNL     1      20.368  31.429  18.727  0.00  0.00    -0.033 A 
ATOM     28  C   UNL     1      21.348  32.232  18.014  0.00  0.00    +0.005 A 
ATOM     29  C   UNL     1      21.521  32.113  16.617  0.00  0.00    +0.013 A 
BRANCH  18  19
ATOM     19  C   UNL     1      20.235  31.644  20.247  0.00  0.00    +0.119 C 
BRANCH  19  20
ATOM     20  N   UNL     1      19.828  30.467  21.071  0.00  0.00    -0.302 NA
ATOM     21  C   UNL     1      19.330  30.882  22.458  0.00  0.00    +0.066 C 
ATOM     22  C   UNL     1      18.886  29.640  23.298  0.00  0.00    -0.064 C 
ATOM     23  N   UNL     1      20.056  28.661  23.413  0.00  0.00    +0.379 N 
ATOM     24  C   UNL     1      19.661  27.520  24.251  0.00  0.00    -0.096 C 
ATOM     25  H   UNL     1      20.889  29.190  23.932  0.00  0.00    -0.082 HD
ATOM     26  C   UNL     1      20.559  28.246  22.038  0.00  0.00    -0.064 C 
ATOM     27  C   UNL     1      20.970  29.489  21.201  0.00  0.00    +0.066 C 
ENDBRANCH  19  20
ENDBRANCH  18  19
ENDBRANCH  14  15
ENDBRANCH  12  13
TORSDOF 6
ENDMDL
