MODEL 1
REMARK VINA RESULT:      -8.2      0.000      0.000
REMARK  Name = C:\Users\Docking\Desktop\test protocol\1iep_ligandH.pdb
REMARK  8 active torsions:
REMARK  status: ('A' for Active; 'I' for Inactive)
REMARK    1  A    between atoms: _5  and  _11
REMARK    2  A    between atoms: _19  and  _21
REMARK    3  A    between atoms: _22  and  _66
REMARK    4  A    between atoms: _27  and  _30
REMARK    5  A    between atoms: _32  and  _33
REMARK    6  A    between atoms: _38  and  _43
REMARK    7  A    between atoms: _43  and  _46
REMARK    8  A    between atoms: _53  and  _55
REMARK                            x       y       z     vdW  Elec       q    Type
REMARK                         _______ _______ _______ _____ _____    ______ ____
ROOT
ATOM     10  C   UNL     1     -14.828  19.450  29.476  0.00  0.00    +0.038 A 
ATOM     11  C   UNL     1     -13.956  18.723  28.626  0.00  0.00    +0.047 A 
ATOM     12  C   UNL     1     -13.081  17.688  29.154  0.00  0.00    +0.035 A 
ATOM     32  C   UNL     1     -13.121  17.418  30.553  0.00  0.00    +0.024 A 
ATOM     33  C   UNL     1     -14.001  18.148  31.431  0.00  0.00    +0.007 A 
ATOM     34  C   UNL     1     -14.865  19.171  30.917  0.00  0.00    -0.029 A 
ATOM     35  C   UNL     1     -15.783  19.927  31.906  0.00  0.00    +0.045 C 
ENDROOT
BRANCH  10   9
ATOM      4  C   UNL     1     -15.819  24.018  28.386  0.00  0.00    +0.077 A 
ATOM      5  C   UNL     1     -14.616  24.490  29.010  0.00  0.00    +0.048 A 
ATOM      6  C   UNL     1     -13.773  23.525  29.606  0.00  0.00    +0.116 A 
ATOM      7  N   UNL     1     -14.117  22.191  29.574  0.00  0.00    -0.223 NA
ATOM      8  C   UNL     1     -15.286  21.770  28.966  0.00  0.00    +0.220 A 
ATOM      9  N   UNL     1     -15.647  20.433  28.915  0.00  0.00    -0.283 N 
ATOM     36  H   UNL     1     -16.521  20.163  28.464  0.00  0.00    +0.155 HD
ATOM     37  N   UNL     1     -16.108  22.672  28.391  0.00  0.00    -0.214 NA
BRANCH   4   3
ATOM      1  C   UNL     1     -18.534  25.407  25.936  0.00  0.00    +0.020 A 
ATOM      2  C   UNL     1     -17.589  24.502  26.550  0.00  0.00    +0.013 A 
ATOM      3  C   UNL     1     -16.810  24.915  27.711  0.00  0.00    +0.019 A 
ATOM     38  C   UNL     1     -17.013  26.259  28.230  0.00  0.00    +0.120 A 
ATOM     39  N   UNL     1     -17.928  27.108  27.616  0.00  0.00    -0.263 NA
ATOM     40  C   UNL     1     -18.682  26.723  26.498  0.00  0.00    +0.111 A 
ENDBRANCH   4   3
ENDBRANCH  10   9
BRANCH  12  13
ATOM     13  N   UNL     1     -12.168  16.923  28.341  0.00  0.00    -0.281 N 
ATOM     14  C   UNL     1     -12.107  15.547  28.195  0.00  0.00    +0.248 C 
ATOM     30  O   UNL     1     -12.694  14.749  28.911  0.00  0.00    -0.270 OA
ATOM     31  H   UNL     1     -11.484  17.461  27.809  0.00  0.00    +0.155 HD
BRANCH  14  15
ATOM     15  C   UNL     1     -11.260  14.973  27.105  0.00  0.00    +0.037 A 
ATOM     16  C   UNL     1      -9.862  15.378  26.936  0.00  0.00    +0.013 A 
ATOM     17  C   UNL     1      -9.072  14.822  25.866  0.00  0.00    +0.005 A 
ATOM     18  C   UNL     1      -9.680  13.854  24.956  0.00  0.00    -0.033 A 
ATOM     28  C   UNL     1     -11.067  13.466  25.150  0.00  0.00    +0.005 A 
ATOM     29  C   UNL     1     -11.845  14.009  26.197  0.00  0.00    +0.013 A 
BRANCH  18  19
ATOM     19  C   UNL     1      -8.919  13.225  23.774  0.00  0.00    +0.119 C 
BRANCH  19  20
ATOM     20  N   UNL     1      -8.594  11.770  23.866  0.00  0.00    -0.302 NA
ATOM     21  C   UNL     1      -8.012  11.396  25.232  0.00  0.00    +0.066 C 
ATOM     22  C   UNL     1      -7.699   9.867  25.318  0.00  0.00    -0.064 C 
ATOM     23  N   UNL     1      -6.735   9.482  24.195  0.00  0.00    +0.379 N 
ATOM     24  C   UNL     1      -6.393   8.057  24.308  0.00  0.00    -0.096 C 
ATOM     25  H   UNL     1      -5.797  10.068  24.340  0.00  0.00    -0.082 HD
ATOM     26  C   UNL     1      -7.304   9.853  22.833  0.00  0.00    -0.064 C 
ATOM     27  C   UNL     1      -7.639  11.370  22.768  0.00  0.00    +0.066 C 
ENDBRANCH  19  20
ENDBRANCH  18  19
ENDBRANCH  14  15
ENDBRANCH  12  13
TORSDOF 6
ENDMDL
MODEL 2
REMARK VINA RESULT:      -8.1      2.649     14.239
REMARK  Name = C:\Users\Docking\Desktop\test protocol\1iep_ligandH.pdb
REMARK  8 active torsions:
REMARK  status: ('A' for Active; 'I' for Inactive)
REMARK    1  A    between atoms: _5  and  _11
REMARK    2  A    between atoms: _19  and  _21
REMARK    3  A    between atoms: _22  and  _66
REMARK    4  A    between atoms: _27  and  _30
REMARK    5  A    between atoms: _32  and  _33
REMARK    6  A    between atoms: _38  and  _43
REMARK    7  A    between atoms: _43  and  _46
REMARK    8  A    between atoms: _53  and  _55
REMARK                            x       y       z     vdW  Elec       q    Type
REMARK                         _______ _______ _______ _____ _____    ______ ____
ROOT
ATOM     10  C   UNL     1     -10.853  11.603  24.241  0.00  0.00    +0.038 A 
ATOM     11  C   UNL     1     -11.217  12.427  25.336  0.00  0.00    +0.047 A 
ATOM     12  C   UNL     1     -11.264  13.875  25.205  0.00  0.00    +0.035 A 
ATOM     32  C   UNL     1     -10.937  14.450  23.942  0.00  0.00    +0.024 A 
ATOM     33  C   UNL     1     -10.564  13.627  22.819  0.00  0.00    +0.007 A 
ATOM     34  C   UNL     1     -10.513  12.198  22.943  0.00  0.00    -0.029 A 
ATOM     35  C   UNL     1     -10.100  11.365  21.707  0.00  0.00    +0.045 C 
ENDROOT
BRANCH  10   9
ATOM      4  C   UNL     1      -8.567   7.521  25.313  0.00  0.00    +0.077 A 
ATOM      5  C   UNL     1      -7.317   8.201  25.500  0.00  0.00    +0.048 A 
ATOM      6  C   UNL     1      -7.304   9.600  25.304  0.00  0.00    +0.116 A 
ATOM      7  N   UNL     1      -8.460  10.260  24.947  0.00  0.00    -0.223 NA
ATOM      8  C   UNL     1      -9.648   9.574  24.774  0.00  0.00    +0.220 A 
ATOM      9  N   UNL     1     -10.824  10.218  24.423  0.00  0.00    -0.283 N 
ATOM     36  H   UNL     1     -11.678   9.675  24.297  0.00  0.00    +0.155 HD
ATOM     37  N   UNL     1      -9.686   8.237  24.954  0.00  0.00    -0.214 NA
BRANCH   4   3
ATOM      1  C   UNL     1      -7.844   3.701  25.745  0.00  0.00    +0.020 A 
ATOM      2  C   UNL     1      -7.620   5.119  25.577  0.00  0.00    +0.013 A 
ATOM      3  C   UNL     1      -8.742   6.044  25.487  0.00  0.00    +0.019 A 
ATOM     38  C   UNL     1     -10.088   5.500  25.573  0.00  0.00    +0.120 A 
ATOM     39  N   UNL     1     -10.273   4.130  25.733  0.00  0.00    -0.263 NA
ATOM     40  C   UNL     1      -9.201   3.229  25.819  0.00  0.00    +0.111 A 
ENDBRANCH   4   3
ENDBRANCH  10   9
BRANCH  12  13
ATOM     13  N   UNL     1     -11.619  14.764  26.283  0.00  0.00    -0.281 N 
ATOM     14  C   UNL     1     -10.800  15.253  27.288  0.00  0.00    +0.248 C 
ATOM     30  O   UNL     1      -9.682  14.828  27.536  0.00  0.00    -0.270 OA
ATOM     31  H   UNL     1     -12.592  15.069  26.309  0.00  0.00    +0.155 HD
BRANCH  14  15
ATOM     15  C   UNL     1     -11.302  16.365  28.152  0.00  0.00    +0.037 A 
ATOM     16  C   UNL     1     -10.468  17.532  28.449  0.00  0.00    +0.013 A 
ATOM     17  C   UNL     1     -10.971  18.583  29.298  0.00  0.00    +0.005 A 
ATOM     18  C   UNL     1     -12.316  18.470  29.856  0.00  0.00    -0.033 A 
ATOM     28  C   UNL     1     -13.124  17.304  29.541  0.00  0.00    +0.005 A 
ATOM     29  C   UNL     1     -12.635  16.272  28.710  0.00  0.00    +0.013 A 
BRANCH  18  19
ATOM     19  C   UNL     1     -12.926  19.533  30.790  0.00  0.00    +0.119 C 
BRANCH  19  20
ATOM     20  N   UNL     1     -13.196  20.881  30.207  0.00  0.00    -0.302 NA
ATOM     21  C   UNL     1     -14.007  21.767  31.157  0.00  0.00    +0.066 C 
ATOM     22  C   UNL     1     -14.260  23.181  30.541  0.00  0.00    -0.064 C 
ATOM     23  N   UNL     1     -14.978  23.028  29.198  0.00  0.00    +0.379 N 
ATOM     24  C   UNL     1     -15.270  24.357  28.644  0.00  0.00    -0.096 C 
ATOM     25  H   UNL     1     -15.952  22.521  29.392  0.00  0.00    -0.082 HD
ATOM     26  C   UNL     1     -14.180  22.147  28.248  0.00  0.00    -0.064 C 
ATOM     27  C   UNL     1     -13.908  20.754  28.882  0.00  0.00    +0.066 C 
ENDBRANCH  19  20
ENDBRANCH  18  19
ENDBRANCH  14  15
ENDBRANCH  12  13
TORSDOF 6
ENDMDL
MODEL 3
REMARK VINA RESULT:      -8.0      3.698     12.508
REMARK  Name = C:\Users\Docking\Desktop\test protocol\1iep_ligandH.pdb
REMARK  8 active torsions:
REMARK  status: ('A' for Active; 'I' for Inactive)
REMARK    1  A    between atoms: _5  and  _11
REMARK    2  A    between atoms: _19  and  _21
REMARK    3  A    between atoms: _22  and  _66
REMARK    4  A    between atoms: _27  and  _30
REMARK    5  A    between atoms: _32  and  _33
REMARK    6  A    between atoms: _38  and  _43
REMARK    7  A    between atoms: _43  and  _46
REMARK    8  A    between atoms: _53  and  _55
REMARK                            x       y       z     vdW  Elec       q    Type
REMARK                         _______ _______ _______ _____ _____    ______ ____
ROOT
ATOM     10  C   UNL     1     -10.175  13.078  25.127  0.00  0.00    +0.038 A 
ATOM     11  C   UNL     1     -10.850  14.002  25.965  0.00  0.00    +0.047 A 
ATOM     12  C   UNL     1     -12.018  13.605  26.736  0.00  0.00    +0.035 A 
ATOM     32  C   UNL     1     -12.470  12.257  26.632  0.00  0.00    +0.024 A 
ATOM     33  C   UNL     1     -11.796  11.305  25.784  0.00  0.00    +0.007 A 
ATOM     34  C   UNL     1     -10.645  11.691  25.020  0.00  0.00    -0.029 A 
ATOM     35  C   UNL     1      -9.967  10.630  24.123  0.00  0.00    +0.045 C 
ENDROOT
BRANCH  10   9
ATOM      4  C   UNL     1      -8.140  15.067  21.262  0.00  0.00    +0.077 A 
ATOM      5  C   UNL     1      -9.405  15.229  20.606  0.00  0.00    +0.048 A 
ATOM      6  C   UNL     1     -10.555  14.780  21.294  0.00  0.00    +0.116 A 
ATOM      7  N   UNL     1     -10.436  14.214  22.545  0.00  0.00    -0.223 NA
ATOM      8  C   UNL     1      -9.201  14.072  23.149  0.00  0.00    +0.220 A 
ATOM      9  N   UNL     1      -9.059  13.513  24.409  0.00  0.00    -0.283 N 
ATOM     36  H   UNL     1      -8.129  13.418  24.817  0.00  0.00    +0.155 HD
ATOM     37  N   UNL     1      -8.087  14.491  22.512  0.00  0.00    -0.214 NA
BRANCH   4   3
ATOM      1  C   UNL     1      -4.896  15.192  19.080  0.00  0.00    +0.020 A 
ATOM      2  C   UNL     1      -6.154  14.735  19.623  0.00  0.00    +0.013 A 
ATOM      3  C   UNL     1      -6.835  15.494  20.665  0.00  0.00    +0.019 A 
ATOM     38  C   UNL     1      -6.211  16.721  21.138  0.00  0.00    +0.120 A 
ATOM     39  N   UNL     1      -4.998  17.135  20.597  0.00  0.00    -0.263 NA
ATOM     40  C   UNL     1      -4.333  16.412  19.596  0.00  0.00    +0.111 A 
ENDBRANCH   4   3
ENDBRANCH  10   9
BRANCH  12  13
ATOM     13  N   UNL     1     -12.749  14.501  27.597  0.00  0.00    -0.281 N 
ATOM     14  C   UNL     1     -12.269  15.228  28.675  0.00  0.00    +0.248 C 
ATOM     30  O   UNL     1     -11.178  15.051  29.196  0.00  0.00    -0.270 OA
ATOM     31  H   UNL     1     -13.740  14.614  27.386  0.00  0.00    +0.155 HD
BRANCH  14  15
ATOM     15  C   UNL     1     -13.131  16.294  29.268  0.00  0.00    +0.037 A 
ATOM     16  C   UNL     1     -13.967  16.031  30.442  0.00  0.00    +0.013 A 
ATOM     17  C   UNL     1     -14.802  17.073  30.984  0.00  0.00    +0.005 A 
ATOM     18  C   UNL     1     -14.804  18.390  30.352  0.00  0.00    -0.033 A 
ATOM     28  C   UNL     1     -13.962  18.626  29.192  0.00  0.00    +0.005 A 
ATOM     29  C   UNL     1     -13.143  17.606  28.657  0.00  0.00    +0.013 A 
BRANCH  18  19
ATOM     19  C   UNL     1     -15.680  19.555  30.850  0.00  0.00    +0.119 C 
BRANCH  19  20
ATOM     20  N   UNL     1     -15.228  20.274  32.078  0.00  0.00    -0.302 NA
ATOM     21  C   UNL     1     -15.986  19.813  33.326  0.00  0.00    +0.066 C 
ATOM     22  C   UNL     1     -15.484  20.560  34.605  0.00  0.00    -0.064 C 
ATOM     23  N   UNL     1     -15.638  22.068  34.405  0.00  0.00    +0.379 N 
ATOM     24  C   UNL     1     -15.221  22.771  35.627  0.00  0.00    -0.096 C 
ATOM     25  H   UNL     1     -16.721  22.279  34.246  0.00  0.00    -0.082 HD
ATOM     26  C   UNL     1     -14.890  22.535  33.164  0.00  0.00    -0.064 C 
ATOM     27  C   UNL     1     -15.375  21.766  31.904  0.00  0.00    +0.066 C 
ENDBRANCH  19  20
ENDBRANCH  18  19
ENDBRANCH  14  15
ENDBRANCH  12  13
TORSDOF 6
ENDMDL
MODEL 4
REMARK VINA RESULT:      -7.9      1.610      2.437
REMARK  Name = C:\Users\Docking\Desktop\test protocol\1iep_ligandH.pdb
REMARK  8 active torsions:
REMARK  status: ('A' for Active; 'I' for Inactive)
REMARK    1  A    between atoms: _5  and  _11
REMARK    2  A    between atoms: _19  and  _21
REMARK    3  A    between atoms: _22  and  _66
REMARK    4  A    between atoms: _27  and  _30
REMARK    5  A    between atoms: _32  and  _33
REMARK    6  A    between atoms: _38  and  _43
REMARK    7  A    between atoms: _43  and  _46
REMARK    8  A    between atoms: _53  and  _55
REMARK                            x       y       z     vdW  Elec       q    Type
REMARK                         _______ _______ _______ _____ _____    ______ ____
ROOT
ATOM     10  C   UNL     1     -14.882  19.763  29.870  0.00  0.00    +0.038 A 
ATOM     11  C   UNL     1     -14.153  18.860  29.055  0.00  0.00    +0.047 A 
ATOM     12  C   UNL     1     -13.293  17.843  29.640  0.00  0.00    +0.035 A 
ATOM     32  C   UNL     1     -13.200  17.774  31.061  0.00  0.00    +0.024 A 
ATOM     33  C   UNL     1     -13.932  18.685  31.905  0.00  0.00    +0.007 A 
ATOM     34  C   UNL     1     -14.781  19.691  31.333  0.00  0.00    -0.029 A 
ATOM     35  C   UNL     1     -15.538  20.645  32.286  0.00  0.00    +0.045 C 
ENDROOT
BRANCH  10   9
ATOM      4  C   UNL     1     -15.784  24.249  28.422  0.00  0.00    +0.077 A 
ATOM      5  C   UNL     1     -14.547  24.735  28.961  0.00  0.00    +0.048 A 
ATOM      6  C   UNL     1     -13.709  23.800  29.610  0.00  0.00    +0.116 A 
ATOM      7  N   UNL     1     -14.091  22.479  29.706  0.00  0.00    -0.223 NA
ATOM      8  C   UNL     1     -15.292  22.044  29.176  0.00  0.00    +0.220 A 
ATOM      9  N   UNL     1     -15.693  20.719  29.254  0.00  0.00    -0.283 N 
ATOM     36  H   UNL     1     -16.590  20.439  28.858  0.00  0.00    +0.155 HD
ATOM     37  N   UNL     1     -16.110  22.918  28.554  0.00  0.00    -0.214 NA
BRANCH   4   3
ATOM      1  C   UNL     1     -18.140  27.221  27.466  0.00  0.00    +0.020 A 
ATOM      2  C   UNL     1     -17.181  26.425  28.197  0.00  0.00    +0.013 A 
ATOM      3  C   UNL     1     -16.773  25.115  27.706  0.00  0.00    +0.019 A 
ATOM     38  C   UNL     1     -17.359  24.636  26.463  0.00  0.00    +0.120 A 
ATOM     39  N   UNL     1     -18.281  25.424  25.782  0.00  0.00    -0.263 NA
ATOM     40  C   UNL     1     -18.683  26.686  26.245  0.00  0.00    +0.111 A 
ENDBRANCH   4   3
ENDBRANCH  10   9
BRANCH  12  13
ATOM     13  N   UNL     1     -12.523  16.904  28.863  0.00  0.00    -0.281 N 
ATOM     14  C   UNL     1     -12.702  15.534  28.761  0.00  0.00    +0.248 C 
ATOM     30  O   UNL     1     -13.423  14.875  29.495  0.00  0.00    -0.270 OA
ATOM     31  H   UNL     1     -11.753  17.297  28.322  0.00  0.00    +0.155 HD
BRANCH  14  15
ATOM     15  C   UNL     1     -11.961  14.786  27.700  0.00  0.00    +0.037 A 
ATOM     16  C   UNL     1     -10.703  15.295  27.149  0.00  0.00    +0.013 A 
ATOM     17  C   UNL     1     -10.018  14.562  26.114  0.00  0.00    +0.005 A 
ATOM     18  C   UNL     1     -10.590  13.310  25.624  0.00  0.00    -0.033 A 
ATOM     28  C   UNL     1     -11.837  12.826  26.192  0.00  0.00    +0.005 A 
ATOM     29  C   UNL     1     -12.512  13.542  27.206  0.00  0.00    +0.013 A 
BRANCH  18  19
ATOM     19  C   UNL     1      -9.939  12.473  24.507  0.00  0.00    +0.119 C 
BRANCH  19  20
ATOM     20  N   UNL     1      -9.207  13.214  23.437  0.00  0.00    -0.302 NA
ATOM     21  C   UNL     1     -10.153  14.034  22.556  0.00  0.00    +0.066 C 
ATOM     22  C   UNL     1      -9.368  14.820  21.455  0.00  0.00    -0.064 C 
ATOM     23  N   UNL     1      -8.559  13.836  20.610  0.00  0.00    +0.379 N 
ATOM     24  C   UNL     1      -7.865  14.565  19.538  0.00  0.00    -0.096 C 
ATOM     25  H   UNL     1      -9.277  13.131  20.130  0.00  0.00    -0.082 HD
ATOM     26  C   UNL     1      -7.617  13.013  21.478  0.00  0.00    -0.064 C 
ATOM     27  C   UNL     1      -8.403  12.260  22.587  0.00  0.00    +0.066 C 
ENDBRANCH  19  20
ENDBRANCH  18  19
ENDBRANCH  14  15
ENDBRANCH  12  13
TORSDOF 6
ENDMDL
MODEL 5
REMARK VINA RESULT:      -7.9      3.327     14.242
REMARK  Name = C:\Users\Docking\Desktop\test protocol\1iep_ligandH.pdb
REMARK  8 active torsions:
REMARK  status: ('A' for Active; 'I' for Inactive)
REMARK    1  A    between atoms: _5  and  _11
REMARK    2  A    between atoms: _19  and  _21
REMARK    3  A    between atoms: _22  and  _66
REMARK    4  A    between atoms: _27  and  _30
REMARK    5  A    between atoms: _32  and  _33
REMARK    6  A    between atoms: _38  and  _43
REMARK    7  A    between atoms: _43  and  _46
REMARK    8  A    between atoms: _53  and  _55
REMARK                            x       y       z     vdW  Elec       q    Type
REMARK                         _______ _______ _______ _____ _____    ______ ____
ROOT
ATOM     10  C   UNL     1     -10.781  11.654  24.135  0.00  0.00    +0.038 A 
ATOM     11  C   UNL     1     -10.988  12.562  25.205  0.00  0.00    +0.047 A 
ATOM     12  C   UNL     1     -11.044  13.997  24.973  0.00  0.00    +0.035 A 
ATOM     32  C   UNL     1     -10.888  14.473  23.638  0.00  0.00    +0.024 A 
ATOM     33  C   UNL     1     -10.677  13.563  22.539  0.00  0.00    +0.007 A 
ATOM     34  C   UNL     1     -10.618  12.147  22.762  0.00  0.00    -0.029 A 
ATOM     35  C   UNL     1     -10.383  11.219  21.547  0.00  0.00    +0.045 C 
ENDROOT
BRANCH  10   9
ATOM      4  C   UNL     1      -8.400   7.637  25.243  0.00  0.00    +0.077 A 
ATOM      5  C   UNL     1      -7.135   8.314  25.238  0.00  0.00    +0.048 A 
ATOM      6  C   UNL     1      -7.141   9.695  24.939  0.00  0.00    +0.116 A 
ATOM      7  N   UNL     1      -8.328  10.340  24.667  0.00  0.00    -0.223 NA
ATOM      8  C   UNL     1      -9.530   9.656  24.678  0.00  0.00    +0.220 A 
ATOM      9  N   UNL     1     -10.736  10.286  24.415  0.00  0.00    -0.283 N 
ATOM     36  H   UNL     1     -11.600   9.745  24.425  0.00  0.00    +0.155 HD
ATOM     37  N   UNL     1      -9.551   8.337  24.959  0.00  0.00    -0.214 NA
BRANCH   4   3
ATOM      1  C   UNL     1      -9.863   4.020  25.522  0.00  0.00    +0.020 A 
ATOM      2  C   UNL     1      -9.761   5.427  25.210  0.00  0.00    +0.013 A 
ATOM      3  C   UNL     1      -8.558   6.179  25.544  0.00  0.00    +0.019 A 
ATOM     38  C   UNL     1      -7.468   5.471  26.199  0.00  0.00    +0.120 A 
ATOM     39  N   UNL     1      -7.596   4.116  26.489  0.00  0.00    -0.263 NA
ATOM     40  C   UNL     1      -8.749   3.383  26.173  0.00  0.00    +0.111 A 
ENDBRANCH   4   3
ENDBRANCH  10   9
BRANCH  12  13
ATOM     13  N   UNL     1     -11.242  14.968  26.020  0.00  0.00    -0.281 N 
ATOM     14  C   UNL     1     -10.326  15.402  26.964  0.00  0.00    +0.248 C 
ATOM     30  O   UNL     1      -9.253  14.861  27.186  0.00  0.00    -0.270 OA
ATOM     31  H   UNL     1     -12.171  15.386  26.072  0.00  0.00    +0.155 HD
BRANCH  14  15
ATOM     15  C   UNL     1     -10.656  16.602  27.792  0.00  0.00    +0.037 A 
ATOM     16  C   UNL     1      -9.758  17.759  27.844  0.00  0.00    +0.013 A 
ATOM     17  C   UNL     1     -10.092  18.897  28.664  0.00  0.00    +0.005 A 
ATOM     18  C   UNL     1     -11.331  18.883  29.438  0.00  0.00    -0.033 A 
ATOM     28  C   UNL     1     -12.206  17.725  29.364  0.00  0.00    +0.005 A 
ATOM     29  C   UNL     1     -11.881  16.607  28.562  0.00  0.00    +0.013 A 
BRANCH  18  19
ATOM     19  C   UNL     1     -11.756  20.044  30.356  0.00  0.00    +0.119 C 
BRANCH  19  20
ATOM     20  N   UNL     1     -13.188  20.094  30.777  0.00  0.00    -0.302 NA
ATOM     21  C   UNL     1     -13.881  21.376  30.307  0.00  0.00    +0.066 C 
ATOM     22  C   UNL     1     -15.384  21.401  30.737  0.00  0.00    -0.064 C 
ATOM     23  N   UNL     1     -15.480  21.259  32.257  0.00  0.00    +0.379 N 
ATOM     24  C   UNL     1     -16.889  21.340  32.670  0.00  0.00    -0.096 C 
ATOM     25  H   UNL     1     -14.944  22.124  32.711  0.00  0.00    -0.082 HD
ATOM     26  C   UNL     1     -14.791  19.988  32.733  0.00  0.00    -0.064 C 
ATOM     27  C   UNL     1     -13.306  19.960  32.275  0.00  0.00    +0.066 C 
ENDBRANCH  19  20
ENDBRANCH  18  19
ENDBRANCH  14  15
ENDBRANCH  12  13
TORSDOF 6
ENDMDL
