MODEL 1
REMARK VINA RESULT:      -7.9      0.000      0.000
REMARK  Name = C:\Users\Docking\Desktop\test protocol\1iep_ligandH.pdb
REMARK  8 active torsions:
REMARK  status: ('A' for Active; 'I' for Inactive)
REMARK    1  A    between atoms: _5  and  _11
REMARK    2  A    between atoms: _19  and  _21
REMARK    3  A    between atoms: _22  and  _66
REMARK    4  A    between atoms: _27  and  _30
REMARK    5  A    between atoms: _32  and  _33
REMARK    6  A    between atoms: _38  and  _43
REMARK    7  A    between atoms: _43  and  _46
REMARK    8  A    between atoms: _53  and  _55
REMARK                            x       y       z     vdW  Elec       q    Type
REMARK                         _______ _______ _______ _____ _____    ______ ____
ROOT
ATOM     10  C   UNL     1      12.975 -24.783  -3.805  0.00  0.00    +0.038 A 
ATOM     11  C   UNL     1      13.580 -24.424  -2.573  0.00  0.00    +0.047 A 
ATOM     12  C   UNL     1      14.543 -23.337  -2.496  0.00  0.00    +0.035 A 
ATOM     32  C   UNL     1      14.866 -22.634  -3.693  0.00  0.00    +0.024 A 
ATOM     33  C   UNL     1      14.262 -22.986  -4.954  0.00  0.00    +0.007 A 
ATOM     34  C   UNL     1      13.313 -24.060  -5.037  0.00  0.00    -0.029 A 
ATOM     35  C   UNL     1      12.702 -24.398  -6.416  0.00  0.00    +0.045 C 
ENDROOT
BRANCH  10   9
ATOM      4  C   UNL     1      11.897 -29.459  -3.891  0.00  0.00    +0.077 A 
ATOM      5  C   UNL     1      13.280 -29.838  -3.935  0.00  0.00    +0.048 A 
ATOM      6  C   UNL     1      14.237 -28.798  -3.941  0.00  0.00    +0.116 A 
ATOM      7  N   UNL     1      13.831 -27.482  -3.905  0.00  0.00    -0.223 NA
ATOM      8  C   UNL     1      12.488 -27.152  -3.865  0.00  0.00    +0.220 A 
ATOM      9  N   UNL     1      12.057 -25.835  -3.821  0.00  0.00    -0.283 N 
ATOM     36  H   UNL     1      11.058 -25.632  -3.800  0.00  0.00    +0.155 HD
ATOM     37  N   UNL     1      11.555 -28.126  -3.860  0.00  0.00    -0.214 NA
BRANCH   4   3
ATOM      1  C   UNL     1       9.848 -32.790  -3.803  0.00  0.00    +0.020 A 
ATOM      2  C   UNL     1      10.973 -31.884  -3.815  0.00  0.00    +0.013 A 
ATOM      3  C   UNL     1      10.768 -30.442  -3.876  0.00  0.00    +0.019 A 
ATOM     38  C   UNL     1       9.401 -29.946  -3.923  0.00  0.00    +0.120 A 
ATOM     39  N   UNL     1       8.337 -30.842  -3.911  0.00  0.00    -0.263 NA
ATOM     40  C   UNL     1       8.522 -32.232  -3.854  0.00  0.00    +0.111 A 
ENDBRANCH   4   3
ENDBRANCH  10   9
BRANCH  12  13
ATOM     13  N   UNL     1      15.195 -22.932  -1.275  0.00  0.00    -0.281 N 
ATOM     14  C   UNL     1      16.038 -23.682  -0.471  0.00  0.00    +0.248 C 
ATOM     30  O   UNL     1      16.191 -24.891  -0.568  0.00  0.00    -0.270 OA
ATOM     31  H   UNL     1      15.013 -21.978  -0.966  0.00  0.00    +0.155 HD
BRANCH  14  15
ATOM     15  C   UNL     1      16.813 -22.992   0.605  0.00  0.00    +0.037 A 
ATOM     16  C   UNL     1      16.312 -21.769   1.237  0.00  0.00    +0.013 A 
ATOM     17  C   UNL     1      17.087 -21.113   2.260  0.00  0.00    +0.005 A 
ATOM     18  C   UNL     1      18.372 -21.682   2.659  0.00  0.00    -0.033 A 
ATOM     28  C   UNL     1      18.843 -22.899   2.020  0.00  0.00    +0.005 A 
ATOM     29  C   UNL     1      18.086 -23.544   1.015  0.00  0.00    +0.013 A 
BRANCH  18  19
ATOM     19  C   UNL     1      19.276 -21.038   3.727  0.00  0.00    +0.119 C 
BRANCH  19  20
ATOM     20  N   UNL     1      19.839 -19.689   3.423  0.00  0.00    -0.302 NA
ATOM     21  C   UNL     1      20.563 -19.659   2.074  0.00  0.00    +0.066 C 
ATOM     22  C   UNL     1      21.127 -18.235   1.762  0.00  0.00    -0.064 C 
ATOM     23  N   UNL     1      22.066 -17.803   2.889  0.00  0.00    +0.379 N 
ATOM     24  C   UNL     1      22.643 -16.489   2.570  0.00  0.00    -0.096 C 
ATOM     25  H   UNL     1      22.902 -18.538   2.933  0.00  0.00    -0.082 HD
ATOM     26  C   UNL     1      21.355 -17.832   4.235  0.00  0.00    -0.064 C 
ATOM     27  C   UNL     1      20.773 -19.244   4.522  0.00  0.00    +0.066 C 
ENDBRANCH  19  20
ENDBRANCH  18  19
ENDBRANCH  14  15
ENDBRANCH  12  13
TORSDOF 6
ENDMDL
MODEL 2
REMARK VINA RESULT:      -7.7      3.984     12.720
REMARK  Name = C:\Users\Docking\Desktop\test protocol\1iep_ligandH.pdb
REMARK  8 active torsions:
REMARK  status: ('A' for Active; 'I' for Inactive)
REMARK    1  A    between atoms: _5  and  _11
REMARK    2  A    between atoms: _19  and  _21
REMARK    3  A    between atoms: _22  and  _66
REMARK    4  A    between atoms: _27  and  _30
REMARK    5  A    between atoms: _32  and  _33
REMARK    6  A    between atoms: _38  and  _43
REMARK    7  A    between atoms: _43  and  _46
REMARK    8  A    between atoms: _53  and  _55
REMARK                            x       y       z     vdW  Elec       q    Type
REMARK                         _______ _______ _______ _____ _____    ______ ____
ROOT
ATOM     10  C   UNL     1      16.668 -24.753  -0.023  0.00  0.00    +0.038 A 
ATOM     11  C   UNL     1      15.557 -24.693  -0.903  0.00  0.00    +0.047 A 
ATOM     12  C   UNL     1      15.658 -25.164  -2.275  0.00  0.00    +0.035 A 
ATOM     32  C   UNL     1      16.905 -25.694  -2.718  0.00  0.00    +0.024 A 
ATOM     33  C   UNL     1      18.045 -25.761  -1.837  0.00  0.00    +0.007 A 
ATOM     34  C   UNL     1      17.952 -25.295  -0.483  0.00  0.00    -0.029 A 
ATOM     35  C   UNL     1      19.208 -25.386   0.415  0.00  0.00    +0.045 C 
ENDROOT
BRANCH  10   9
ATOM      4  C   UNL     1      16.550 -21.219   3.223  0.00  0.00    +0.077 A 
ATOM      5  C   UNL     1      16.844 -20.222   2.235  0.00  0.00    +0.048 A 
ATOM      6  C   UNL     1      17.026 -20.660   0.905  0.00  0.00    +0.116 A 
ATOM      7  N   UNL     1      16.918 -21.999   0.596  0.00  0.00    -0.223 NA
ATOM      8  C   UNL     1      16.635 -22.935   1.574  0.00  0.00    +0.220 A 
ATOM      9  N   UNL     1      16.515 -24.286   1.285  0.00  0.00    -0.283 N 
ATOM     36  H   UNL     1      16.313 -24.946   2.035  0.00  0.00    +0.155 HD
ATOM     37  N   UNL     1      16.459 -22.542   2.852  0.00  0.00    -0.214 NA
BRANCH   4   3
ATOM      1  C   UNL     1      14.885 -20.796   6.738  0.00  0.00    +0.020 A 
ATOM      2  C   UNL     1      15.046 -21.108   5.336  0.00  0.00    +0.013 A 
ATOM      3  C   UNL     1      16.328 -20.912   4.672  0.00  0.00    +0.019 A 
ATOM     38  C   UNL     1      17.437 -20.397   5.461  0.00  0.00    +0.120 A 
ATOM     39  N   UNL     1      17.252 -20.104   6.809  0.00  0.00    -0.263 NA
ATOM     40  C   UNL     1      16.022 -20.287   7.458  0.00  0.00    +0.111 A 
ENDBRANCH   4   3
ENDBRANCH  10   9
BRANCH  12  13
ATOM     13  N   UNL     1      14.566 -25.121  -3.216  0.00  0.00    -0.281 N 
ATOM     14  C   UNL     1      14.442 -24.322  -4.341  0.00  0.00    +0.248 C 
ATOM     30  O   UNL     1      15.160 -23.364  -4.590  0.00  0.00    -0.270 OA
ATOM     31  H   UNL     1      13.791 -25.758  -3.031  0.00  0.00    +0.155 HD
BRANCH  14  15
ATOM     15  C   UNL     1      13.355 -24.620  -5.322  0.00  0.00    +0.037 A 
ATOM     16  C   UNL     1      13.063 -23.709  -6.432  0.00  0.00    +0.013 A 
ATOM     17  C   UNL     1      11.998 -24.011  -7.355  0.00  0.00    +0.005 A 
ATOM     18  C   UNL     1      11.218 -25.233  -7.172  0.00  0.00    -0.033 A 
ATOM     28  C   UNL     1      11.533 -26.122  -6.066  0.00  0.00    +0.005 A 
ATOM     29  C   UNL     1      12.575 -25.828  -5.159  0.00  0.00    +0.013 A 
BRANCH  18  19
ATOM     19  C   UNL     1      10.049 -25.625  -8.096  0.00  0.00    +0.119 C 
BRANCH  19  20
ATOM     20  N   UNL     1       9.283 -24.516  -8.737  0.00  0.00    -0.302 NA
ATOM     21  C   UNL     1       7.780 -24.622  -8.462  0.00  0.00    +0.066 C 
ATOM     22  C   UNL     1       6.995 -23.441  -9.121  0.00  0.00    -0.064 C 
ATOM     23  N   UNL     1       7.271 -23.427 -10.626  0.00  0.00    +0.379 N 
ATOM     24  C   UNL     1       6.489 -22.353 -11.257  0.00  0.00    -0.096 C 
ATOM     25  H   UNL     1       6.914 -24.396 -11.044  0.00  0.00    -0.082 HD
ATOM     26  C   UNL     1       8.763 -23.324 -10.908  0.00  0.00    -0.064 C 
ATOM     27  C   UNL     1       9.537 -24.486 -10.224  0.00  0.00    +0.066 C 
ENDBRANCH  19  20
ENDBRANCH  18  19
ENDBRANCH  14  15
ENDBRANCH  12  13
TORSDOF 6
ENDMDL
MODEL 3
REMARK VINA RESULT:      -7.5     28.463     30.858
REMARK  Name = C:\Users\Docking\Desktop\test protocol\1iep_ligandH.pdb
REMARK  8 active torsions:
REMARK  status: ('A' for Active; 'I' for Inactive)
REMARK    1  A    between atoms: _5  and  _11
REMARK    2  A    between atoms: _19  and  _21
REMARK    3  A    between atoms: _22  and  _66
REMARK    4  A    between atoms: _27  and  _30
REMARK    5  A    between atoms: _32  and  _33
REMARK    6  A    between atoms: _38  and  _43
REMARK    7  A    between atoms: _43  and  _46
REMARK    8  A    between atoms: _53  and  _55
REMARK                            x       y       z     vdW  Elec       q    Type
REMARK                         _______ _______ _______ _____ _____    ______ ____
ROOT
ATOM     10  C   UNL     1      -5.216  -5.425  16.737  0.00  0.00    +0.038 A 
ATOM     11  C   UNL     1      -4.080  -5.657  15.920  0.00  0.00    +0.047 A 
ATOM     12  C   UNL     1      -2.877  -6.269  16.461  0.00  0.00    +0.035 A 
ATOM     32  C   UNL     1      -2.865  -6.635  17.839  0.00  0.00    +0.024 A 
ATOM     33  C   UNL     1      -4.011  -6.405  18.684  0.00  0.00    +0.007 A 
ATOM     34  C   UNL     1      -5.200  -5.800  18.156  0.00  0.00    -0.029 A 
ATOM     35  C   UNL     1      -6.396  -5.572  19.110  0.00  0.00    +0.045 C 
ENDROOT
BRANCH  10   9
ATOM      4  C   UNL     1      -9.013  -5.515  13.802  0.00  0.00    +0.077 A 
ATOM      5  C   UNL     1      -8.705  -6.841  13.348  0.00  0.00    +0.048 A 
ATOM      6  C   UNL     1      -7.557  -7.462  13.890  0.00  0.00    +0.116 A 
ATOM      7  N   UNL     1      -6.782  -6.798  14.816  0.00  0.00    -0.223 NA
ATOM      8  C   UNL     1      -7.106  -5.519  15.230  0.00  0.00    +0.220 A 
ATOM      9  N   UNL     1      -6.346  -4.835  16.166  0.00  0.00    -0.283 N 
ATOM     36  H   UNL     1      -6.614  -3.890  16.440  0.00  0.00    +0.155 HD
ATOM     37  N   UNL     1      -8.196  -4.904  14.727  0.00  0.00    -0.214 NA
BRANCH   4   3
ATOM      1  C   UNL     1     -11.377  -2.560  12.814  0.00  0.00    +0.020 A 
ATOM      2  C   UNL     1     -10.211  -3.272  13.283  0.00  0.00    +0.013 A 
ATOM      3  C   UNL     1     -10.194  -4.729  13.325  0.00  0.00    +0.019 A 
ATOM     38  C   UNL     1     -11.382  -5.441  12.880  0.00  0.00    +0.120 A 
ATOM     39  N   UNL     1     -12.491  -4.729  12.434  0.00  0.00    -0.263 NA
ATOM     40  C   UNL     1     -12.520  -3.327  12.391  0.00  0.00    +0.111 A 
ENDBRANCH   4   3
ENDBRANCH  10   9
BRANCH  12  13
ATOM     13  N   UNL     1      -1.690  -6.522  15.682  0.00  0.00    -0.281 N 
ATOM     14  C   UNL     1      -0.384  -6.170  15.981  0.00  0.00    +0.248 C 
ATOM     30  O   UNL     1      -0.064  -5.392  16.867  0.00  0.00    -0.270 OA
ATOM     31  H   UNL     1      -1.830  -7.021  14.803  0.00  0.00    +0.155 HD
BRANCH  14  15
ATOM     15  C   UNL     1       0.726  -6.756  15.169  0.00  0.00    +0.037 A 
ATOM     16  C   UNL     1       2.108  -6.298  15.329  0.00  0.00    +0.013 A 
ATOM     17  C   UNL     1       3.157  -6.868  14.521  0.00  0.00    +0.005 A 
ATOM     18  C   UNL     1       2.826  -7.904  13.545  0.00  0.00    -0.033 A 
ATOM     28  C   UNL     1       1.447  -8.343  13.411  0.00  0.00    +0.005 A 
ATOM     29  C   UNL     1       0.417  -7.786  14.201  0.00  0.00    +0.013 A 
BRANCH  18  19
ATOM     19  C   UNL     1       3.878  -8.553  12.626  0.00  0.00    +0.119 C 
BRANCH  19  20
ATOM     20  N   UNL     1       5.107  -7.759  12.326  0.00  0.00    -0.302 NA
ATOM     21  C   UNL     1       5.489  -7.830  10.845  0.00  0.00    +0.066 C 
ATOM     22  C   UNL     1       6.764  -6.976  10.545  0.00  0.00    -0.064 C 
ATOM     23  N   UNL     1       7.917  -7.460  11.425  0.00  0.00    +0.379 N 
ATOM     24  C   UNL     1       9.133  -6.698  11.104  0.00  0.00    -0.096 C 
ATOM     25  H   UNL     1       8.111  -8.528  11.172  0.00  0.00    -0.082 HD
ATOM     26  C   UNL     1       7.545  -7.396  12.900  0.00  0.00    -0.064 C 
ATOM     27  C   UNL     1       6.260  -8.223  13.182  0.00  0.00    +0.066 C 
ENDBRANCH  19  20
ENDBRANCH  18  19
ENDBRANCH  14  15
ENDBRANCH  12  13
TORSDOF 6
ENDMDL
MODEL 4
REMARK VINA RESULT:      -7.4      4.496      5.651
REMARK  Name = C:\Users\Docking\Desktop\test protocol\1iep_ligandH.pdb
REMARK  8 active torsions:
REMARK  status: ('A' for Active; 'I' for Inactive)
REMARK    1  A    between atoms: _5  and  _11
REMARK    2  A    between atoms: _19  and  _21
REMARK    3  A    between atoms: _22  and  _66
REMARK    4  A    between atoms: _27  and  _30
REMARK    5  A    between atoms: _32  and  _33
REMARK    6  A    between atoms: _38  and  _43
REMARK    7  A    between atoms: _43  and  _46
REMARK    8  A    between atoms: _53  and  _55
REMARK                            x       y       z     vdW  Elec       q    Type
REMARK                         _______ _______ _______ _____ _____    ______ ____
ROOT
ATOM     10  C   UNL     1      13.316 -26.137  -2.973  0.00  0.00    +0.038 A 
ATOM     11  C   UNL     1      14.127 -26.406  -1.841  0.00  0.00    +0.047 A 
ATOM     12  C   UNL     1      15.484 -25.888  -1.747  0.00  0.00    +0.035 A 
ATOM     32  C   UNL     1      15.981 -25.097  -2.823  0.00  0.00    +0.024 A 
ATOM     33  C   UNL     1      15.171 -24.815  -3.982  0.00  0.00    +0.007 A 
ATOM     34  C   UNL     1      13.833 -25.325  -4.081  0.00  0.00    -0.029 A 
ATOM     35  C   UNL     1      13.012 -24.995  -5.350  0.00  0.00    +0.045 C 
ENDROOT
BRANCH  10   9
ATOM      4  C   UNL     1      10.221 -29.728  -3.721  0.00  0.00    +0.077 A 
ATOM      5  C   UNL     1      11.270 -30.633  -4.093  0.00  0.00    +0.048 A 
ATOM      6  C   UNL     1      12.592 -30.133  -4.086  0.00  0.00    +0.116 A 
ATOM      7  N   UNL     1      12.834 -28.824  -3.731  0.00  0.00    -0.223 NA
ATOM      8  C   UNL     1      11.800 -27.977  -3.379  0.00  0.00    +0.220 A 
ATOM      9  N   UNL     1      12.022 -26.659  -3.011  0.00  0.00    -0.283 N 
ATOM     36  H   UNL     1      11.231 -26.064  -2.765  0.00  0.00    +0.155 HD
ATOM     37  N   UNL     1      10.529 -28.430  -3.380  0.00  0.00    -0.214 NA
BRANCH   4   3
ATOM      1  C   UNL     1       6.715 -31.190  -4.654  0.00  0.00    +0.020 A 
ATOM      2  C   UNL     1       8.116 -30.847  -4.747  0.00  0.00    +0.013 A 
ATOM      3  C   UNL     1       8.774 -30.108  -3.677  0.00  0.00    +0.019 A 
ATOM     38  C   UNL     1       7.980 -29.729  -2.517  0.00  0.00    +0.120 A 
ATOM     39  N   UNL     1       6.633 -30.072  -2.457  0.00  0.00    -0.263 NA
ATOM     40  C   UNL     1       5.989 -30.781  -3.481  0.00  0.00    +0.111 A 
ENDBRANCH   4   3
ENDBRANCH  10   9
BRANCH  12  13
ATOM     13  N   UNL     1      16.356 -26.136  -0.626  0.00  0.00    -0.281 N 
ATOM     14  C   UNL     1      17.511 -26.901  -0.598  0.00  0.00    +0.248 C 
ATOM     30  O   UNL     1      17.854 -27.667  -1.486  0.00  0.00    -0.270 OA
ATOM     31  H   UNL     1      16.091 -25.692   0.254  0.00  0.00    +0.155 HD
BRANCH  14  15
ATOM     15  C   UNL     1      18.407 -26.813   0.595  0.00  0.00    +0.037 A 
ATOM     16  C   UNL     1      17.890 -26.411   1.905  0.00  0.00    +0.013 A 
ATOM     17  C   UNL     1      18.779 -26.318   3.036  0.00  0.00    +0.005 A 
ATOM     18  C   UNL     1      20.195 -26.629   2.861  0.00  0.00    -0.033 A 
ATOM     28  C   UNL     1      20.681 -27.031   1.551  0.00  0.00    +0.005 A 
ATOM     29  C   UNL     1      19.812 -27.122   0.440  0.00  0.00    +0.013 A 
BRANCH  18  19
ATOM     19  C   UNL     1      21.220 -26.537   4.007  0.00  0.00    +0.119 C 
BRANCH  19  20
ATOM     20  N   UNL     1      21.230 -27.646   5.007  0.00  0.00    -0.302 NA
ATOM     21  C   UNL     1      20.139 -28.683   4.725  0.00  0.00    +0.066 C 
ATOM     22  C   UNL     1      20.179 -29.848   5.767  0.00  0.00    -0.064 C 
ATOM     23  N   UNL     1      20.029 -29.273   7.177  0.00  0.00    +0.379 N 
ATOM     24  C   UNL     1      20.008 -30.370   8.155  0.00  0.00    -0.096 C 
ATOM     25  H   UNL     1      19.043 -28.755   7.228  0.00  0.00    -0.082 HD
ATOM     26  C   UNL     1      21.109 -28.239   7.464  0.00  0.00    -0.064 C 
ATOM     27  C   UNL     1      21.080 -27.101   6.406  0.00  0.00    +0.066 C 
ENDBRANCH  19  20
ENDBRANCH  18  19
ENDBRANCH  14  15
ENDBRANCH  12  13
TORSDOF 6
ENDMDL
MODEL 5
REMARK VINA RESULT:      -7.1      3.711      6.428
REMARK  Name = C:\Users\Docking\Desktop\test protocol\1iep_ligandH.pdb
REMARK  8 active torsions:
REMARK  status: ('A' for Active; 'I' for Inactive)
REMARK    1  A    between atoms: _5  and  _11
REMARK    2  A    between atoms: _19  and  _21
REMARK    3  A    between atoms: _22  and  _66
REMARK    4  A    between atoms: _27  and  _30
REMARK    5  A    between atoms: _32  and  _33
REMARK    6  A    between atoms: _38  and  _43
REMARK    7  A    between atoms: _43  and  _46
REMARK    8  A    between atoms: _53  and  _55
REMARK                            x       y       z     vdW  Elec       q    Type
REMARK                         _______ _______ _______ _____ _____    ______ ____
ROOT
ATOM     10  C   UNL     1      10.498 -27.112  -5.454  0.00  0.00    +0.038 A 
ATOM     11  C   UNL     1      11.327 -26.485  -4.489  0.00  0.00    +0.047 A 
ATOM     12  C   UNL     1      12.200 -27.265  -3.626  0.00  0.00    +0.035 A 
ATOM     32  C   UNL     1      12.206 -28.683  -3.775  0.00  0.00    +0.024 A 
ATOM     33  C   UNL     1      11.369 -29.337  -4.750  0.00  0.00    +0.007 A 
ATOM     34  C   UNL     1      10.504 -28.572  -5.602  0.00  0.00    -0.029 A 
ATOM     35  C   UNL     1       9.623 -29.327  -6.625  0.00  0.00    +0.045 C 
ENDROOT
BRANCH  10   9
ATOM      4  C   UNL     1       9.803 -24.141  -9.160  0.00  0.00    +0.077 A 
ATOM      5  C   UNL     1      11.194 -24.159  -9.511  0.00  0.00    +0.048 A 
ATOM      6  C   UNL     1      12.056 -24.940  -8.708  0.00  0.00    +0.116 A 
ATOM      7  N   UNL     1      11.554 -25.646  -7.637  0.00  0.00    -0.223 NA
ATOM      8  C   UNL     1      10.207 -25.606  -7.324  0.00  0.00    +0.220 A 
ATOM      9  N   UNL     1       9.679 -26.314  -6.256  0.00  0.00    -0.283 N 
ATOM     36  H   UNL     1       8.681 -26.252  -6.054  0.00  0.00    +0.155 HD
ATOM     37  N   UNL     1       9.364 -24.867  -8.075  0.00  0.00    -0.214 NA
BRANCH   4   3
ATOM      1  C   UNL     1       6.652 -21.997 -10.039  0.00  0.00    +0.020 A 
ATOM      2  C   UNL     1       7.624 -22.734  -9.266  0.00  0.00    +0.013 A 
ATOM      3  C   UNL     1       8.767 -23.367  -9.913  0.00  0.00    +0.019 A 
ATOM     38  C   UNL     1       8.898 -23.233 -11.356  0.00  0.00    +0.120 A 
ATOM     39  N   UNL     1       7.945 -22.518 -12.075  0.00  0.00    -0.263 NA
ATOM     40  C   UNL     1       6.840 -21.906 -11.463  0.00  0.00    +0.111 A 
ENDBRANCH   4   3
ENDBRANCH  10   9
BRANCH  12  13
ATOM     13  N   UNL     1      13.058 -26.685  -2.623  0.00  0.00    -0.281 N 
ATOM     14  C   UNL     1      14.376 -26.281  -2.760  0.00  0.00    +0.248 C 
ATOM     30  O   UNL     1      15.088 -26.557  -3.714  0.00  0.00    -0.270 OA
ATOM     31  H   UNL     1      12.643 -26.555  -1.700  0.00  0.00    +0.155 HD
BRANCH  14  15
ATOM     15  C   UNL     1      14.998 -25.466  -1.672  0.00  0.00    +0.037 A 
ATOM     16  C   UNL     1      16.147 -25.963  -0.911  0.00  0.00    +0.013 A 
ATOM     17  C   UNL     1      16.717 -25.163   0.144  0.00  0.00    +0.005 A 
ATOM     18  C   UNL     1      16.139 -23.856   0.443  0.00  0.00    -0.033 A 
ATOM     28  C   UNL     1      15.002 -23.384  -0.331  0.00  0.00    +0.005 A 
ATOM     29  C   UNL     1      14.440 -24.166  -1.365  0.00  0.00    +0.013 A 
BRANCH  18  19
ATOM     19  C   UNL     1      16.669 -22.944   1.565  0.00  0.00    +0.119 C 
BRANCH  19  20
ATOM     20  N   UNL     1      17.853 -22.090   1.250  0.00  0.00    -0.302 NA
ATOM     21  C   UNL     1      18.871 -22.076   2.394  0.00  0.00    +0.066 C 
ATOM     22  C   UNL     1      20.114 -21.196   2.039  0.00  0.00    -0.064 C 
ATOM     23  N   UNL     1      19.652 -19.776   1.707  0.00  0.00    +0.379 N 
ATOM     24  C   UNL     1      20.823 -18.932   1.430  0.00  0.00    -0.096 C 
ATOM     25  H   UNL     1      19.146 -19.366   2.612  0.00  0.00    -0.082 HD
ATOM     26  C   UNL     1      18.637 -19.781   0.573  0.00  0.00    -0.064 C 
ATOM     27  C   UNL     1      17.420 -20.682   0.924  0.00  0.00    +0.066 C 
ENDBRANCH  19  20
ENDBRANCH  18  19
ENDBRANCH  14  15
ENDBRANCH  12  13
TORSDOF 6
ENDMDL
