MODEL 1
REMARK VINA RESULT:      -8.4      0.000      0.000
REMARK  Name = C:\Users\Docking\Desktop\test protocol\1iep_ligandH.pdb
REMARK  8 active torsions:
REMARK  status: ('A' for Active; 'I' for Inactive)
REMARK    1  A    between atoms: _5  and  _11
REMARK    2  A    between atoms: _19  and  _21
REMARK    3  A    between atoms: _22  and  _66
REMARK    4  A    between atoms: _27  and  _30
REMARK    5  A    between atoms: _32  and  _33
REMARK    6  A    between atoms: _38  and  _43
REMARK    7  A    between atoms: _43  and  _46
REMARK    8  A    between atoms: _53  and  _55
REMARK                            x       y       z     vdW  Elec       q    Type
REMARK                         _______ _______ _______ _____ _____    ______ ____
ROOT
ATOM     10  C   UNL     1       9.791  15.581   4.311  0.00  0.00    +0.038 A 
ATOM     11  C   UNL     1      10.816  14.834   3.677  0.00  0.00    +0.047 A 
ATOM     12  C   UNL     1      10.612  14.238   2.366  0.00  0.00    +0.035 A 
ATOM     32  C   UNL     1       9.352  14.427   1.727  0.00  0.00    +0.024 A 
ATOM     33  C   UNL     1       8.299  15.183   2.357  0.00  0.00    +0.007 A 
ATOM     34  C   UNL     1       8.493  15.770   3.652  0.00  0.00    -0.029 A 
ATOM     35  C   UNL     1       7.326  16.565   4.283  0.00  0.00    +0.045 C 
ENDROOT
BRANCH  10   9
ATOM      4  C   UNL     1       9.659  15.411   9.106  0.00  0.00    +0.077 A 
ATOM      5  C   UNL     1       9.013  14.130   9.102  0.00  0.00    +0.048 A 
ATOM      6  C   UNL     1       8.725  13.552   7.844  0.00  0.00    +0.116 A 
ATOM      7  N   UNL     1       9.064  14.215   6.685  0.00  0.00    -0.223 NA
ATOM      8  C   UNL     1       9.685  15.450   6.724  0.00  0.00    +0.220 A 
ATOM      9  N   UNL     1      10.041  16.131   5.571  0.00  0.00    -0.283 N 
ATOM     36  H   UNL     1      10.491  17.043   5.642  0.00  0.00    +0.155 HD
ATOM     37  N   UNL     1       9.968  16.023   7.912  0.00  0.00    -0.214 NA
BRANCH   4   3
ATOM      1  C   UNL     1       9.488  17.148  12.607  0.00  0.00    +0.020 A 
ATOM      2  C   UNL     1       9.078  16.432  11.420  0.00  0.00    +0.013 A 
ATOM      3  C   UNL     1      10.031  16.148  10.355  0.00  0.00    +0.019 A 
ATOM     38  C   UNL     1      11.402  16.604  10.522  0.00  0.00    +0.120 A 
ATOM     39  N   UNL     1      11.768  17.292  11.675  0.00  0.00    -0.263 NA
ATOM     40  C   UNL     1      10.860  17.573  12.706  0.00  0.00    +0.111 A 
ENDBRANCH   4   3
ENDBRANCH  10   9
BRANCH  12  13
ATOM     13  N   UNL     1      11.613  13.462   1.677  0.00  0.00    -0.281 N 
ATOM     14  C   UNL     1      12.621  13.919   0.844  0.00  0.00    +0.248 C 
ATOM     30  O   UNL     1      12.683  15.053   0.392  0.00  0.00    -0.270 OA
ATOM     31  H   UNL     1      11.574  12.453   1.821  0.00  0.00    +0.155 HD
BRANCH  14  15
ATOM     15  C   UNL     1      13.709  12.977   0.442  0.00  0.00    +0.037 A 
ATOM     16  C   UNL     1      14.302  12.046   1.406  0.00  0.00    +0.013 A 
ATOM     17  C   UNL     1      15.363  11.159   0.997  0.00  0.00    +0.005 A 
ATOM     18  C   UNL     1      15.836  11.199  -0.385  0.00  0.00    -0.033 A 
ATOM     28  C   UNL     1      15.226  12.129  -1.321  0.00  0.00    +0.005 A 
ATOM     29  C   UNL     1      14.188  13.000  -0.923  0.00  0.00    +0.013 A 
BRANCH  18  19
ATOM     19  C   UNL     1      16.977  10.304  -0.904  0.00  0.00    +0.119 C 
BRANCH  19  20
ATOM     20  N   UNL     1      17.869   9.674   0.115  0.00  0.00    -0.302 NA
ATOM     21  C   UNL     1      19.350   9.860  -0.225  0.00  0.00    +0.066 C 
ATOM     22  C   UNL     1      20.270   9.214   0.862  0.00  0.00    -0.064 C 
ATOM     23  N   UNL     1      19.927   7.729   0.999  0.00  0.00    +0.379 N 
ATOM     24  C   UNL     1      20.829   7.107   1.979  0.00  0.00    -0.096 C 
ATOM     25  H   UNL     1      20.115   7.247   0.012  0.00  0.00    -0.082 HD
ATOM     26  C   UNL     1      18.455   7.536   1.335  0.00  0.00    -0.064 C 
ATOM     27  C   UNL     1      17.551   8.206   0.263  0.00  0.00    +0.066 C 
ENDBRANCH  19  20
ENDBRANCH  18  19
ENDBRANCH  14  15
ENDBRANCH  12  13
TORSDOF 6
ENDMDL
MODEL 2
REMARK VINA RESULT:      -8.3      3.996     14.354
REMARK  Name = C:\Users\Docking\Desktop\test protocol\1iep_ligandH.pdb
REMARK  8 active torsions:
REMARK  status: ('A' for Active; 'I' for Inactive)
REMARK    1  A    between atoms: _5  and  _11
REMARK    2  A    between atoms: _19  and  _21
REMARK    3  A    between atoms: _22  and  _66
REMARK    4  A    between atoms: _27  and  _30
REMARK    5  A    between atoms: _32  and  _33
REMARK    6  A    between atoms: _38  and  _43
REMARK    7  A    between atoms: _43  and  _46
REMARK    8  A    between atoms: _53  and  _55
REMARK                            x       y       z     vdW  Elec       q    Type
REMARK                         _______ _______ _______ _____ _____    ______ ____
ROOT
ATOM     10  C   UNL     1      20.159   7.422  -0.298  0.00  0.00    +0.038 A 
ATOM     11  C   UNL     1      18.986   8.164  -0.006  0.00  0.00    +0.047 A 
ATOM     12  C   UNL     1      19.063   9.492   0.583  0.00  0.00    +0.035 A 
ATOM     32  C   UNL     1      20.351  10.035   0.860  0.00  0.00    +0.024 A 
ATOM     33  C   UNL     1      21.554   9.295   0.570  0.00  0.00    +0.007 A 
ATOM     34  C   UNL     1      21.485   7.983  -0.009  0.00  0.00    -0.029 A 
ATOM     35  C   UNL     1      22.807   7.233  -0.292  0.00  0.00    +0.045 C 
ENDROOT
BRANCH  10   9
ATOM      4  C   UNL     1      19.483   2.683   0.050  0.00  0.00    +0.077 A 
ATOM      5  C   UNL     1      19.413   2.739   1.482  0.00  0.00    +0.048 A 
ATOM      6  C   UNL     1      19.563   4.005   2.090  0.00  0.00    +0.116 A 
ATOM      7  N   UNL     1      19.767   5.126   1.314  0.00  0.00    -0.223 NA
ATOM      8  C   UNL     1      19.831   5.037  -0.064  0.00  0.00    +0.220 A 
ATOM      9  N   UNL     1      20.028   6.152  -0.864  0.00  0.00    -0.283 N 
ATOM     36  H   UNL     1      20.077   6.044  -1.877  0.00  0.00    +0.155 HD
ATOM     37  N   UNL     1      19.692   3.839  -0.669  0.00  0.00    -0.214 NA
BRANCH   4   3
ATOM      1  C   UNL     1      17.980  -0.272  -2.025  0.00  0.00    +0.020 A 
ATOM      2  C   UNL     1      18.063   0.956  -1.269  0.00  0.00    +0.013 A 
ATOM      3  C   UNL     1      19.340   1.419  -0.739  0.00  0.00    +0.019 A 
ATOM     38  C   UNL     1      20.522   0.611  -0.996  0.00  0.00    +0.120 A 
ATOM     39  N   UNL     1      20.411  -0.568  -1.727  0.00  0.00    -0.263 NA
ATOM     40  C   UNL     1      19.187  -1.025  -2.239  0.00  0.00    +0.111 A 
ENDBRANCH   4   3
ENDBRANCH  10   9
BRANCH  12  13
ATOM     13  N   UNL     1      17.906  10.288   0.909  0.00  0.00    -0.281 N 
ATOM     14  C   UNL     1      17.246  11.202   0.103  0.00  0.00    +0.248 C 
ATOM     30  O   UNL     1      17.683  11.632  -0.955  0.00  0.00    -0.270 OA
ATOM     31  H   UNL     1      17.527  10.164   1.848  0.00  0.00    +0.155 HD
BRANCH  14  15
ATOM     15  C   UNL     1      15.917  11.724   0.542  0.00  0.00    +0.037 A 
ATOM     16  C   UNL     1      15.210  11.140   1.685  0.00  0.00    +0.013 A 
ATOM     17  C   UNL     1      13.921  11.652   2.077  0.00  0.00    +0.005 A 
ATOM     18  C   UNL     1      13.330  12.756   1.325  0.00  0.00    -0.033 A 
ATOM     28  C   UNL     1      14.055  13.320   0.198  0.00  0.00    +0.005 A 
ATOM     29  C   UNL     1      15.318  12.820  -0.190  0.00  0.00    +0.013 A 
BRANCH  18  19
ATOM     19  C   UNL     1      11.949  13.351   1.659  0.00  0.00    +0.119 C 
BRANCH  19  20
ATOM     20  N   UNL     1      11.925  14.656   2.385  0.00  0.00    -0.302 NA
ATOM     21  C   UNL     1      10.918  14.653   3.538  0.00  0.00    +0.066 C 
ATOM     22  C   UNL     1      10.921  16.018   4.301  0.00  0.00    -0.064 C 
ATOM     23  N   UNL     1      10.615  17.149   3.317  0.00  0.00    +0.379 N 
ATOM     24  C   UNL     1      10.561  18.427   4.042  0.00  0.00    -0.096 C 
ATOM     25  H   UNL     1       9.604  16.960   2.889  0.00  0.00    -0.082 HD
ATOM     26  C   UNL     1      11.611  17.158   2.166  0.00  0.00    -0.064 C 
ATOM     27  C   UNL     1      11.620  15.787   1.433  0.00  0.00    +0.066 C 
ENDBRANCH  19  20
ENDBRANCH  18  19
ENDBRANCH  14  15
ENDBRANCH  12  13
TORSDOF 6
ENDMDL
MODEL 3
REMARK VINA RESULT:      -8.2      5.054     14.319
REMARK  Name = C:\Users\Docking\Desktop\test protocol\1iep_ligandH.pdb
REMARK  8 active torsions:
REMARK  status: ('A' for Active; 'I' for Inactive)
REMARK    1  A    between atoms: _5  and  _11
REMARK    2  A    between atoms: _19  and  _21
REMARK    3  A    between atoms: _22  and  _66
REMARK    4  A    between atoms: _27  and  _30
REMARK    5  A    between atoms: _32  and  _33
REMARK    6  A    between atoms: _38  and  _43
REMARK    7  A    between atoms: _43  and  _46
REMARK    8  A    between atoms: _53  and  _55
REMARK                            x       y       z     vdW  Elec       q    Type
REMARK                         _______ _______ _______ _____ _____    ______ ____
ROOT
ATOM     10  C   UNL     1      20.219   7.740  -0.420  0.00  0.00    +0.038 A 
ATOM     11  C   UNL     1      18.974   8.419  -0.468  0.00  0.00    +0.047 A 
ATOM     12  C   UNL     1      18.840   9.780   0.028  0.00  0.00    +0.035 A 
ATOM     32  C   UNL     1      19.996  10.421   0.563  0.00  0.00    +0.024 A 
ATOM     33  C   UNL     1      21.268   9.745   0.620  0.00  0.00    +0.007 A 
ATOM     34  C   UNL     1      21.405   8.401   0.135  0.00  0.00    -0.029 A 
ATOM     35  C   UNL     1      22.792   7.724   0.227  0.00  0.00    +0.045 C 
ENDROOT
BRANCH  10   9
ATOM      4  C   UNL     1      19.674   2.997   0.078  0.00  0.00    +0.077 A 
ATOM      5  C   UNL     1      19.236   3.130   1.437  0.00  0.00    +0.048 A 
ATOM      6  C   UNL     1      19.171   4.436   1.973  0.00  0.00    +0.116 A 
ATOM      7  N   UNL     1      19.521   5.521   1.198  0.00  0.00    -0.223 NA
ATOM      8  C   UNL     1      19.941   5.357  -0.109  0.00  0.00    +0.220 A 
ATOM      9  N   UNL     1      20.290   6.434  -0.910  0.00  0.00    -0.283 N 
ATOM     36  H   UNL     1      20.602   6.270  -1.867  0.00  0.00    +0.155 HD
ATOM     37  N   UNL     1      20.013   4.120  -0.644  0.00  0.00    -0.214 NA
BRANCH   4   3
ATOM      1  C   UNL     1      18.805  -0.336  -1.776  0.00  0.00    +0.020 A 
ATOM      2  C   UNL     1      18.636   0.928  -1.096  0.00  0.00    +0.013 A 
ATOM      3  C   UNL     1      19.792   1.683  -0.631  0.00  0.00    +0.019 A 
ATOM     38  C   UNL     1      21.116   1.129  -0.872  0.00  0.00    +0.120 A 
ATOM     39  N   UNL     1      21.247  -0.091  -1.527  0.00  0.00    -0.263 NA
ATOM     40  C   UNL     1      20.142  -0.828  -1.978  0.00  0.00    +0.111 A 
ENDBRANCH   4   3
ENDBRANCH  10   9
BRANCH  12  13
ATOM     13  N   UNL     1      17.601  10.517   0.013  0.00  0.00    -0.281 N 
ATOM     14  C   UNL     1      16.519  10.381   0.868  0.00  0.00    +0.248 C 
ATOM     30  O   UNL     1      16.367   9.453   1.648  0.00  0.00    -0.270 OA
ATOM     31  H   UNL     1      17.510  11.224  -0.716  0.00  0.00    +0.155 HD
BRANCH  14  15
ATOM     15  C   UNL     1      15.444  11.419   0.842  0.00  0.00    +0.037 A 
ATOM     16  C   UNL     1      15.498  12.546  -0.092  0.00  0.00    +0.013 A 
ATOM     17  C   UNL     1      14.457  13.543  -0.084  0.00  0.00    +0.005 A 
ATOM     18  C   UNL     1      13.351  13.416   0.862  0.00  0.00    -0.033 A 
ATOM     28  C   UNL     1      13.320  12.285   1.774  0.00  0.00    +0.005 A 
ATOM     29  C   UNL     1      14.339  11.307   1.770  0.00  0.00    +0.013 A 
BRANCH  18  19
ATOM     19  C   UNL     1      12.208  14.444   0.955  0.00  0.00    +0.119 C 
BRANCH  19  20
ATOM     20  N   UNL     1      10.826  13.913   1.151  0.00  0.00    -0.302 NA
ATOM     21  C   UNL     1      10.050  13.830  -0.167  0.00  0.00    +0.066 C 
ATOM     22  C   UNL     1       8.614  13.252   0.054  0.00  0.00    -0.064 C 
ATOM     23  N   UNL     1       7.868  14.120   1.068  0.00  0.00    +0.379 N 
ATOM     24  C   UNL     1       6.498  13.613   1.234  0.00  0.00    -0.096 C 
ATOM     25  H   UNL     1       7.799  15.150   0.646  0.00  0.00    -0.082 HD
ATOM     26  C   UNL     1       8.634  14.210   2.380  0.00  0.00    -0.064 C 
ATOM     27  C   UNL     1      10.069  14.758   2.146  0.00  0.00    +0.066 C 
ENDBRANCH  19  20
ENDBRANCH  18  19
ENDBRANCH  14  15
ENDBRANCH  12  13
TORSDOF 6
ENDMDL
MODEL 4
REMARK VINA RESULT:      -7.9     25.391     29.019
REMARK  Name = C:\Users\Docking\Desktop\test protocol\1iep_ligandH.pdb
REMARK  8 active torsions:
REMARK  status: ('A' for Active; 'I' for Inactive)
REMARK    1  A    between atoms: _5  and  _11
REMARK    2  A    between atoms: _19  and  _21
REMARK    3  A    between atoms: _22  and  _66
REMARK    4  A    between atoms: _27  and  _30
REMARK    5  A    between atoms: _32  and  _33
REMARK    6  A    between atoms: _38  and  _43
REMARK    7  A    between atoms: _43  and  _46
REMARK    8  A    between atoms: _53  and  _55
REMARK                            x       y       z     vdW  Elec       q    Type
REMARK                         _______ _______ _______ _____ _____    ______ ____
ROOT
ATOM     10  C   UNL     1      11.162  -8.580  22.437  0.00  0.00    +0.038 A 
ATOM     11  C   UNL     1      12.046  -7.471  22.475  0.00  0.00    +0.047 A 
ATOM     12  C   UNL     1      12.384  -6.821  23.731  0.00  0.00    +0.035 A 
ATOM     32  C   UNL     1      11.805  -7.328  24.931  0.00  0.00    +0.024 A 
ATOM     33  C   UNL     1      10.904  -8.453  24.911  0.00  0.00    +0.007 A 
ATOM     34  C   UNL     1      10.565  -9.097  23.674  0.00  0.00    -0.029 A 
ATOM     35  C   UNL     1       9.588 -10.295  23.711  0.00  0.00    +0.045 C 
ENDROOT
BRANCH  10   9
ATOM      4  C   UNL     1      11.957 -11.848  19.013  0.00  0.00    +0.077 A 
ATOM      5  C   UNL     1      13.060 -12.419  19.731  0.00  0.00    +0.048 A 
ATOM      6  C   UNL     1      13.395 -11.837  20.974  0.00  0.00    +0.116 A 
ATOM      7  N   UNL     1      12.673 -10.766  21.454  0.00  0.00    -0.223 NA
ATOM      8  C   UNL     1      11.617 -10.238  20.736  0.00  0.00    +0.220 A 
ATOM      9  N   UNL     1      10.872  -9.166  21.203  0.00  0.00    -0.283 N 
ATOM     36  H   UNL     1      10.105  -8.801  20.639  0.00  0.00    +0.155 HD
ATOM     37  N   UNL     1      11.278 -10.775  19.545  0.00  0.00    -0.214 NA
BRANCH   4   3
ATOM      1  C   UNL     1      11.829 -12.926  15.255  0.00  0.00    +0.020 A 
ATOM      2  C   UNL     1      12.339 -12.430  16.512  0.00  0.00    +0.013 A 
ATOM      3  C   UNL     1      11.480 -12.353  17.687  0.00  0.00    +0.019 A 
ATOM     38  C   UNL     1      10.098 -12.791  17.555  0.00  0.00    +0.120 A 
ATOM     39  N   UNL     1       9.634 -13.263  16.331  0.00  0.00    -0.263 NA
ATOM     40  C   UNL     1      10.452 -13.340  15.193  0.00  0.00    +0.111 A 
ENDBRANCH   4   3
ENDBRANCH  10   9
BRANCH  12  13
ATOM     13  N   UNL     1      13.269  -5.687  23.831  0.00  0.00    -0.281 N 
ATOM     14  C   UNL     1      14.631  -5.646  23.584  0.00  0.00    +0.248 C 
ATOM     30  O   UNL     1      15.339  -6.633  23.446  0.00  0.00    -0.270 OA
ATOM     31  H   UNL     1      12.839  -4.808  24.118  0.00  0.00    +0.155 HD
BRANCH  14  15
ATOM     15  C   UNL     1      15.309  -4.317  23.492  0.00  0.00    +0.037 A 
ATOM     16  C   UNL     1      14.989  -3.374  22.417  0.00  0.00    +0.013 A 
ATOM     17  C   UNL     1      15.670  -2.105  22.341  0.00  0.00    +0.005 A 
ATOM     18  C   UNL     1      16.676  -1.772  23.346  0.00  0.00    -0.033 A 
ATOM     28  C   UNL     1      16.970  -2.723  24.405  0.00  0.00    +0.005 A 
ATOM     29  C   UNL     1      16.306  -3.968  24.482  0.00  0.00    +0.013 A 
BRANCH  18  19
ATOM     19  C   UNL     1      17.467  -0.450  23.332  0.00  0.00    +0.119 C 
BRANCH  19  20
ATOM     20  N   UNL     1      17.305   0.457  24.507  0.00  0.00    -0.302 NA
ATOM     21  C   UNL     1      15.896   1.050  24.586  0.00  0.00    +0.066 C 
ATOM     22  C   UNL     1      15.737   1.978  25.834  0.00  0.00    -0.064 C 
ATOM     23  N   UNL     1      16.789   3.087  25.778  0.00  0.00    +0.379 N 
ATOM     24  C   UNL     1      16.606   3.995  26.919  0.00  0.00    -0.096 C 
ATOM     25  H   UNL     1      16.612   3.674  24.847  0.00  0.00    -0.082 HD
ATOM     26  C   UNL     1      18.194   2.506  25.697  0.00  0.00    -0.064 C 
ATOM     27  C   UNL     1      18.331   1.562  24.470  0.00  0.00    +0.066 C 
ENDBRANCH  19  20
ENDBRANCH  18  19
ENDBRANCH  14  15
ENDBRANCH  12  13
TORSDOF 6
ENDMDL
MODEL 5
REMARK VINA RESULT:      -7.8      1.476     12.117
REMARK  Name = C:\Users\Docking\Desktop\test protocol\1iep_ligandH.pdb
REMARK  8 active torsions:
REMARK  status: ('A' for Active; 'I' for Inactive)
REMARK    1  A    between atoms: _5  and  _11
REMARK    2  A    between atoms: _19  and  _21
REMARK    3  A    between atoms: _22  and  _66
REMARK    4  A    between atoms: _27  and  _30
REMARK    5  A    between atoms: _32  and  _33
REMARK    6  A    between atoms: _38  and  _43
REMARK    7  A    between atoms: _43  and  _46
REMARK    8  A    between atoms: _53  and  _55
REMARK                            x       y       z     vdW  Elec       q    Type
REMARK                         _______ _______ _______ _____ _____    ______ ____
ROOT
ATOM     10  C   UNL     1      15.367  11.359  -1.074  0.00  0.00    +0.038 A 
ATOM     11  C   UNL     1      14.484  11.933  -0.123  0.00  0.00    +0.047 A 
ATOM     12  C   UNL     1      13.765  13.164  -0.411  0.00  0.00    +0.035 A 
ATOM     32  C   UNL     1      13.967  13.784  -1.679  0.00  0.00    +0.024 A 
ATOM     33  C   UNL     1      14.861  13.215  -2.657  0.00  0.00    +0.007 A 
ATOM     34  C   UNL     1      15.575  12.002  -2.377  0.00  0.00    -0.029 A 
ATOM     35  C   UNL     1      16.525  11.440  -3.460  0.00  0.00    +0.045 C 
ENDROOT
BRANCH  10   9
ATOM      4  C   UNL     1      19.189   8.969   0.573  0.00  0.00    +0.077 A 
ATOM      5  C   UNL     1      19.935  10.178   0.769  0.00  0.00    +0.048 A 
ATOM      6  C   UNL     1      19.301  11.394   0.427  0.00  0.00    +0.116 A 
ATOM      7  N   UNL     1      18.017  11.389  -0.073  0.00  0.00    -0.223 NA
ATOM      8  C   UNL     1      17.326  10.204  -0.251  0.00  0.00    +0.220 A 
ATOM      9  N   UNL     1      16.031  10.176  -0.745  0.00  0.00    -0.283 N 
ATOM     36  H   UNL     1      15.558   9.281  -0.868  0.00  0.00    +0.155 HD
ATOM     37  N   UNL     1      17.910   9.030   0.067  0.00  0.00    -0.214 NA
BRANCH   4   3
ATOM      1  C   UNL     1      21.276   6.041   2.114  0.00  0.00    +0.020 A 
ATOM      2  C   UNL     1      20.800   7.378   1.843  0.00  0.00    +0.013 A 
ATOM      3  C   UNL     1      19.720   7.606   0.891  0.00  0.00    +0.019 A 
ATOM     38  C   UNL     1      19.139   6.450   0.225  0.00  0.00    +0.120 A 
ATOM     39  N   UNL     1      19.619   5.174   0.505  0.00  0.00    -0.263 NA
ATOM     40  C   UNL     1      20.658   4.943   1.418  0.00  0.00    +0.111 A 
ENDBRANCH   4   3
ENDBRANCH  10   9
BRANCH  12  13
ATOM     13  N   UNL     1      12.862  13.798   0.517  0.00  0.00    -0.281 N 
ATOM     14  C   UNL     1      11.491  13.629   0.623  0.00  0.00    +0.248 C 
ATOM     30  O   UNL     1      10.799  13.064  -0.211  0.00  0.00    -0.270 OA
ATOM     31  H   UNL     1      13.285  14.451   1.178  0.00  0.00    +0.155 HD
BRANCH  14  15
ATOM     15  C   UNL     1      10.786  14.179   1.820  0.00  0.00    +0.037 A 
ATOM     16  C   UNL     1       9.328  14.323   1.843  0.00  0.00    +0.013 A 
ATOM     17  C   UNL     1       8.674  14.872   3.004  0.00  0.00    +0.005 A 
ATOM     18  C   UNL     1       9.478  15.280   4.154  0.00  0.00    -0.033 A 
ATOM     28  C   UNL     1      10.922  15.120   4.106  0.00  0.00    +0.005 A 
ATOM     29  C   UNL     1      11.567  14.584   2.969  0.00  0.00    +0.013 A 
BRANCH  18  19
ATOM     19  C   UNL     1       8.867  15.895   5.427  0.00  0.00    +0.119 C 
BRANCH  19  20
ATOM     20  N   UNL     1       9.736  15.962   6.639  0.00  0.00    -0.302 NA
ATOM     21  C   UNL     1       9.200  15.091   7.779  0.00  0.00    +0.066 C 
ATOM     22  C   UNL     1      10.134  15.156   9.032  0.00  0.00    -0.064 C 
ATOM     23  N   UNL     1      10.278  16.610   9.483  0.00  0.00    +0.379 N 
ATOM     24  C   UNL     1      11.108  16.668  10.695  0.00  0.00    -0.096 C 
ATOM     25  H   UNL     1       9.262  16.984   9.750  0.00  0.00    -0.082 HD
ATOM     26  C   UNL     1      10.808  17.483   8.354  0.00  0.00    -0.064 C 
ATOM     27  C   UNL     1       9.889  17.389   7.104  0.00  0.00    +0.066 C 
ENDBRANCH  19  20
ENDBRANCH  18  19
ENDBRANCH  14  15
ENDBRANCH  12  13
TORSDOF 6
ENDMDL
