MODEL 1
REMARK VINA RESULT:      -8.3      0.000      0.000
REMARK  Name = C:\Users\Docking\Desktop\test protocol\1iep_ligandH.pdb
REMARK  8 active torsions:
REMARK  status: ('A' for Active; 'I' for Inactive)
REMARK    1  A    between atoms: _5  and  _11
REMARK    2  A    between atoms: _19  and  _21
REMARK    3  A    between atoms: _22  and  _66
REMARK    4  A    between atoms: _27  and  _30
REMARK    5  A    between atoms: _32  and  _33
REMARK    6  A    between atoms: _38  and  _43
REMARK    7  A    between atoms: _43  and  _46
REMARK    8  A    between atoms: _53  and  _55
REMARK                            x       y       z     vdW  Elec       q    Type
REMARK                         _______ _______ _______ _____ _____    ______ ____
ROOT
ATOM     10  C   UNL     1      20.202  23.366  16.902  0.00  0.00    +0.038 A 
ATOM     11  C   UNL     1      19.726  24.624  16.451  0.00  0.00    +0.047 A 
ATOM     12  C   UNL     1      20.282  25.258  15.266  0.00  0.00    +0.035 A 
ATOM     32  C   UNL     1      21.321  24.582  14.562  0.00  0.00    +0.024 A 
ATOM     33  C   UNL     1      21.818  23.303  15.007  0.00  0.00    +0.007 A 
ATOM     34  C   UNL     1      21.275  22.674  16.177  0.00  0.00    -0.029 A 
ATOM     35  C   UNL     1      21.850  21.306  16.612  0.00  0.00    +0.045 C 
ENDROOT
BRANCH  10   9
ATOM      4  C   UNL     1      20.291  22.269  21.574  0.00  0.00    +0.077 A 
ATOM      5  C   UNL     1      21.595  22.843  21.745  0.00  0.00    +0.048 A 
ATOM      6  C   UNL     1      22.211  23.404  20.604  0.00  0.00    +0.116 A 
ATOM      7  N   UNL     1      21.563  23.387  19.388  0.00  0.00    -0.223 NA
ATOM      8  C   UNL     1      20.306  22.824  19.257  0.00  0.00    +0.220 A 
ATOM      9  N   UNL     1      19.632  22.803  18.046  0.00  0.00    -0.283 N 
ATOM     36  H   UNL     1      18.710  22.372  17.990  0.00  0.00    +0.155 HD
ATOM     37  N   UNL     1      19.697  22.281  20.332  0.00  0.00    -0.214 NA
BRANCH   4   3
ATOM      1  C   UNL     1      19.327  20.262  24.790  0.00  0.00    +0.020 A 
ATOM      2  C   UNL     1      20.128  20.846  23.739  0.00  0.00    +0.013 A 
ATOM      3  C   UNL     1      19.509  21.641  22.686  0.00  0.00    +0.019 A 
ATOM     38  C   UNL     1      18.066  21.828  22.726  0.00  0.00    +0.120 A 
ATOM     39  N   UNL     1      17.321  21.252  23.750  0.00  0.00    -0.263 NA
ATOM     40  C   UNL     1      17.905  20.484  24.768  0.00  0.00    +0.111 A 
ENDBRANCH   4   3
ENDBRANCH  10   9
BRANCH  12  13
ATOM     13  N   UNL     1      19.845  26.537  14.766  0.00  0.00    -0.281 N 
ATOM     14  C   UNL     1      19.260  26.818  13.542  0.00  0.00    +0.248 C 
ATOM     30  O   UNL     1      19.219  26.040  12.600  0.00  0.00    -0.270 OA
ATOM     31  H   UNL     1      19.983  27.333  15.389  0.00  0.00    +0.155 HD
BRANCH  14  15
ATOM     15  C   UNL     1      18.644  28.163  13.327  0.00  0.00    +0.037 A 
ATOM     16  C   UNL     1      17.409  28.319  12.554  0.00  0.00    +0.013 A 
ATOM     17  C   UNL     1      16.846  29.630  12.348  0.00  0.00    +0.005 A 
ATOM     18  C   UNL     1      17.517  30.796  12.918  0.00  0.00    -0.033 A 
ATOM     28  C   UNL     1      18.738  30.612  13.685  0.00  0.00    +0.005 A 
ATOM     29  C   UNL     1      19.294  29.329  13.888  0.00  0.00    +0.013 A 
BRANCH  18  19
ATOM     19  C   UNL     1      16.998  32.234  12.730  0.00  0.00    +0.119 C 
BRANCH  19  20
ATOM     20  N   UNL     1      16.944  32.765  11.335  0.00  0.00    -0.302 NA
ATOM     21  C   UNL     1      18.227  32.463  10.556  0.00  0.00    +0.066 C 
ATOM     22  C   UNL     1      18.145  33.005   9.092  0.00  0.00    -0.064 C 
ATOM     23  N   UNL     1      17.872  34.510   9.123  0.00  0.00    +0.379 N 
ATOM     24  C   UNL     1      17.851  35.034   7.750  0.00  0.00    -0.096 C 
ATOM     25  H   UNL     1      18.720  34.996   9.658  0.00  0.00    -0.082 HD
ATOM     26  C   UNL     1      16.599  34.819   9.899  0.00  0.00    -0.064 C 
ATOM     27  C   UNL     1      16.680  34.250  11.343  0.00  0.00    +0.066 C 
ENDBRANCH  19  20
ENDBRANCH  18  19
ENDBRANCH  14  15
ENDBRANCH  12  13
TORSDOF 6
ENDMDL
MODEL 2
REMARK VINA RESULT:      -8.1     13.419     16.515
REMARK  Name = C:\Users\Docking\Desktop\test protocol\1iep_ligandH.pdb
REMARK  8 active torsions:
REMARK  status: ('A' for Active; 'I' for Inactive)
REMARK    1  A    between atoms: _5  and  _11
REMARK    2  A    between atoms: _19  and  _21
REMARK    3  A    between atoms: _22  and  _66
REMARK    4  A    between atoms: _27  and  _30
REMARK    5  A    between atoms: _32  and  _33
REMARK    6  A    between atoms: _38  and  _43
REMARK    7  A    between atoms: _43  and  _46
REMARK    8  A    between atoms: _53  and  _55
REMARK                            x       y       z     vdW  Elec       q    Type
REMARK                         _______ _______ _______ _____ _____    ______ ____
ROOT
ATOM     10  C   UNL     1      24.244  16.537  25.338  0.00  0.00    +0.038 A 
ATOM     11  C   UNL     1      22.871  16.882  25.415  0.00  0.00    +0.047 A 
ATOM     12  C   UNL     1      22.067  16.517  26.572  0.00  0.00    +0.035 A 
ATOM     32  C   UNL     1      22.696  15.804  27.633  0.00  0.00    +0.024 A 
ATOM     33  C   UNL     1      24.091  15.445  27.571  0.00  0.00    +0.007 A 
ATOM     34  C   UNL     1      24.888  15.799  26.432  0.00  0.00    -0.029 A 
ATOM     35  C   UNL     1      26.377  15.383  26.416  0.00  0.00    +0.045 C 
ENDROOT
BRANCH  10   9
ATOM      4  C   UNL     1      26.194  15.589  21.056  0.00  0.00    +0.077 A 
ATOM      5  C   UNL     1      25.756  14.224  21.093  0.00  0.00    +0.048 A 
ATOM      6  C   UNL     1      25.038  13.803  22.235  0.00  0.00    +0.116 A 
ATOM      7  N   UNL     1      24.783  14.691  23.257  0.00  0.00    -0.223 NA
ATOM      8  C   UNL     1      25.221  16.001  23.191  0.00  0.00    +0.220 A 
ATOM      9  N   UNL     1      24.968  16.912  24.204  0.00  0.00    -0.283 N 
ATOM     36  H   UNL     1      25.315  17.868  24.120  0.00  0.00    +0.155 HD
ATOM     37  N   UNL     1      25.909  16.426  22.111  0.00  0.00    -0.214 NA
BRANCH   4   3
ATOM      1  C   UNL     1      28.528  16.017  17.946  0.00  0.00    +0.020 A 
ATOM      2  C   UNL     1      27.809  15.394  19.033  0.00  0.00    +0.013 A 
ATOM      3  C   UNL     1      26.960  16.184  19.915  0.00  0.00    +0.019 A 
ATOM     38  C   UNL     1      26.858  17.615  19.668  0.00  0.00    +0.120 A 
ATOM     39  N   UNL     1      27.563  18.188  18.614  0.00  0.00    -0.263 NA
ATOM     40  C   UNL     1      28.385  17.437  17.760  0.00  0.00    +0.111 A 
ENDBRANCH   4   3
ENDBRANCH  10   9
BRANCH  12  13
ATOM     13  N   UNL     1      20.666  16.833  26.702  0.00  0.00    -0.281 N 
ATOM     14  C   UNL     1      20.081  18.084  26.805  0.00  0.00    +0.248 C 
ATOM     30  O   UNL     1      20.696  19.119  27.016  0.00  0.00    -0.270 OA
ATOM     31  H   UNL     1      20.029  16.037  26.721  0.00  0.00    +0.155 HD
BRANCH  14  15
ATOM     15  C   UNL     1      18.597  18.201  26.668  0.00  0.00    +0.037 A 
ATOM     16  C   UNL     1      17.992  18.891  25.527  0.00  0.00    +0.013 A 
ATOM     17  C   UNL     1      16.558  19.004  25.427  0.00  0.00    +0.005 A 
ATOM     18  C   UNL     1      15.720  18.424  26.474  0.00  0.00    -0.033 A 
ATOM     28  C   UNL     1      16.347  17.740  27.593  0.00  0.00    +0.005 A 
ATOM     29  C   UNL     1      17.752  17.628  27.694  0.00  0.00    +0.013 A 
BRANCH  18  19
ATOM     19  C   UNL     1      14.182  18.515  26.461  0.00  0.00    +0.119 C 
BRANCH  19  20
ATOM     20  N   UNL     1      13.478  18.379  27.771  0.00  0.00    -0.302 NA
ATOM     21  C   UNL     1      11.956  18.401  27.609  0.00  0.00    +0.066 C 
ATOM     22  C   UNL     1      11.235  18.235  28.987  0.00  0.00    -0.064 C 
ATOM     23  N   UNL     1      11.694  19.342  29.936  0.00  0.00    +0.379 N 
ATOM     24  C   UNL     1      10.975  19.223  31.213  0.00  0.00    -0.096 C 
ATOM     25  H   UNL     1      11.412  20.319  29.479  0.00  0.00    -0.082 HD
ATOM     26  C   UNL     1      13.208  19.329  30.101  0.00  0.00    -0.064 C 
ATOM     27  C   UNL     1      13.914  19.466  28.723  0.00  0.00    +0.066 C 
ENDBRANCH  19  20
ENDBRANCH  18  19
ENDBRANCH  14  15
ENDBRANCH  12  13
TORSDOF 6
ENDMDL
MODEL 3
REMARK VINA RESULT:      -7.9     12.906     15.515
REMARK  Name = C:\Users\Docking\Desktop\test protocol\1iep_ligandH.pdb
REMARK  8 active torsions:
REMARK  status: ('A' for Active; 'I' for Inactive)
REMARK    1  A    between atoms: _5  and  _11
REMARK    2  A    between atoms: _19  and  _21
REMARK    3  A    between atoms: _22  and  _66
REMARK    4  A    between atoms: _27  and  _30
REMARK    5  A    between atoms: _32  and  _33
REMARK    6  A    between atoms: _38  and  _43
REMARK    7  A    between atoms: _43  and  _46
REMARK    8  A    between atoms: _53  and  _55
REMARK                            x       y       z     vdW  Elec       q    Type
REMARK                         _______ _______ _______ _____ _____    ______ ____
ROOT
ATOM     10  C   UNL     1      18.672  16.893  28.496  0.00  0.00    +0.038 A 
ATOM     11  C   UNL     1      19.546  16.820  27.382  0.00  0.00    +0.047 A 
ATOM     12  C   UNL     1      20.975  16.620  27.558  0.00  0.00    +0.035 A 
ATOM     32  C   UNL     1      21.482  16.496  28.885  0.00  0.00    +0.024 A 
ATOM     33  C   UNL     1      20.608  16.568  30.029  0.00  0.00    +0.007 A 
ATOM     34  C   UNL     1      19.197  16.768  29.861  0.00  0.00    -0.029 A 
ATOM     35  C   UNL     1      18.308  16.845  31.125  0.00  0.00    +0.045 C 
ENDROOT
BRANCH  10   9
ATOM      4  C   UNL     1      15.016  18.677  25.948  0.00  0.00    +0.077 A 
ATOM      5  C   UNL     1      15.900  19.300  25.006  0.00  0.00    +0.048 A 
ATOM      6  C   UNL     1      17.289  19.144  25.216  0.00  0.00    +0.116 A 
ATOM      7  N   UNL     1      17.748  18.416  26.293  0.00  0.00    -0.223 NA
ATOM      8  C   UNL     1      16.868  17.829  27.184  0.00  0.00    +0.220 A 
ATOM      9  N   UNL     1      17.307  17.086  28.269  0.00  0.00    -0.283 N 
ATOM     36  H   UNL     1      16.627  16.675  28.908  0.00  0.00    +0.155 HD
ATOM     37  N   UNL     1      15.538  17.965  27.006  0.00  0.00    -0.214 NA
BRANCH   4   3
ATOM      1  C   UNL     1      11.378  19.874  25.156  0.00  0.00    +0.020 A 
ATOM      2  C   UNL     1      12.821  19.853  25.215  0.00  0.00    +0.013 A 
ATOM      3  C   UNL     1      13.524  18.750  25.859  0.00  0.00    +0.019 A 
ATOM     38  C   UNL     1      12.730  17.676  26.437  0.00  0.00    +0.120 A 
ATOM     39  N   UNL     1      11.341  17.724  26.366  0.00  0.00    -0.263 NA
ATOM     40  C   UNL     1      10.654  18.781  25.750  0.00  0.00    +0.111 A 
ENDBRANCH   4   3
ENDBRANCH  10   9
BRANCH  12  13
ATOM     13  N   UNL     1      21.912  16.546  26.464  0.00  0.00    -0.281 N 
ATOM     14  C   UNL     1      22.689  17.565  25.938  0.00  0.00    +0.248 C 
ATOM     30  O   UNL     1      22.538  18.751  26.191  0.00  0.00    -0.270 OA
ATOM     31  H   UNL     1      22.015  15.631  26.025  0.00  0.00    +0.155 HD
BRANCH  14  15
ATOM     15  C   UNL     1      23.784  17.218  24.981  0.00  0.00    +0.037 A 
ATOM     16  C   UNL     1      24.978  18.057  24.855  0.00  0.00    +0.013 A 
ATOM     17  C   UNL     1      26.011  17.709  23.912  0.00  0.00    +0.005 A 
ATOM     18  C   UNL     1      25.854  16.513  23.088  0.00  0.00    -0.033 A 
ATOM     28  C   UNL     1      24.662  15.695  23.237  0.00  0.00    +0.005 A 
ATOM     29  C   UNL     1      23.647  16.034  24.160  0.00  0.00    +0.013 A 
BRANCH  18  19
ATOM     19  C   UNL     1      26.896  16.077  22.040  0.00  0.00    +0.119 C 
BRANCH  19  20
ATOM     20  N   UNL     1      26.593  16.376  20.609  0.00  0.00    -0.302 NA
ATOM     21  C   UNL     1      27.348  15.446  19.655  0.00  0.00    +0.066 C 
ATOM     22  C   UNL     1      27.003  15.759  18.163  0.00  0.00    -0.064 C 
ATOM     23  N   UNL     1      27.328  17.223  17.863  0.00  0.00    +0.379 N 
ATOM     24  C   UNL     1      27.059  17.505  16.445  0.00  0.00    -0.096 C 
ATOM     25  H   UNL     1      28.420  17.368  18.035  0.00  0.00    -0.082 HD
ATOM     26  C   UNL     1      26.584  18.154  18.808  0.00  0.00    -0.064 C 
ATOM     27  C   UNL     1      26.911  17.816  20.290  0.00  0.00    +0.066 C 
ENDBRANCH  19  20
ENDBRANCH  18  19
ENDBRANCH  14  15
ENDBRANCH  12  13
TORSDOF 6
ENDMDL
MODEL 4
REMARK VINA RESULT:      -7.8      9.073     14.132
REMARK  Name = C:\Users\Docking\Desktop\test protocol\1iep_ligandH.pdb
REMARK  8 active torsions:
REMARK  status: ('A' for Active; 'I' for Inactive)
REMARK    1  A    between atoms: _5  and  _11
REMARK    2  A    between atoms: _19  and  _21
REMARK    3  A    between atoms: _22  and  _66
REMARK    4  A    between atoms: _27  and  _30
REMARK    5  A    between atoms: _32  and  _33
REMARK    6  A    between atoms: _38  and  _43
REMARK    7  A    between atoms: _43  and  _46
REMARK    8  A    between atoms: _53  and  _55
REMARK                            x       y       z     vdW  Elec       q    Type
REMARK                         _______ _______ _______ _____ _____    ______ ____
ROOT
ATOM     10  C   UNL     1      17.138  31.840   6.965  0.00  0.00    +0.038 A 
ATOM     11  C   UNL     1      15.905  31.508   6.348  0.00  0.00    +0.047 A 
ATOM     12  C   UNL     1      15.728  31.626   4.909  0.00  0.00    +0.035 A 
ATOM     32  C   UNL     1      16.829  32.083   4.128  0.00  0.00    +0.024 A 
ATOM     33  C   UNL     1      18.089  32.426   4.739  0.00  0.00    +0.007 A 
ATOM     34  C   UNL     1      18.269  32.314   6.158  0.00  0.00    -0.029 A 
ATOM     35  C   UNL     1      19.640  32.701   6.760  0.00  0.00    +0.045 C 
ENDROOT
BRANCH  10   9
ATOM      4  C   UNL     1      16.966  33.628  11.416  0.00  0.00    +0.077 A 
ATOM      5  C   UNL     1      16.646  34.943  10.939  0.00  0.00    +0.048 A 
ATOM      6  C   UNL     1      16.542  35.118   9.541  0.00  0.00    +0.116 A 
ATOM      7  N   UNL     1      16.745  34.052   8.693  0.00  0.00    -0.223 NA
ATOM      8  C   UNL     1      17.053  32.797   9.185  0.00  0.00    +0.220 A 
ATOM      9  N   UNL     1      17.253  31.708   8.351  0.00  0.00    -0.283 N 
ATOM     36  H   UNL     1      17.486  30.801   8.753  0.00  0.00    +0.155 HD
ATOM     37  N   UNL     1      17.160  32.604  10.517  0.00  0.00    -0.214 NA
BRANCH   4   3
ATOM      1  C   UNL     1      16.270  33.237  15.245  0.00  0.00    +0.020 A 
ATOM      2  C   UNL     1      16.084  33.592  13.857  0.00  0.00    +0.013 A 
ATOM      3  C   UNL     1      17.107  33.283  12.866  0.00  0.00    +0.019 A 
ATOM     38  C   UNL     1      18.315  32.608  13.316  0.00  0.00    +0.120 A 
ATOM     39  N   UNL     1      18.467  32.279  14.659  0.00  0.00    -0.263 NA
ATOM     40  C   UNL     1      17.490  32.573  15.622  0.00  0.00    +0.111 A 
ENDBRANCH   4   3
ENDBRANCH  10   9
BRANCH  12  13
ATOM     13  N   UNL     1      14.497  31.311   4.228  0.00  0.00    -0.281 N 
ATOM     14  C   UNL     1      14.130  30.110   3.644  0.00  0.00    +0.248 C 
ATOM     30  O   UNL     1      14.896  29.183   3.431  0.00  0.00    -0.270 OA
ATOM     31  H   UNL     1      13.812  32.066   4.169  0.00  0.00    +0.155 HD
BRANCH  14  15
ATOM     15  C   UNL     1      12.709  29.917   3.222  0.00  0.00    +0.037 A 
ATOM     16  C   UNL     1      11.866  31.055   2.847  0.00  0.00    +0.013 A 
ATOM     17  C   UNL     1      10.493  30.842   2.461  0.00  0.00    +0.005 A 
ATOM     18  C   UNL     1       9.956  29.483   2.445  0.00  0.00    -0.033 A 
ATOM     28  C   UNL     1      10.816  28.372   2.817  0.00  0.00    +0.005 A 
ATOM     29  C   UNL     1      12.161  28.577   3.197  0.00  0.00    +0.013 A 
BRANCH  18  19
ATOM     19  C   UNL     1       8.498  29.165   2.067  0.00  0.00    +0.119 C 
BRANCH  19  20
ATOM     20  N   UNL     1       7.710  28.329   3.021  0.00  0.00    -0.302 NA
ATOM     21  C   UNL     1       6.369  27.889   2.428  0.00  0.00    +0.066 C 
ATOM     22  C   UNL     1       5.568  26.996   3.431  0.00  0.00    -0.064 C 
ATOM     23  N   UNL     1       5.357  27.765   4.737  0.00  0.00    +0.379 N 
ATOM     24  C   UNL     1       4.554  26.950   5.661  0.00  0.00    -0.096 C 
ATOM     25  H   UNL     1       4.770  28.682   4.497  0.00  0.00    -0.082 HD
ATOM     26  C   UNL     1       6.686  28.208   5.332  0.00  0.00    -0.064 C 
ATOM     27  C   UNL     1       7.486  29.070   4.316  0.00  0.00    +0.066 C 
ENDBRANCH  19  20
ENDBRANCH  18  19
ENDBRANCH  14  15
ENDBRANCH  12  13
TORSDOF 6
ENDMDL
MODEL 5
REMARK VINA RESULT:      -7.7     14.337     17.865
REMARK  Name = C:\Users\Docking\Desktop\test protocol\1iep_ligandH.pdb
REMARK  8 active torsions:
REMARK  status: ('A' for Active; 'I' for Inactive)
REMARK    1  A    between atoms: _5  and  _11
REMARK    2  A    between atoms: _19  and  _21
REMARK    3  A    between atoms: _22  and  _66
REMARK    4  A    between atoms: _27  and  _30
REMARK    5  A    between atoms: _32  and  _33
REMARK    6  A    between atoms: _38  and  _43
REMARK    7  A    between atoms: _43  and  _46
REMARK    8  A    between atoms: _53  and  _55
REMARK                            x       y       z     vdW  Elec       q    Type
REMARK                         _______ _______ _______ _____ _____    ______ ____
ROOT
ATOM     10  C   UNL     1      13.259  19.170  28.793  0.00  0.00    +0.038 A 
ATOM     11  C   UNL     1      14.666  19.291  28.666  0.00  0.00    +0.047 A 
ATOM     12  C   UNL     1      15.373  18.710  27.536  0.00  0.00    +0.035 A 
ATOM     32  C   UNL     1      14.615  18.013  26.551  0.00  0.00    +0.024 A 
ATOM     33  C   UNL     1      13.184  17.878  26.664  0.00  0.00    +0.007 A 
ATOM     34  C   UNL     1      12.481  18.448  27.778  0.00  0.00    -0.029 A 
ATOM     35  C   UNL     1      10.947  18.267  27.852  0.00  0.00    +0.045 C 
ENDROOT
BRANCH  10   9
ATOM      4  C   UNL     1      11.613  18.992  33.298  0.00  0.00    +0.077 A 
ATOM      5  C   UNL     1      12.014  17.623  33.453  0.00  0.00    +0.048 A 
ATOM      6  C   UNL     1      12.633  16.999  32.347  0.00  0.00    +0.116 A 
ATOM      7  N   UNL     1      12.833  17.701  31.178  0.00  0.00    -0.223 NA
ATOM      8  C   UNL     1      12.433  19.020  31.062  0.00  0.00    +0.220 A 
ATOM      9  N   UNL     1      12.631  19.748  29.898  0.00  0.00    -0.283 N 
ATOM     36  H   UNL     1      12.315  20.716  29.850  0.00  0.00    +0.155 HD
ATOM     37  N   UNL     1      11.838  19.638  32.103  0.00  0.00    -0.214 NA
BRANCH   4   3
ATOM      1  C   UNL     1      10.382  21.964  35.523  0.00  0.00    +0.020 A 
ATOM      2  C   UNL     1      11.043  21.242  34.460  0.00  0.00    +0.013 A 
ATOM      3  C   UNL     1      10.949  19.790  34.377  0.00  0.00    +0.019 A 
ATOM     38  C   UNL     1      10.173  19.093  35.392  0.00  0.00    +0.120 A 
ATOM     39  N   UNL     1       9.549  19.816  36.404  0.00  0.00    -0.263 NA
ATOM     40  C   UNL     1       9.633  21.213  36.496  0.00  0.00    +0.111 A 
ENDBRANCH   4   3
ENDBRANCH  10   9
BRANCH  12  13
ATOM     13  N   UNL     1      16.802  18.794  27.358  0.00  0.00    -0.281 N 
ATOM     14  C   UNL     1      17.775  17.951  27.870  0.00  0.00    +0.248 C 
ATOM     30  O   UNL     1      17.577  17.115  28.739  0.00  0.00    -0.270 OA
ATOM     31  H   UNL     1      17.136  19.569  26.786  0.00  0.00    +0.155 HD
BRANCH  14  15
ATOM     15  C   UNL     1      19.172  18.063  27.351  0.00  0.00    +0.037 A 
ATOM     16  C   UNL     1      20.285  17.377  28.012  0.00  0.00    +0.013 A 
ATOM     17  C   UNL     1      21.626  17.515  27.502  0.00  0.00    +0.005 A 
ATOM     18  C   UNL     1      21.861  18.343  26.321  0.00  0.00    -0.033 A 
ATOM     28  C   UNL     1      20.737  19.009  25.682  0.00  0.00    +0.005 A 
ATOM     29  C   UNL     1      19.422  18.876  26.180  0.00  0.00    +0.013 A 
BRANCH  18  19
ATOM     19  C   UNL     1      23.261  18.565  25.720  0.00  0.00    +0.119 C 
BRANCH  19  20
ATOM     20  N   UNL     1      24.096  17.352  25.467  0.00  0.00    -0.302 NA
ATOM     21  C   UNL     1      25.524  17.715  25.050  0.00  0.00    +0.066 C 
ATOM     22  C   UNL     1      26.390  16.435  24.812  0.00  0.00    -0.064 C 
ATOM     23  N   UNL     1      25.721  15.562  23.749  0.00  0.00    +0.379 N 
ATOM     24  C   UNL     1      26.562  14.386  23.480  0.00  0.00    -0.096 C 
ATOM     25  H   UNL     1      25.663  16.159  22.809  0.00  0.00    -0.082 HD
ATOM     26  C   UNL     1      24.300  15.199  24.153  0.00  0.00    -0.064 C 
ATOM     27  C   UNL     1      23.456  16.478  24.417  0.00  0.00    +0.066 C 
ENDBRANCH  19  20
ENDBRANCH  18  19
ENDBRANCH  14  15
ENDBRANCH  12  13
TORSDOF 6
ENDMDL
