MODEL 1
REMARK VINA RESULT:      -8.2      0.000      0.000
REMARK  Name = C:\Users\Docking\Desktop\test protocol\1iep_ligandH.pdb
REMARK  8 active torsions:
REMARK  status: ('A' for Active; 'I' for Inactive)
REMARK    1  A    between atoms: _5  and  _11
REMARK    2  A    between atoms: _19  and  _21
REMARK    3  A    between atoms: _22  and  _66
REMARK    4  A    between atoms: _27  and  _30
REMARK    5  A    between atoms: _32  and  _33
REMARK    6  A    between atoms: _38  and  _43
REMARK    7  A    between atoms: _43  and  _46
REMARK    8  A    between atoms: _53  and  _55
REMARK                            x       y       z     vdW  Elec       q    Type
REMARK                         _______ _______ _______ _____ _____    ______ ____
ROOT
ATOM     10  C   UNL     1      22.273  -2.533  16.971  0.00  0.00    +0.038 A 
ATOM     11  C   UNL     1      21.920  -2.301  15.617  0.00  0.00    +0.047 A 
ATOM     12  C   UNL     1      22.074  -3.340  14.611  0.00  0.00    +0.035 A 
ATOM     32  C   UNL     1      22.588  -4.605  15.019  0.00  0.00    +0.024 A 
ATOM     33  C   UNL     1      22.952  -4.858  16.391  0.00  0.00    +0.007 A 
ATOM     34  C   UNL     1      22.805  -3.836  17.388  0.00  0.00    -0.029 A 
ATOM     35  C   UNL     1      23.217  -4.161  18.843  0.00  0.00    +0.045 C 
ENDROOT
BRANCH  10   9
ATOM      4  C   UNL     1      23.773   1.452  19.186  0.00  0.00    +0.077 A 
ATOM      5  C   UNL     1      25.010   1.462  18.458  0.00  0.00    +0.048 A 
ATOM      6  C   UNL     1      25.224   0.419  17.529  0.00  0.00    +0.116 A 
ATOM      7  N   UNL     1      24.266  -0.555  17.348  0.00  0.00    -0.223 NA
ATOM      8  C   UNL     1      23.085  -0.535  18.067  0.00  0.00    +0.220 A 
ATOM      9  N   UNL     1      22.104  -1.500  17.896  0.00  0.00    -0.283 N 
ATOM     36  H   UNL     1      21.250  -1.455  18.451  0.00  0.00    +0.155 HD
ATOM     37  N   UNL     1      22.857   0.449  18.962  0.00  0.00    -0.214 NA
BRANCH   4   3
ATOM      1  C   UNL     1      23.818   3.802  22.312  0.00  0.00    +0.020 A 
ATOM      2  C   UNL     1      24.225   2.792  21.362  0.00  0.00    +0.013 A 
ATOM      3  C   UNL     1      23.400   2.488  20.200  0.00  0.00    +0.019 A 
ATOM     38  C   UNL     1      22.160   3.230  20.026  0.00  0.00    +0.120 A 
ATOM     39  N   UNL     1      21.794   4.196  20.958  0.00  0.00    -0.263 NA
ATOM     40  C   UNL     1      22.579   4.496  22.082  0.00  0.00    +0.111 A 
ENDBRANCH   4   3
ENDBRANCH  10   9
BRANCH  12  13
ATOM     13  N   UNL     1      21.741  -3.160  13.220  0.00  0.00    -0.281 N 
ATOM     14  C   UNL     1      20.521  -3.375  12.601  0.00  0.00    +0.248 C 
ATOM     30  O   UNL     1      19.580  -3.963  13.115  0.00  0.00    -0.270 OA
ATOM     31  H   UNL     1      22.497  -2.834  12.617  0.00  0.00    +0.155 HD
BRANCH  14  15
ATOM     15  C   UNL     1      20.320  -2.878  11.206  0.00  0.00    +0.037 A 
ATOM     16  C   UNL     1      20.325  -1.445  10.902  0.00  0.00    +0.013 A 
ATOM     17  C   UNL     1      20.112  -0.992   9.550  0.00  0.00    +0.005 A 
ATOM     18  C   UNL     1      19.894  -1.974   8.491  0.00  0.00    -0.033 A 
ATOM     28  C   UNL     1      19.900  -3.390   8.820  0.00  0.00    +0.005 A 
ATOM     29  C   UNL     1      20.107  -3.838  10.144  0.00  0.00    +0.013 A 
BRANCH  18  19
ATOM     19  C   UNL     1      19.638  -1.581   7.025  0.00  0.00    +0.119 C 
BRANCH  19  20
ATOM     20  N   UNL     1      18.219  -1.567   6.558  0.00  0.00    -0.302 NA
ATOM     21  C   UNL     1      17.879  -2.800   5.717  0.00  0.00    +0.066 C 
ATOM     22  C   UNL     1      16.385  -2.781   5.256  0.00  0.00    -0.064 C 
ATOM     23  N   UNL     1      16.114  -1.497   4.470  0.00  0.00    +0.379 N 
ATOM     24  C   UNL     1      14.726  -1.502   3.986  0.00  0.00    -0.096 C 
ATOM     25  H   UNL     1      16.783  -1.499   3.578  0.00  0.00    -0.082 HD
ATOM     26  C   UNL     1      16.452  -0.265   5.298  0.00  0.00    -0.064 C 
ATOM     27  C   UNL     1      17.930  -0.309   5.776  0.00  0.00    +0.066 C 
ENDBRANCH  19  20
ENDBRANCH  18  19
ENDBRANCH  14  15
ENDBRANCH  12  13
TORSDOF 6
ENDMDL
MODEL 2
REMARK VINA RESULT:      -8.2      1.471      2.046
REMARK  Name = C:\Users\Docking\Desktop\test protocol\1iep_ligandH.pdb
REMARK  8 active torsions:
REMARK  status: ('A' for Active; 'I' for Inactive)
REMARK    1  A    between atoms: _5  and  _11
REMARK    2  A    between atoms: _19  and  _21
REMARK    3  A    between atoms: _22  and  _66
REMARK    4  A    between atoms: _27  and  _30
REMARK    5  A    between atoms: _32  and  _33
REMARK    6  A    between atoms: _38  and  _43
REMARK    7  A    between atoms: _43  and  _46
REMARK    8  A    between atoms: _53  and  _55
REMARK                            x       y       z     vdW  Elec       q    Type
REMARK                         _______ _______ _______ _____ _____    ______ ____
ROOT
ATOM     10  C   UNL     1      22.408  -2.538  17.270  0.00  0.00    +0.038 A 
ATOM     11  C   UNL     1      22.031  -2.287  15.926  0.00  0.00    +0.047 A 
ATOM     12  C   UNL     1      22.169  -3.311  14.901  0.00  0.00    +0.035 A 
ATOM     32  C   UNL     1      22.691  -4.581  15.282  0.00  0.00    +0.024 A 
ATOM     33  C   UNL     1      23.080  -4.854  16.643  0.00  0.00    +0.007 A 
ATOM     34  C   UNL     1      22.949  -3.847  17.657  0.00  0.00    -0.029 A 
ATOM     35  C   UNL     1      23.388  -4.192  19.099  0.00  0.00    +0.045 C 
ENDROOT
BRANCH  10   9
ATOM      4  C   UNL     1      23.832   1.539  19.364  0.00  0.00    +0.077 A 
ATOM      5  C   UNL     1      24.994   1.632  18.528  0.00  0.00    +0.048 A 
ATOM      6  C   UNL     1      25.193   0.606  17.576  0.00  0.00    +0.116 A 
ATOM      7  N   UNL     1      24.290  -0.430  17.477  0.00  0.00    -0.223 NA
ATOM      8  C   UNL     1      23.180  -0.491  18.300  0.00  0.00    +0.220 A 
ATOM      9  N   UNL     1      22.255  -1.519  18.212  0.00  0.00    -0.283 N 
ATOM     36  H   UNL     1      21.454  -1.532  18.843  0.00  0.00    +0.155 HD
ATOM     37  N   UNL     1      22.969   0.476  19.218  0.00  0.00    -0.214 NA
BRANCH   4   3
ATOM      1  C   UNL     1      23.938   3.782  22.566  0.00  0.00    +0.020 A 
ATOM      2  C   UNL     1      24.321   2.798  21.581  0.00  0.00    +0.013 A 
ATOM      3  C   UNL     1      23.483   2.546  20.415  0.00  0.00    +0.019 A 
ATOM     38  C   UNL     1      22.256   3.316  20.274  0.00  0.00    +0.120 A 
ATOM     39  N   UNL     1      21.913   4.256  21.240  0.00  0.00    -0.263 NA
ATOM     40  C   UNL     1      22.710   4.505  22.367  0.00  0.00    +0.111 A 
ENDBRANCH   4   3
ENDBRANCH  10   9
BRANCH  12  13
ATOM     13  N   UNL     1      21.810  -3.111  13.519  0.00  0.00    -0.281 N 
ATOM     14  C   UNL     1      20.729  -3.640  12.834  0.00  0.00    +0.248 C 
ATOM     30  O   UNL     1      20.020  -4.543  13.254  0.00  0.00    -0.270 OA
ATOM     31  H   UNL     1      22.429  -2.505  12.980  0.00  0.00    +0.155 HD
BRANCH  14  15
ATOM     15  C   UNL     1      20.395  -3.099  11.482  0.00  0.00    +0.037 A 
ATOM     16  C   UNL     1      20.120  -3.991  10.353  0.00  0.00    +0.013 A 
ATOM     17  C   UNL     1      19.817  -3.442   9.055  0.00  0.00    +0.005 A 
ATOM     18  C   UNL     1      19.787  -1.992   8.879  0.00  0.00    -0.033 A 
ATOM     28  C   UNL     1      20.059  -1.130  10.018  0.00  0.00    +0.005 A 
ATOM     29  C   UNL     1      20.357  -1.664  11.291  0.00  0.00    +0.013 A 
BRANCH  18  19
ATOM     19  C   UNL     1      19.494  -1.320   7.525  0.00  0.00    +0.119 C 
BRANCH  19  20
ATOM     20  N   UNL     1      19.007   0.092   7.554  0.00  0.00    -0.302 NA
ATOM     21  C   UNL     1      17.501   0.186   7.291  0.00  0.00    +0.066 C 
ATOM     22  C   UNL     1      17.005   1.667   7.348  0.00  0.00    -0.064 C 
ATOM     23  N   UNL     1      17.785   2.502   6.331  0.00  0.00    +0.379 N 
ATOM     24  C   UNL     1      17.281   3.883   6.340  0.00  0.00    -0.096 C 
ATOM     25  H   UNL     1      17.586   2.076   5.320  0.00  0.00    -0.082 HD
ATOM     26  C   UNL     1      19.284   2.412   6.583  0.00  0.00    -0.064 C 
ATOM     27  C   UNL     1      19.761   0.934   6.554  0.00  0.00    +0.066 C 
ENDBRANCH  19  20
ENDBRANCH  18  19
ENDBRANCH  14  15
ENDBRANCH  12  13
TORSDOF 6
ENDMDL
MODEL 3
REMARK VINA RESULT:      -7.9      3.856      6.128
REMARK  Name = C:\Users\Docking\Desktop\test protocol\1iep_ligandH.pdb
REMARK  8 active torsions:
REMARK  status: ('A' for Active; 'I' for Inactive)
REMARK    1  A    between atoms: _5  and  _11
REMARK    2  A    between atoms: _19  and  _21
REMARK    3  A    between atoms: _22  and  _66
REMARK    4  A    between atoms: _27  and  _30
REMARK    5  A    between atoms: _32  and  _33
REMARK    6  A    between atoms: _38  and  _43
REMARK    7  A    between atoms: _43  and  _46
REMARK    8  A    between atoms: _53  and  _55
REMARK                            x       y       z     vdW  Elec       q    Type
REMARK                         _______ _______ _______ _____ _____    ______ ____
ROOT
ATOM     10  C   UNL     1      20.606  -3.559  13.391  0.00  0.00    +0.038 A 
ATOM     11  C   UNL     1      20.817  -2.503  12.469  0.00  0.00    +0.047 A 
ATOM     12  C   UNL     1      19.847  -2.208  11.426  0.00  0.00    +0.035 A 
ATOM     32  C   UNL     1      18.670  -3.009  11.353  0.00  0.00    +0.024 A 
ATOM     33  C   UNL     1      18.439  -4.088  12.281  0.00  0.00    +0.007 A 
ATOM     34  C   UNL     1      19.394  -4.384  13.311  0.00  0.00    -0.029 A 
ATOM     35  C   UNL     1      19.098  -5.557  14.275  0.00  0.00    +0.045 C 
ENDROOT
BRANCH  10   9
ATOM      4  C   UNL     1      22.663  -2.611  17.622  0.00  0.00    +0.077 A 
ATOM      5  C   UNL     1      21.756  -1.532  17.888  0.00  0.00    +0.048 A 
ATOM      6  C   UNL     1      20.780  -1.248  16.907  0.00  0.00    +0.116 A 
ATOM      7  N   UNL     1      20.723  -1.995  15.751  0.00  0.00    -0.223 NA
ATOM      8  C   UNL     1      21.614  -3.028  15.525  0.00  0.00    +0.220 A 
ATOM      9  N   UNL     1      21.570  -3.798  14.372  0.00  0.00    -0.283 N 
ATOM     36  H   UNL     1      22.250  -4.546  14.240  0.00  0.00    +0.155 HD
ATOM     37  N   UNL     1      22.557  -3.318  16.445  0.00  0.00    -0.214 NA
BRANCH   4   3
ATOM      1  C   UNL     1      25.960  -2.688  19.726  0.00  0.00    +0.020 A 
ATOM      2  C   UNL     1      24.942  -2.234  18.806  0.00  0.00    +0.013 A 
ATOM      3  C   UNL     1      23.748  -3.034  18.563  0.00  0.00    +0.019 A 
ATOM     38  C   UNL     1      23.613  -4.297  19.273  0.00  0.00    +0.120 A 
ATOM     39  N   UNL     1      24.611  -4.709  20.151  0.00  0.00    -0.263 NA
ATOM     40  C   UNL     1      25.765  -3.949  20.391  0.00  0.00    +0.111 A 
ENDBRANCH   4   3
ENDBRANCH  10   9
BRANCH  12  13
ATOM     13  N   UNL     1      20.012  -1.154  10.457  0.00  0.00    -0.281 N 
ATOM     14  C   UNL     1      20.258  -1.276   9.099  0.00  0.00    +0.248 C 
ATOM     30  O   UNL     1      20.587  -2.315   8.547  0.00  0.00    -0.270 OA
ATOM     31  H   UNL     1      19.938  -0.202  10.815  0.00  0.00    +0.155 HD
BRANCH  14  15
ATOM     15  C   UNL     1      20.134  -0.065   8.231  0.00  0.00    +0.037 A 
ATOM     16  C   UNL     1      20.473   1.268   8.734  0.00  0.00    +0.013 A 
ATOM     17  C   UNL     1      20.328   2.421   7.881  0.00  0.00    +0.005 A 
ATOM     18  C   UNL     1      19.842   2.245   6.514  0.00  0.00    -0.033 A 
ATOM     28  C   UNL     1      19.518   0.910   6.039  0.00  0.00    +0.005 A 
ATOM     29  C   UNL     1      19.658  -0.223   6.873  0.00  0.00    +0.013 A 
BRANCH  18  19
ATOM     19  C   UNL     1      19.636   3.421   5.541  0.00  0.00    +0.119 C 
BRANCH  19  20
ATOM     20  N   UNL     1      20.861   4.082   5.000  0.00  0.00    -0.302 NA
ATOM     21  C   UNL     1      20.635   4.649   3.596  0.00  0.00    +0.066 C 
ATOM     22  C   UNL     1      21.919   5.358   3.054  0.00  0.00    -0.064 C 
ATOM     23  N   UNL     1      23.084   4.367   3.057  0.00  0.00    +0.379 N 
ATOM     24  C   UNL     1      24.279   5.013   2.494  0.00  0.00    -0.096 C 
ATOM     25  H   UNL     1      22.809   3.520   2.386  0.00  0.00    -0.082 HD
ATOM     26  C   UNL     1      23.314   3.796   4.449  0.00  0.00    -0.064 C 
ATOM     27  C   UNL     1      22.023   3.120   4.990  0.00  0.00    +0.066 C 
ENDBRANCH  19  20
ENDBRANCH  18  19
ENDBRANCH  14  15
ENDBRANCH  12  13
TORSDOF 6
ENDMDL
MODEL 4
REMARK VINA RESULT:      -7.9      2.453     13.138
REMARK  Name = C:\Users\Docking\Desktop\test protocol\1iep_ligandH.pdb
REMARK  8 active torsions:
REMARK  status: ('A' for Active; 'I' for Inactive)
REMARK    1  A    between atoms: _5  and  _11
REMARK    2  A    between atoms: _19  and  _21
REMARK    3  A    between atoms: _22  and  _66
REMARK    4  A    between atoms: _27  and  _30
REMARK    5  A    between atoms: _32  and  _33
REMARK    6  A    between atoms: _38  and  _43
REMARK    7  A    between atoms: _43  and  _46
REMARK    8  A    between atoms: _53  and  _55
REMARK                            x       y       z     vdW  Elec       q    Type
REMARK                         _______ _______ _______ _____ _____    ______ ____
ROOT
ATOM     10  C   UNL     1      22.241  -2.760  15.061  0.00  0.00    +0.038 A 
ATOM     11  C   UNL     1      22.428  -1.667  15.945  0.00  0.00    +0.047 A 
ATOM     12  C   UNL     1      22.642  -1.878  17.368  0.00  0.00    +0.035 A 
ATOM     32  C   UNL     1      22.661  -3.216  17.857  0.00  0.00    +0.024 A 
ATOM     33  C   UNL     1      22.471  -4.339  16.973  0.00  0.00    +0.007 A 
ATOM     34  C   UNL     1      22.258  -4.137  15.568  0.00  0.00    -0.029 A 
ATOM     35  C   UNL     1      22.054  -5.378  14.668  0.00  0.00    +0.045 C 
ENDROOT
BRANCH  10   9
ATOM      4  C   UNL     1      19.443  -1.562  11.350  0.00  0.00    +0.077 A 
ATOM      5  C   UNL     1      18.277  -1.474  12.181  0.00  0.00    +0.048 A 
ATOM      6  C   UNL     1      18.438  -1.752  13.557  0.00  0.00    +0.116 A 
ATOM      7  N   UNL     1      19.678  -2.091  14.054  0.00  0.00    -0.223 NA
ATOM      8  C   UNL     1      20.782  -2.168  13.224  0.00  0.00    +0.220 A 
ATOM      9  N   UNL     1      22.040  -2.499  13.703  0.00  0.00    -0.283 N 
ATOM     36  H   UNL     1      22.827  -2.553  13.058  0.00  0.00    +0.155 HD
ATOM     37  N   UNL     1      20.653  -1.909  11.906  0.00  0.00    -0.214 NA
BRANCH   4   3
ATOM      1  C   UNL     1      20.521  -0.512   7.739  0.00  0.00    +0.020 A 
ATOM      2  C   UNL     1      20.582  -0.751   9.163  0.00  0.00    +0.013 A 
ATOM      3  C   UNL     1      19.433  -1.295   9.877  0.00  0.00    +0.019 A 
ATOM     38  C   UNL     1      18.229  -1.588   9.114  0.00  0.00    +0.120 A 
ATOM     39  N   UNL     1      18.199  -1.346   7.744  0.00  0.00    -0.263 NA
ATOM     40  C   UNL     1      19.298  -0.822   7.047  0.00  0.00    +0.111 A 
ENDBRANCH   4   3
ENDBRANCH  10   9
BRANCH  12  13
ATOM     13  N   UNL     1      22.830  -0.807  18.315  0.00  0.00    -0.281 N 
ATOM     14  C   UNL     1      23.758   0.221  18.265  0.00  0.00    +0.248 C 
ATOM     30  O   UNL     1      24.713   0.253  17.504  0.00  0.00    -0.270 OA
ATOM     31  H   UNL     1      22.203  -0.806  19.119  0.00  0.00    +0.155 HD
BRANCH  14  15
ATOM     15  C   UNL     1      23.612   1.372  19.208  0.00  0.00    +0.037 A 
ATOM     16  C   UNL     1      22.505   2.324  19.079  0.00  0.00    +0.013 A 
ATOM     17  C   UNL     1      22.398   3.435  19.991  0.00  0.00    +0.005 A 
ATOM     18  C   UNL     1      23.399   3.599  21.041  0.00  0.00    -0.033 A 
ATOM     28  C   UNL     1      24.484   2.637  21.150  0.00  0.00    +0.005 A 
ATOM     29  C   UNL     1      24.593   1.547  20.257  0.00  0.00    +0.013 A 
BRANCH  18  19
ATOM     19  C   UNL     1      23.375   4.767  22.045  0.00  0.00    +0.119 C 
BRANCH  19  20
ATOM     20  N   UNL     1      23.326   4.420  23.497  0.00  0.00    -0.302 NA
ATOM     21  C   UNL     1      22.082   4.992  24.182  0.00  0.00    +0.066 C 
ATOM     22  C   UNL     1      22.034   4.600  25.695  0.00  0.00    -0.064 C 
ATOM     23  N   UNL     1      23.307   5.091  26.386  0.00  0.00    +0.379 N 
ATOM     24  C   UNL     1      23.240   4.776  27.820  0.00  0.00    -0.096 C 
ATOM     25  H   UNL     1      23.340   6.201  26.285  0.00  0.00    -0.082 HD
ATOM     26  C   UNL     1      24.550   4.529  25.709  0.00  0.00    -0.064 C 
ATOM     27  C   UNL     1      24.572   4.899  24.200  0.00  0.00    +0.066 C 
ENDBRANCH  19  20
ENDBRANCH  18  19
ENDBRANCH  14  15
ENDBRANCH  12  13
TORSDOF 6
ENDMDL
MODEL 5
REMARK VINA RESULT:      -7.6      8.065     15.975
REMARK  Name = C:\Users\Docking\Desktop\test protocol\1iep_ligandH.pdb
REMARK  8 active torsions:
REMARK  status: ('A' for Active; 'I' for Inactive)
REMARK    1  A    between atoms: _5  and  _11
REMARK    2  A    between atoms: _19  and  _21
REMARK    3  A    between atoms: _22  and  _66
REMARK    4  A    between atoms: _27  and  _30
REMARK    5  A    between atoms: _32  and  _33
REMARK    6  A    between atoms: _38  and  _43
REMARK    7  A    between atoms: _43  and  _46
REMARK    8  A    between atoms: _53  and  _55
REMARK                            x       y       z     vdW  Elec       q    Type
REMARK                         _______ _______ _______ _____ _____    ______ ____
ROOT
ATOM     10  C   UNL     1      23.725   0.313  19.559  0.00  0.00    +0.038 A 
ATOM     11  C   UNL     1      23.826   1.039  20.774  0.00  0.00    +0.047 A 
ATOM     12  C   UNL     1      24.483   2.335  20.823  0.00  0.00    +0.035 A 
ATOM     32  C   UNL     1      25.024   2.864  19.615  0.00  0.00    +0.024 A 
ATOM     33  C   UNL     1      24.932   2.139  18.372  0.00  0.00    +0.007 A 
ATOM     34  C   UNL     1      24.286   0.859  18.318  0.00  0.00    -0.029 A 
ATOM     35  C   UNL     1      24.222   0.123  16.959  0.00  0.00    +0.045 C 
ENDROOT
BRANCH  10   9
ATOM      4  C   UNL     1      23.765  -4.471  19.954  0.00  0.00    +0.077 A 
ATOM      5  C   UNL     1      25.189  -4.504  20.127  0.00  0.00    +0.048 A 
ATOM      6  C   UNL     1      25.874  -3.268  20.101  0.00  0.00    +0.116 A 
ATOM      7  N   UNL     1      25.177  -2.094  19.915  0.00  0.00    -0.223 NA
ATOM      8  C   UNL     1      23.805  -2.098  19.750  0.00  0.00    +0.220 A 
ATOM      9  N   UNL     1      23.083  -0.928  19.570  0.00  0.00    -0.283 N 
ATOM     36  H   UNL     1      22.072  -0.973  19.444  0.00  0.00    +0.155 HD
ATOM     37  N   UNL     1      23.127  -3.264  19.769  0.00  0.00    -0.214 NA
BRANCH   4   3
ATOM      1  C   UNL     1      22.251  -7.968  20.835  0.00  0.00    +0.020 A 
ATOM      2  C   UNL     1      23.116  -6.812  20.869  0.00  0.00    +0.013 A 
ATOM      3  C   UNL     1      22.900  -5.693  19.960  0.00  0.00    +0.019 A 
ATOM     38  C   UNL     1      21.790  -5.776  19.023  0.00  0.00    +0.120 A 
ATOM     39  N   UNL     1      20.975  -6.903  19.012  0.00  0.00    -0.263 NA
ATOM     40  C   UNL     1      21.174  -7.987  19.880  0.00  0.00    +0.111 A 
ENDBRANCH   4   3
ENDBRANCH  10   9
BRANCH  12  13
ATOM     13  N   UNL     1      24.623   3.115  22.028  0.00  0.00    -0.281 N 
ATOM     14  C   UNL     1      23.629   3.761  22.744  0.00  0.00    +0.248 C 
ATOM     30  O   UNL     1      22.492   3.946  22.336  0.00  0.00    -0.270 OA
ATOM     31  H   UNL     1      25.570   3.200  22.398  0.00  0.00    +0.155 HD
BRANCH  14  15
ATOM     15  C   UNL     1      23.948   4.292  24.104  0.00  0.00    +0.037 A 
ATOM     16  C   UNL     1      25.165   5.071  24.350  0.00  0.00    +0.013 A 
ATOM     17  C   UNL     1      25.457   5.557  25.675  0.00  0.00    +0.005 A 
ATOM     18  C   UNL     1      24.529   5.266  26.765  0.00  0.00    -0.033 A 
ATOM     28  C   UNL     1      23.327   4.495  26.492  0.00  0.00    +0.005 A 
ATOM     29  C   UNL     1      23.038   4.017  25.195  0.00  0.00    +0.013 A 
BRANCH  18  19
ATOM     19  C   UNL     1      24.772   5.726  28.215  0.00  0.00    +0.119 C 
BRANCH  19  20
ATOM     20  N   UNL     1      25.426   4.754  29.141  0.00  0.00    -0.302 NA
ATOM     21  C   UNL     1      24.568   4.472  30.378  0.00  0.00    +0.066 C 
ATOM     22  C   UNL     1      25.257   3.436  31.324  0.00  0.00    -0.064 C 
ATOM     23  N   UNL     1      26.637   3.959  31.729  0.00  0.00    +0.379 N 
ATOM     24  C   UNL     1      27.264   3.014  32.665  0.00  0.00    -0.096 C 
ATOM     25  H   UNL     1      26.488   4.922  32.270  0.00  0.00    -0.082 HD
ATOM     26  C   UNL     1      27.495   4.244  30.505  0.00  0.00    -0.064 C 
ATOM     27  C   UNL     1      26.788   5.252  29.557  0.00  0.00    +0.066 C 
ENDBRANCH  19  20
ENDBRANCH  18  19
ENDBRANCH  14  15
ENDBRANCH  12  13
TORSDOF 6
ENDMDL
