MODEL 1
REMARK VINA RESULT:      -8.1      0.000      0.000
REMARK  Name = C:\Users\Docking\Desktop\test protocol\1iep_ligandH.pdb
REMARK  8 active torsions:
REMARK  status: ('A' for Active; 'I' for Inactive)
REMARK    1  A    between atoms: _5  and  _11
REMARK    2  A    between atoms: _19  and  _21
REMARK    3  A    between atoms: _22  and  _66
REMARK    4  A    between atoms: _27  and  _30
REMARK    5  A    between atoms: _32  and  _33
REMARK    6  A    between atoms: _38  and  _43
REMARK    7  A    between atoms: _43  and  _46
REMARK    8  A    between atoms: _53  and  _55
REMARK                            x       y       z     vdW  Elec       q    Type
REMARK                         _______ _______ _______ _____ _____    ______ ____
ROOT
ATOM     10  C   UNL     1      23.099  28.698  10.366  0.00  0.00    +0.038 A 
ATOM     11  C   UNL     1      23.518  27.940   9.243  0.00  0.00    +0.047 A 
ATOM     12  C   UNL     1      23.899  26.543   9.377  0.00  0.00    +0.035 A 
ATOM     32  C   UNL     1      23.839  25.948  10.671  0.00  0.00    +0.024 A 
ATOM     33  C   UNL     1      23.416  26.704  11.824  0.00  0.00    +0.007 A 
ATOM     34  C   UNL     1      23.042  28.083  11.698  0.00  0.00    -0.029 A 
ATOM     35  C   UNL     1      22.603  28.847  12.969  0.00  0.00    +0.045 C 
ENDROOT
BRANCH  10   9
ATOM      4  C   UNL     1      24.124  33.387  10.361  0.00  0.00    +0.077 A 
ATOM      5  C   UNL     1      25.472  33.153  10.793  0.00  0.00    +0.048 A 
ATOM      6  C   UNL     1      25.860  31.812  11.012  0.00  0.00    +0.116 A 
ATOM      7  N   UNL     1      24.959  30.789  10.811  0.00  0.00    -0.223 NA
ATOM      8  C   UNL     1      23.666  31.050  10.396  0.00  0.00    +0.220 A 
ATOM      9  N   UNL     1      22.745  30.036  10.179  0.00  0.00    -0.283 N 
ATOM     36  H   UNL     1      21.798  30.270   9.881  0.00  0.00    +0.155 HD
ATOM     37  N   UNL     1      23.270  32.322  10.181  0.00  0.00    -0.214 NA
BRANCH   4   3
ATOM      1  C   UNL     1      23.662  37.028   9.008  0.00  0.00    +0.020 A 
ATOM      2  C   UNL     1      24.244  35.727   9.244  0.00  0.00    +0.013 A 
ATOM      3  C   UNL     1      23.566  34.748  10.085  0.00  0.00    +0.019 A 
ATOM     38  C   UNL     1      22.290  35.120  10.676  0.00  0.00    +0.120 A 
ATOM     39  N   UNL     1      21.754  36.381  10.433  0.00  0.00    -0.263 NA
ATOM     40  C   UNL     1      22.398  37.332   9.627  0.00  0.00    +0.111 A 
ENDBRANCH   4   3
ENDBRANCH  10   9
BRANCH  12  13
ATOM     13  N   UNL     1      24.340  25.726   8.274  0.00  0.00    -0.281 N 
ATOM     14  C   UNL     1      23.582  25.226   7.228  0.00  0.00    +0.248 C 
ATOM     30  O   UNL     1      22.360  25.229   7.197  0.00  0.00    -0.270 OA
ATOM     31  H   UNL     1      25.332  25.486   8.264  0.00  0.00    +0.155 HD
BRANCH  14  15
ATOM     15  C   UNL     1      24.282  24.623   6.053  0.00  0.00    +0.037 A 
ATOM     16  C   UNL     1      25.300  23.584   6.226  0.00  0.00    +0.013 A 
ATOM     17  C   UNL     1      25.972  23.031   5.077  0.00  0.00    +0.005 A 
ATOM     18  C   UNL     1      25.626  23.516   3.743  0.00  0.00    -0.033 A 
ATOM     28  C   UNL     1      24.608  24.544   3.600  0.00  0.00    +0.005 A 
ATOM     29  C   UNL     1      23.948  25.089   4.724  0.00  0.00    +0.013 A 
BRANCH  18  19
ATOM     19  C   UNL     1      26.307  22.999   2.462  0.00  0.00    +0.119 C 
BRANCH  19  20
ATOM     20  N   UNL     1      27.234  23.932   1.756  0.00  0.00    -0.302 NA
ATOM     21  C   UNL     1      26.611  24.505   0.479  0.00  0.00    +0.066 C 
ATOM     22  C   UNL     1      27.587  25.496  -0.235  0.00  0.00    -0.064 C 
ATOM     23  N   UNL     1      28.900  24.778  -0.548  0.00  0.00    +0.379 N 
ATOM     24  C   UNL     1      29.798  25.690  -1.272  0.00  0.00    -0.096 C 
ATOM     25  H   UNL     1      28.666  23.925  -1.227  0.00  0.00    -0.082 HD
ATOM     26  C   UNL     1      29.525  24.203   0.715  0.00  0.00    -0.064 C 
ATOM     27  C   UNL     1      28.537  23.242   1.433  0.00  0.00    +0.066 C 
ENDBRANCH  19  20
ENDBRANCH  18  19
ENDBRANCH  14  15
ENDBRANCH  12  13
TORSDOF 6
ENDMDL
MODEL 2
REMARK VINA RESULT:      -7.9      9.858     14.713
REMARK  Name = C:\Users\Docking\Desktop\test protocol\1iep_ligandH.pdb
REMARK  8 active torsions:
REMARK  status: ('A' for Active; 'I' for Inactive)
REMARK    1  A    between atoms: _5  and  _11
REMARK    2  A    between atoms: _19  and  _21
REMARK    3  A    between atoms: _22  and  _66
REMARK    4  A    between atoms: _27  and  _30
REMARK    5  A    between atoms: _32  and  _33
REMARK    6  A    between atoms: _38  and  _43
REMARK    7  A    between atoms: _43  and  _46
REMARK    8  A    between atoms: _53  and  _55
REMARK                            x       y       z     vdW  Elec       q    Type
REMARK                         _______ _______ _______ _____ _____    ______ ____
ROOT
ATOM     10  C   UNL     1      19.717  29.911  22.258  0.00  0.00    +0.038 A 
ATOM     11  C   UNL     1      19.974  29.807  20.867  0.00  0.00    +0.047 A 
ATOM     12  C   UNL     1      19.254  30.627  19.905  0.00  0.00    +0.035 A 
ATOM     32  C   UNL     1      18.280  31.545  20.395  0.00  0.00    +0.024 A 
ATOM     33  C   UNL     1      18.005  31.663  21.806  0.00  0.00    +0.007 A 
ATOM     34  C   UNL     1      18.711  30.855  22.759  0.00  0.00    -0.029 A 
ATOM     35  C   UNL     1      18.370  31.020  24.259  0.00  0.00    +0.045 C 
ENDROOT
BRANCH  10   9
ATOM      4  C   UNL     1      20.223  25.935  24.897  0.00  0.00    +0.077 A 
ATOM      5  C   UNL     1      18.930  25.445  24.514  0.00  0.00    +0.048 A 
ATOM      6  C   UNL     1      18.163  26.250  23.642  0.00  0.00    +0.116 A 
ATOM      7  N   UNL     1      18.663  27.453  23.192  0.00  0.00    -0.223 NA
ATOM      8  C   UNL     1      19.913  27.897  23.583  0.00  0.00    +0.220 A 
ATOM      9  N   UNL     1      20.438  29.100  23.137  0.00  0.00    -0.283 N 
ATOM     36  H   UNL     1      21.361  29.396  23.454  0.00  0.00    +0.155 HD
ATOM     37  N   UNL     1      20.664  27.147  24.416  0.00  0.00    -0.214 NA
BRANCH   4   3
ATOM      1  C   UNL     1      23.452  24.458  26.539  0.00  0.00    +0.020 A 
ATOM      2  C   UNL     1      22.598  25.186  25.628  0.00  0.00    +0.013 A 
ATOM      3  C   UNL     1      21.152  25.197  25.810  0.00  0.00    +0.019 A 
ATOM     38  C   UNL     1      20.597  24.457  26.933  0.00  0.00    +0.120 A 
ATOM     39  N   UNL     1      21.444  23.764  27.793  0.00  0.00    -0.263 NA
ATOM     40  C   UNL     1      22.837  23.744  27.627  0.00  0.00    +0.111 A 
ENDBRANCH   4   3
ENDBRANCH  10   9
BRANCH  12  13
ATOM     13  N   UNL     1      19.466  30.559  18.481  0.00  0.00    -0.281 N 
ATOM     14  C   UNL     1      20.282  31.364  17.702  0.00  0.00    +0.248 C 
ATOM     30  O   UNL     1      20.792  32.406  18.084  0.00  0.00    -0.270 OA
ATOM     31  H   UNL     1      18.952  29.830  17.986  0.00  0.00    +0.155 HD
BRANCH  14  15
ATOM     15  C   UNL     1      20.560  30.959  16.290  0.00  0.00    +0.037 A 
ATOM     16  C   UNL     1      21.674  31.541  15.538  0.00  0.00    +0.013 A 
ATOM     17  C   UNL     1      21.909  31.146  14.172  0.00  0.00    +0.005 A 
ATOM     18  C   UNL     1      21.028  30.161  13.550  0.00  0.00    -0.033 A 
ATOM     28  C   UNL     1      19.933  29.595  14.321  0.00  0.00    +0.005 A 
ATOM     29  C   UNL     1      19.699  29.981  15.659  0.00  0.00    +0.013 A 
BRANCH  18  19
ATOM     19  C   UNL     1      21.192  29.696  12.091  0.00  0.00    +0.119 C 
BRANCH  19  20
ATOM     20  N   UNL     1      22.080  30.510  11.209  0.00  0.00    -0.302 NA
ATOM     21  C   UNL     1      21.356  31.732  10.635  0.00  0.00    +0.066 C 
ATOM     22  C   UNL     1      22.307  32.585   9.734  0.00  0.00    -0.064 C 
ATOM     23  N   UNL     1      22.863  31.708   8.610  0.00  0.00    +0.379 N 
ATOM     24  C   UNL     1      23.711  32.522   7.727  0.00  0.00    -0.096 C 
ATOM     25  H   UNL     1      21.999  31.343   8.008  0.00  0.00    -0.082 HD
ATOM     26  C   UNL     1      23.582  30.490   9.172  0.00  0.00    -0.064 C 
ATOM     27  C   UNL     1      22.637  29.665  10.090  0.00  0.00    +0.066 C 
ENDBRANCH  19  20
ENDBRANCH  18  19
ENDBRANCH  14  15
ENDBRANCH  12  13
TORSDOF 6
ENDMDL
MODEL 3
REMARK VINA RESULT:      -7.7      5.461     10.942
REMARK  Name = C:\Users\Docking\Desktop\test protocol\1iep_ligandH.pdb
REMARK  8 active torsions:
REMARK  status: ('A' for Active; 'I' for Inactive)
REMARK    1  A    between atoms: _5  and  _11
REMARK    2  A    between atoms: _19  and  _21
REMARK    3  A    between atoms: _22  and  _66
REMARK    4  A    between atoms: _27  and  _30
REMARK    5  A    between atoms: _32  and  _33
REMARK    6  A    between atoms: _38  and  _43
REMARK    7  A    between atoms: _43  and  _46
REMARK    8  A    between atoms: _53  and  _55
REMARK                            x       y       z     vdW  Elec       q    Type
REMARK                         _______ _______ _______ _____ _____    ______ ____
ROOT
ATOM     10  C   UNL     1      23.680  30.235  11.289  0.00  0.00    +0.038 A 
ATOM     11  C   UNL     1      23.438  31.327  10.415  0.00  0.00    +0.047 A 
ATOM     12  C   UNL     1      24.377  32.433  10.314  0.00  0.00    +0.035 A 
ATOM     32  C   UNL     1      25.556  32.394  11.116  0.00  0.00    +0.024 A 
ATOM     33  C   UNL     1      25.817  31.293  12.009  0.00  0.00    +0.007 A 
ATOM     34  C   UNL     1      24.893  30.200  12.115  0.00  0.00    -0.029 A 
ATOM     35  C   UNL     1      25.222  29.050  13.095  0.00  0.00    +0.045 C 
ENDROOT
BRANCH  10   9
ATOM      4  C   UNL     1      21.961  25.999   9.828  0.00  0.00    +0.077 A 
ATOM      5  C   UNL     1      22.999  25.848   8.850  0.00  0.00    +0.048 A 
ATOM      6  C   UNL     1      23.952  26.886   8.750  0.00  0.00    +0.116 A 
ATOM      7  N   UNL     1      23.864  27.989   9.572  0.00  0.00    -0.223 NA
ATOM      8  C   UNL     1      22.848  28.104  10.503  0.00  0.00    +0.220 A 
ATOM      9  N   UNL     1      22.745  29.200  11.346  0.00  0.00    -0.283 N 
ATOM     36  H   UNL     1      21.977  29.251  12.015  0.00  0.00    +0.155 HD
ATOM     37  N   UNL     1      21.925  27.127  10.618  0.00  0.00    -0.214 NA
BRANCH   4   3
ATOM      1  C   UNL     1      19.197  23.293   9.246  0.00  0.00    +0.020 A 
ATOM      2  C   UNL     1      20.233  24.262   8.971  0.00  0.00    +0.013 A 
ATOM      3  C   UNL     1      20.882  24.986  10.056  0.00  0.00    +0.019 A 
ATOM     38  C   UNL     1      20.457  24.704  11.419  0.00  0.00    +0.120 A 
ATOM     39  N   UNL     1      19.456  23.767  11.653  0.00  0.00    -0.263 NA
ATOM     40  C   UNL     1      18.823  23.065  10.617  0.00  0.00    +0.111 A 
ENDBRANCH   4   3
ENDBRANCH  10   9
BRANCH  12  13
ATOM     13  N   UNL     1      24.181  33.571   9.452  0.00  0.00    -0.281 N 
ATOM     14  C   UNL     1      23.281  34.613   9.608  0.00  0.00    +0.248 C 
ATOM     30  O   UNL     1      22.356  34.613  10.407  0.00  0.00    -0.270 OA
ATOM     31  H   UNL     1      24.777  33.614   8.625  0.00  0.00    +0.155 HD
BRANCH  14  15
ATOM     15  C   UNL     1      23.420  35.823   8.742  0.00  0.00    +0.037 A 
ATOM     16  C   UNL     1      22.547  36.034   7.585  0.00  0.00    +0.013 A 
ATOM     17  C   UNL     1      22.713  37.202   6.756  0.00  0.00    +0.005 A 
ATOM     18  C   UNL     1      23.758  38.169   7.083  0.00  0.00    -0.033 A 
ATOM     28  C   UNL     1      24.608  37.937   8.240  0.00  0.00    +0.005 A 
ATOM     29  C   UNL     1      24.448  36.793   9.054  0.00  0.00    +0.013 A 
BRANCH  18  19
ATOM     19  C   UNL     1      24.022  39.432   6.242  0.00  0.00    +0.119 C 
BRANCH  19  20
ATOM     20  N   UNL     1      24.988  39.311   5.111  0.00  0.00    -0.302 NA
ATOM     21  C   UNL     1      24.526  38.289   4.068  0.00  0.00    +0.066 C 
ATOM     22  C   UNL     1      25.538  38.191   2.880  0.00  0.00    -0.064 C 
ATOM     23  N   UNL     1      26.921  37.826   3.420  0.00  0.00    +0.379 N 
ATOM     24  C   UNL     1      27.862  37.676   2.300  0.00  0.00    -0.096 C 
ATOM     25  H   UNL     1      26.836  36.835   3.925  0.00  0.00    -0.082 HD
ATOM     26  C   UNL     1      27.387  38.835   4.460  0.00  0.00    -0.064 C 
ATOM     27  C   UNL     1      26.361  38.946   5.621  0.00  0.00    +0.066 C 
ENDBRANCH  19  20
ENDBRANCH  18  19
ENDBRANCH  14  15
ENDBRANCH  12  13
TORSDOF 6
ENDMDL
MODEL 4
REMARK VINA RESULT:      -7.6      5.797      9.045
REMARK  Name = C:\Users\Docking\Desktop\test protocol\1iep_ligandH.pdb
REMARK  8 active torsions:
REMARK  status: ('A' for Active; 'I' for Inactive)
REMARK    1  A    between atoms: _5  and  _11
REMARK    2  A    between atoms: _19  and  _21
REMARK    3  A    between atoms: _22  and  _66
REMARK    4  A    between atoms: _27  and  _30
REMARK    5  A    between atoms: _32  and  _33
REMARK    6  A    between atoms: _38  and  _43
REMARK    7  A    between atoms: _43  and  _46
REMARK    8  A    between atoms: _53  and  _55
REMARK                            x       y       z     vdW  Elec       q    Type
REMARK                         _______ _______ _______ _____ _____    ______ ____
ROOT
ATOM     10  C   UNL     1      22.047  32.255  15.680  0.00  0.00    +0.038 A 
ATOM     11  C   UNL     1      22.288  31.280  14.679  0.00  0.00    +0.047 A 
ATOM     12  C   UNL     1      22.471  31.661  13.287  0.00  0.00    +0.035 A 
ATOM     32  C   UNL     1      22.406  33.044  12.950  0.00  0.00    +0.024 A 
ATOM     33  C   UNL     1      22.162  34.049  13.956  0.00  0.00    +0.007 A 
ATOM     34  C   UNL     1      21.978  33.679  15.330  0.00  0.00    -0.029 A 
ATOM     35  C   UNL     1      21.713  34.798  16.364  0.00  0.00    +0.045 C 
ENDROOT
BRANCH  10   9
ATOM      4  C   UNL     1      19.323  30.690  19.308  0.00  0.00    +0.077 A 
ATOM      5  C   UNL     1      18.130  30.741  18.513  0.00  0.00    +0.048 A 
ATOM      6  C   UNL     1      18.260  31.183  17.177  0.00  0.00    +0.116 A 
ATOM      7  N   UNL     1      19.495  31.543  16.684  0.00  0.00    -0.223 NA
ATOM      8  C   UNL     1      20.625  31.484  17.479  0.00  0.00    +0.220 A 
ATOM      9  N   UNL     1      21.879  31.834  17.001  0.00  0.00    -0.283 N 
ATOM     36  H   UNL     1      22.687  31.784  17.621  0.00  0.00    +0.155 HD
ATOM     37  N   UNL     1      20.527  31.067  18.758  0.00  0.00    -0.214 NA
BRANCH   4   3
ATOM      1  C   UNL     1      20.498  29.234  22.743  0.00  0.00    +0.020 A 
ATOM      2  C   UNL     1      20.525  29.649  21.360  0.00  0.00    +0.013 A 
ATOM      3  C   UNL     1      19.349  30.242  20.737  0.00  0.00    +0.019 A 
ATOM     38  C   UNL     1      18.151  30.402  21.548  0.00  0.00    +0.120 A 
ATOM     39  N   UNL     1      18.154  29.991  22.877  0.00  0.00    -0.263 NA
ATOM     40  C   UNL     1      19.279  29.418  23.487  0.00  0.00    +0.111 A 
ENDBRANCH   4   3
ENDBRANCH  10   9
BRANCH  12  13
ATOM     13  N   UNL     1      22.710  30.714  12.225  0.00  0.00    -0.281 N 
ATOM     14  C   UNL     1      23.916  30.154  11.840  0.00  0.00    +0.248 C 
ATOM     30  O   UNL     1      25.012  30.546  12.213  0.00  0.00    -0.270 OA
ATOM     31  H   UNL     1      21.889  30.422  11.694  0.00  0.00    +0.155 HD
BRANCH  14  15
ATOM     15  C   UNL     1      23.905  29.000  10.890  0.00  0.00    +0.037 A 
ATOM     16  C   UNL     1      23.471  29.163   9.500  0.00  0.00    +0.013 A 
ATOM     17  C   UNL     1      23.454  28.030   8.610  0.00  0.00    +0.005 A 
ATOM     18  C   UNL     1      23.875  26.722   9.107  0.00  0.00    -0.033 A 
ATOM     28  C   UNL     1      24.306  26.589  10.489  0.00  0.00    +0.005 A 
ATOM     29  C   UNL     1      24.323  27.698  11.365  0.00  0.00    +0.013 A 
BRANCH  18  19
ATOM     19  C   UNL     1      23.869  25.454   8.233  0.00  0.00    +0.119 C 
BRANCH  19  20
ATOM     20  N   UNL     1      23.388  25.595   6.826  0.00  0.00    -0.302 NA
ATOM     21  C   UNL     1      22.016  24.947   6.620  0.00  0.00    +0.066 C 
ATOM     22  C   UNL     1      21.519  25.123   5.148  0.00  0.00    -0.064 C 
ATOM     23  N   UNL     1      22.550  24.526   4.189  0.00  0.00    +0.379 N 
ATOM     24  C   UNL     1      22.058  24.638   2.808  0.00  0.00    -0.096 C 
ATOM     25  H   UNL     1      22.644  23.441   4.428  0.00  0.00    -0.082 HD
ATOM     26  C   UNL     1      23.918  25.163   4.390  0.00  0.00    -0.064 C 
ATOM     27  C   UNL     1      24.390  25.007   5.862  0.00  0.00    +0.066 C 
ENDBRANCH  19  20
ENDBRANCH  18  19
ENDBRANCH  14  15
ENDBRANCH  12  13
TORSDOF 6
ENDMDL
MODEL 5
REMARK VINA RESULT:      -7.5      8.108     16.156
REMARK  Name = C:\Users\Docking\Desktop\test protocol\1iep_ligandH.pdb
REMARK  8 active torsions:
REMARK  status: ('A' for Active; 'I' for Inactive)
REMARK    1  A    between atoms: _5  and  _11
REMARK    2  A    between atoms: _19  and  _21
REMARK    3  A    between atoms: _22  and  _66
REMARK    4  A    between atoms: _27  and  _30
REMARK    5  A    between atoms: _32  and  _33
REMARK    6  A    between atoms: _38  and  _43
REMARK    7  A    between atoms: _43  and  _46
REMARK    8  A    between atoms: _53  and  _55
REMARK                            x       y       z     vdW  Elec       q    Type
REMARK                         _______ _______ _______ _____ _____    ______ ____
ROOT
ATOM     10  C   UNL     1      22.114  32.038  13.441  0.00  0.00    +0.038 A 
ATOM     11  C   UNL     1      21.777  31.763  14.791  0.00  0.00    +0.047 A 
ATOM     12  C   UNL     1      21.897  32.785  15.820  0.00  0.00    +0.035 A 
ATOM     32  C   UNL     1      22.359  34.078  15.438  0.00  0.00    +0.024 A 
ATOM     33  C   UNL     1      22.707  34.374  14.070  0.00  0.00    +0.007 A 
ATOM     34  C   UNL     1      22.594  33.370  13.052  0.00  0.00    -0.029 A 
ATOM     35  C   UNL     1      22.986  33.742  11.603  0.00  0.00    +0.045 C 
ENDROOT
BRANCH  10   9
ATOM      4  C   UNL     1      23.645  28.028  11.294  0.00  0.00    +0.077 A 
ATOM      5  C   UNL     1      24.825  27.972  12.109  0.00  0.00    +0.048 A 
ATOM      6  C   UNL     1      25.003  28.998  13.063  0.00  0.00    +0.116 A 
ATOM      7  N   UNL     1      24.066  30.000  13.186  0.00  0.00    -0.223 NA
ATOM      8  C   UNL     1      22.940  30.026  12.383  0.00  0.00    +0.220 A 
ATOM      9  N   UNL     1      21.980  31.020  12.495  0.00  0.00    -0.283 N 
ATOM     36  H   UNL     1      21.167  31.007  11.879  0.00  0.00    +0.155 HD
ATOM     37  N   UNL     1      22.747  29.058  11.463  0.00  0.00    -0.214 NA
BRANCH   4   3
ATOM      1  C   UNL     1      23.393  26.137   7.879  0.00  0.00    +0.020 A 
ATOM      2  C   UNL     1      23.740  27.144   8.855  0.00  0.00    +0.013 A 
ATOM      3  C   UNL     1      23.314  27.015  10.243  0.00  0.00    +0.019 A 
ATOM     38  C   UNL     1      22.533  25.844  10.614  0.00  0.00    +0.120 A 
ATOM     39  N   UNL     1      22.213  24.891   9.652  0.00  0.00    -0.263 NA
ATOM     40  C   UNL     1      22.616  25.006   8.313  0.00  0.00    +0.111 A 
ENDBRANCH   4   3
ENDBRANCH  10   9
BRANCH  12  13
ATOM     13  N   UNL     1      21.577  32.561  17.208  0.00  0.00    -0.281 N 
ATOM     14  C   UNL     1      20.337  32.640  17.820  0.00  0.00    +0.248 C 
ATOM     30  O   UNL     1      19.342  33.127  17.305  0.00  0.00    -0.270 OA
ATOM     31  H   UNL     1      22.361  32.315  17.813  0.00  0.00    +0.155 HD
BRANCH  14  15
ATOM     15  C   UNL     1      20.184  32.116  19.212  0.00  0.00    +0.037 A 
ATOM     16  C   UNL     1      20.118  30.677  19.479  0.00  0.00    +0.013 A 
ATOM     17  C   UNL     1      19.953  30.199  20.828  0.00  0.00    +0.005 A 
ATOM     18  C   UNL     1      19.854  31.162  21.922  0.00  0.00    -0.033 A 
ATOM     28  C   UNL     1      19.928  32.584  21.630  0.00  0.00    +0.005 A 
ATOM     29  C   UNL     1      20.089  33.057  20.308  0.00  0.00    +0.013 A 
BRANCH  18  19
ATOM     19  C   UNL     1      19.655  30.742  23.391  0.00  0.00    +0.119 C 
BRANCH  19  20
ATOM     20  N   UNL     1      18.251  30.618  23.883  0.00  0.00    -0.302 NA
ATOM     21  C   UNL     1      17.787  31.878  24.621  0.00  0.00    +0.066 C 
ATOM     22  C   UNL     1      16.308  31.740  25.109  0.00  0.00    -0.064 C 
ATOM     23  N   UNL     1      16.184  30.508  26.008  0.00  0.00    +0.379 N 
ATOM     24  C   UNL     1      14.807  30.409  26.515  0.00  0.00    -0.096 C 
ATOM     25  H   UNL     1      16.857  30.660  26.883  0.00  0.00    -0.082 HD
ATOM     26  C   UNL     1      16.645  29.252  25.283  0.00  0.00    -0.064 C 
ATOM     27  C   UNL     1      18.106  29.411  24.776  0.00  0.00    +0.066 C 
ENDBRANCH  19  20
ENDBRANCH  18  19
ENDBRANCH  14  15
ENDBRANCH  12  13
TORSDOF 6
ENDMDL
