MODEL 1
REMARK VINA RESULT:      -7.6      0.000      0.000
REMARK  Name = C:\Users\Docking\Desktop\test protocol\1iep_ligandH.pdb
REMARK  8 active torsions:
REMARK  status: ('A' for Active; 'I' for Inactive)
REMARK    1  A    between atoms: _5  and  _11
REMARK    2  A    between atoms: _19  and  _21
REMARK    3  A    between atoms: _22  and  _66
REMARK    4  A    between atoms: _27  and  _30
REMARK    5  A    between atoms: _32  and  _33
REMARK    6  A    between atoms: _38  and  _43
REMARK    7  A    between atoms: _43  and  _46
REMARK    8  A    between atoms: _53  and  _55
REMARK                            x       y       z     vdW  Elec       q    Type
REMARK                         _______ _______ _______ _____ _____    ______ ____
ROOT
ATOM     10  C   UNL     1     -10.277  13.042  25.645  0.00  0.00    +0.038 A 
ATOM     11  C   UNL     1     -11.006  13.924  26.483  0.00  0.00    +0.047 A 
ATOM     12  C   UNL     1     -12.158  13.460  27.241  0.00  0.00    +0.035 A 
ATOM     32  C   UNL     1     -12.539  12.092  27.123  0.00  0.00    +0.024 A 
ATOM     33  C   UNL     1     -11.810  11.182  26.275  0.00  0.00    +0.007 A 
ATOM     34  C   UNL     1     -10.674  11.634  25.523  0.00  0.00    -0.029 A 
ATOM     35  C   UNL     1      -9.934  10.617  24.623  0.00  0.00    +0.045 C 
ENDROOT
BRANCH  10   9
ATOM      4  C   UNL     1      -8.330  15.265  21.862  0.00  0.00    +0.077 A 
ATOM      5  C   UNL     1      -9.605  15.423  21.224  0.00  0.00    +0.048 A 
ATOM      6  C   UNL     1     -10.736  14.912  21.899  0.00  0.00    +0.116 A 
ATOM      7  N   UNL     1     -10.592  14.292  23.121  0.00  0.00    -0.223 NA
ATOM      8  C   UNL     1      -9.347  14.154  23.708  0.00  0.00    +0.220 A 
ATOM      9  N   UNL     1      -9.179  13.540  24.940  0.00  0.00    -0.283 N 
ATOM     36  H   UNL     1      -8.244  13.452  25.336  0.00  0.00    +0.155 HD
ATOM     37  N   UNL     1      -8.251  14.632  23.083  0.00  0.00    -0.214 NA
BRANCH   4   3
ATOM      1  C   UNL     1      -5.092  15.561  19.688  0.00  0.00    +0.020 A 
ATOM      2  C   UNL     1      -6.332  15.045  20.220  0.00  0.00    +0.013 A 
ATOM      3  C   UNL     1      -7.042  15.754  21.276  0.00  0.00    +0.019 A 
ATOM     38  C   UNL     1      -6.466  16.994  21.776  0.00  0.00    +0.120 A 
ATOM     39  N   UNL     1      -5.270  17.466  21.245  0.00  0.00    -0.263 NA
ATOM     40  C   UNL     1      -4.577  16.790  20.230  0.00  0.00    +0.111 A 
ENDBRANCH   4   3
ENDBRANCH  10   9
BRANCH  12  13
ATOM     13  N   UNL     1     -12.942  14.311  28.103  0.00  0.00    -0.281 N 
ATOM     14  C   UNL     1     -12.495  15.125  29.131  0.00  0.00    +0.248 C 
ATOM     30  O   UNL     1     -11.371  15.082  29.608  0.00  0.00    -0.270 OA
ATOM     31  H   UNL     1     -13.948  14.313  27.934  0.00  0.00    +0.155 HD
BRANCH  14  15
ATOM     15  C   UNL     1     -13.438  16.121  29.725  0.00  0.00    +0.037 A 
ATOM     16  C   UNL     1     -13.410  17.529  29.322  0.00  0.00    +0.013 A 
ATOM     17  C   UNL     1     -14.319  18.472  29.923  0.00  0.00    +0.005 A 
ATOM     18  C   UNL     1     -15.266  18.008  30.934  0.00  0.00    -0.033 A 
ATOM     28  C   UNL     1     -15.276  16.605  31.312  0.00  0.00    +0.005 A 
ATOM     29  C   UNL     1     -14.386  15.678  30.726  0.00  0.00    +0.013 A 
BRANCH  18  19
ATOM     19  C   UNL     1     -16.259  18.948  31.644  0.00  0.00    +0.119 C 
BRANCH  19  20
ATOM     20  N   UNL     1     -15.685  20.001  32.536  0.00  0.00    -0.302 NA
ATOM     21  C   UNL     1     -16.319  19.980  33.929  0.00  0.00    +0.066 C 
ATOM     22  C   UNL     1     -15.692  21.072  34.856  0.00  0.00    -0.064 C 
ATOM     23  N   UNL     1     -15.859  22.447  34.205  0.00  0.00    +0.379 N 
ATOM     24  C   UNL     1     -15.323  23.482  35.100  0.00  0.00    -0.096 C 
ATOM     25  H   UNL     1     -16.952  22.634  34.087  0.00  0.00    -0.082 HD
ATOM     26  C   UNL     1     -15.234  22.475  32.817  0.00  0.00    -0.064 C 
ATOM     27  C   UNL     1     -15.843  21.366  31.914  0.00  0.00    +0.066 C 
ENDBRANCH  19  20
ENDBRANCH  18  19
ENDBRANCH  14  15
ENDBRANCH  12  13
TORSDOF 6
ENDMDL
MODEL 2
REMARK VINA RESULT:      -7.6      3.706     12.306
REMARK  Name = C:\Users\Docking\Desktop\test protocol\1iep_ligandH.pdb
REMARK  8 active torsions:
REMARK  status: ('A' for Active; 'I' for Inactive)
REMARK    1  A    between atoms: _5  and  _11
REMARK    2  A    between atoms: _19  and  _21
REMARK    3  A    between atoms: _22  and  _66
REMARK    4  A    between atoms: _27  and  _30
REMARK    5  A    between atoms: _32  and  _33
REMARK    6  A    between atoms: _38  and  _43
REMARK    7  A    between atoms: _43  and  _46
REMARK    8  A    between atoms: _53  and  _55
REMARK                            x       y       z     vdW  Elec       q    Type
REMARK                         _______ _______ _______ _____ _____    ______ ____
ROOT
ATOM     10  C   UNL     1     -14.976  19.986  29.859  0.00  0.00    +0.038 A 
ATOM     11  C   UNL     1     -14.036  19.272  29.073  0.00  0.00    +0.047 A 
ATOM     12  C   UNL     1     -13.194  18.241  29.660  0.00  0.00    +0.035 A 
ATOM     32  C   UNL     1     -13.338  17.961  31.050  0.00  0.00    +0.024 A 
ATOM     33  C   UNL     1     -14.288  18.677  31.864  0.00  0.00    +0.007 A 
ATOM     34  C   UNL     1     -15.120  19.697  31.291  0.00  0.00    -0.029 A 
ATOM     35  C   UNL     1     -16.116  20.438  32.213  0.00  0.00    +0.045 C 
ENDROOT
BRANCH  10   9
ATOM      4  C   UNL     1     -15.926  24.554  28.732  0.00  0.00    +0.077 A 
ATOM      5  C   UNL     1     -14.780  25.031  29.451  0.00  0.00    +0.048 A 
ATOM      6  C   UNL     1     -13.976  24.070  30.104  0.00  0.00    +0.116 A 
ATOM      7  N   UNL     1     -14.303  22.733  30.035  0.00  0.00    -0.223 NA
ATOM      8  C   UNL     1     -15.416  22.306  29.334  0.00  0.00    +0.220 A 
ATOM      9  N   UNL     1     -15.759  20.966  29.245  0.00  0.00    -0.283 N 
ATOM     36  H   UNL     1     -16.592  20.692  28.724  0.00  0.00    +0.155 HD
ATOM     37  N   UNL     1     -16.201  23.205  28.704  0.00  0.00    -0.214 NA
BRANCH   4   3
ATOM      1  C   UNL     1     -18.196  27.577  27.729  0.00  0.00    +0.020 A 
ATOM      2  C   UNL     1     -17.281  26.754  28.486  0.00  0.00    +0.013 A 
ATOM      3  C   UNL     1     -16.870  25.447  27.989  0.00  0.00    +0.019 A 
ATOM     38  C   UNL     1     -17.407  24.999  26.712  0.00  0.00    +0.120 A 
ATOM     39  N   UNL     1     -18.287  25.813  26.006  0.00  0.00    -0.263 NA
ATOM     40  C   UNL     1     -18.691  27.072  26.475  0.00  0.00    +0.111 A 
ENDBRANCH   4   3
ENDBRANCH  10   9
BRANCH  12  13
ATOM     13  N   UNL     1     -12.216  17.489  28.913  0.00  0.00    -0.281 N 
ATOM     14  C   UNL     1     -12.258  16.150  28.562  0.00  0.00    +0.248 C 
ATOM     30  O   UNL     1     -13.048  15.339  29.023  0.00  0.00    -0.270 OA
ATOM     31  H   UNL     1     -11.392  18.007  28.607  0.00  0.00    +0.155 HD
BRANCH  14  15
ATOM     15  C   UNL     1     -11.271  15.633  27.566  0.00  0.00    +0.037 A 
ATOM     16  C   UNL     1      -9.915  16.182  27.484  0.00  0.00    +0.013 A 
ATOM     17  C   UNL     1      -8.988  15.677  26.503  0.00  0.00    +0.005 A 
ATOM     18  C   UNL     1      -9.415  14.615  25.595  0.00  0.00    -0.033 A 
ATOM     28  C   UNL     1     -10.764  14.085  25.701  0.00  0.00    +0.005 A 
ATOM     29  C   UNL     1     -11.676  14.578  26.661  0.00  0.00    +0.013 A 
BRANCH  18  19
ATOM     19  C   UNL     1      -8.499  14.030  24.503  0.00  0.00    +0.119 C 
BRANCH  19  20
ATOM     20  N   UNL     1      -8.072  14.949  23.405  0.00  0.00    -0.302 NA
ATOM     21  C   UNL     1      -7.750  14.190  22.114  0.00  0.00    +0.066 C 
ATOM     22  C   UNL     1      -7.327  15.168  20.970  0.00  0.00    -0.064 C 
ATOM     23  N   UNL     1      -6.123  15.993  21.428  0.00  0.00    +0.379 N 
ATOM     24  C   UNL     1      -5.686  16.873  20.334  0.00  0.00    -0.096 C 
ATOM     25  H   UNL     1      -5.290  15.284  21.645  0.00  0.00    -0.082 HD
ATOM     26  C   UNL     1      -6.433  16.748  22.713  0.00  0.00    -0.064 C 
ATOM     27  C   UNL     1      -6.881  15.770  23.834  0.00  0.00    +0.066 C 
ENDBRANCH  19  20
ENDBRANCH  18  19
ENDBRANCH  14  15
ENDBRANCH  12  13
TORSDOF 6
ENDMDL
MODEL 3
REMARK VINA RESULT:      -7.6      3.908     12.408
REMARK  Name = C:\Users\Docking\Desktop\test protocol\1iep_ligandH.pdb
REMARK  8 active torsions:
REMARK  status: ('A' for Active; 'I' for Inactive)
REMARK    1  A    between atoms: _5  and  _11
REMARK    2  A    between atoms: _19  and  _21
REMARK    3  A    between atoms: _22  and  _66
REMARK    4  A    between atoms: _27  and  _30
REMARK    5  A    between atoms: _32  and  _33
REMARK    6  A    between atoms: _38  and  _43
REMARK    7  A    between atoms: _43  and  _46
REMARK    8  A    between atoms: _53  and  _55
REMARK                            x       y       z     vdW  Elec       q    Type
REMARK                         _______ _______ _______ _____ _____    ______ ____
ROOT
ATOM     10  C   UNL     1     -15.072  19.970  29.608  0.00  0.00    +0.038 A 
ATOM     11  C   UNL     1     -14.225  19.239  28.737  0.00  0.00    +0.047 A 
ATOM     12  C   UNL     1     -13.398  18.149  29.232  0.00  0.00    +0.035 A 
ATOM     32  C   UNL     1     -13.461  17.829  30.619  0.00  0.00    +0.024 A 
ATOM     33  C   UNL     1     -14.316  18.562  31.519  0.00  0.00    +0.007 A 
ATOM     34  C   UNL     1     -15.132  19.640  31.037  0.00  0.00    -0.029 A 
ATOM     35  C   UNL     1     -16.025  20.396  32.048  0.00  0.00    +0.045 C 
ENDROOT
BRANCH  10   9
ATOM      4  C   UNL     1     -15.892  24.619  28.740  0.00  0.00    +0.077 A 
ATOM      5  C   UNL     1     -14.694  25.018  29.420  0.00  0.00    +0.048 A 
ATOM      6  C   UNL     1     -13.898  23.997  29.985  0.00  0.00    +0.116 A 
ATOM      7  N   UNL     1     -14.281  22.678  29.873  0.00  0.00    -0.223 NA
ATOM      8  C   UNL     1     -15.444  22.327  29.212  0.00  0.00    +0.220 A 
ATOM      9  N   UNL     1     -15.845  21.007  29.080  0.00  0.00    -0.283 N 
ATOM     36  H   UNL     1     -16.713  20.790  28.591  0.00  0.00    +0.155 HD
ATOM     37  N   UNL     1     -16.222  23.284  28.664  0.00  0.00    -0.214 NA
BRANCH   4   3
ATOM      1  C   UNL     1     -18.158  27.729  28.036  0.00  0.00    +0.020 A 
ATOM      2  C   UNL     1     -17.244  26.834  28.709  0.00  0.00    +0.013 A 
ATOM      3  C   UNL     1     -16.836  25.581  28.087  0.00  0.00    +0.019 A 
ATOM     38  C   UNL     1     -17.374  25.259  26.774  0.00  0.00    +0.120 A 
ATOM     39  N   UNL     1     -18.253  26.139  26.151  0.00  0.00    -0.263 NA
ATOM     40  C   UNL     1     -18.655  27.348  26.740  0.00  0.00    +0.111 A 
ENDBRANCH   4   3
ENDBRANCH  10   9
BRANCH  12  13
ATOM     13  N   UNL     1     -12.512  17.376  28.396  0.00  0.00    -0.281 N 
ATOM     14  C   UNL     1     -11.130  17.300  28.462  0.00  0.00    +0.248 C 
ATOM     30  O   UNL     1     -10.427  18.055  29.116  0.00  0.00    -0.270 OA
ATOM     31  H   UNL     1     -12.958  16.817  27.668  0.00  0.00    +0.155 HD
BRANCH  14  15
ATOM     15  C   UNL     1     -10.427  16.241  27.676  0.00  0.00    +0.037 A 
ATOM     16  C   UNL     1      -8.970  16.248  27.524  0.00  0.00    +0.013 A 
ATOM     17  C   UNL     1      -8.319  15.224  26.746  0.00  0.00    +0.005 A 
ATOM     18  C   UNL     1      -9.126  14.182  26.114  0.00  0.00    -0.033 A 
ATOM     28  C   UNL     1     -10.569  14.196  26.286  0.00  0.00    +0.005 A 
ATOM     29  C   UNL     1     -11.211  15.199  27.047  0.00  0.00    +0.013 A 
BRANCH  18  19
ATOM     19  C   UNL     1      -8.518  13.063  25.249  0.00  0.00    +0.119 C 
BRANCH  19  20
ATOM     20  N   UNL     1      -9.154  11.714  25.330  0.00  0.00    -0.302 NA
ATOM     21  C   UNL     1      -8.217  10.673  25.950  0.00  0.00    +0.066 C 
ATOM     22  C   UNL     1      -8.906   9.274  26.048  0.00  0.00    -0.064 C 
ATOM     23  N   UNL     1      -9.359   8.833  24.656  0.00  0.00    +0.379 N 
ATOM     24  C   UNL     1      -9.955   7.491  24.736  0.00  0.00    -0.096 C 
ATOM     25  H   UNL     1      -8.452   8.762  24.012  0.00  0.00    -0.082 HD
ATOM     26  C   UNL     1     -10.289   9.863  24.031  0.00  0.00    -0.064 C 
ATOM     27  C   UNL     1      -9.605  11.257  23.965  0.00  0.00    +0.066 C 
ENDBRANCH  19  20
ENDBRANCH  18  19
ENDBRANCH  14  15
ENDBRANCH  12  13
TORSDOF 6
ENDMDL
MODEL 4
REMARK VINA RESULT:      -7.5      2.464     12.890
REMARK  Name = C:\Users\Docking\Desktop\test protocol\1iep_ligandH.pdb
REMARK  8 active torsions:
REMARK  status: ('A' for Active; 'I' for Inactive)
REMARK    1  A    between atoms: _5  and  _11
REMARK    2  A    between atoms: _19  and  _21
REMARK    3  A    between atoms: _22  and  _66
REMARK    4  A    between atoms: _27  and  _30
REMARK    5  A    between atoms: _32  and  _33
REMARK    6  A    between atoms: _38  and  _43
REMARK    7  A    between atoms: _43  and  _46
REMARK    8  A    between atoms: _53  and  _55
REMARK                            x       y       z     vdW  Elec       q    Type
REMARK                         _______ _______ _______ _____ _____    ______ ____
ROOT
ATOM     10  C   UNL     1     -11.995  14.475  26.817  0.00  0.00    +0.038 A 
ATOM     11  C   UNL     1     -11.053  14.862  25.830  0.00  0.00    +0.047 A 
ATOM     12  C   UNL     1     -10.182  13.885  25.197  0.00  0.00    +0.035 A 
ATOM     32  C   UNL     1     -10.299  12.520  25.591  0.00  0.00    +0.024 A 
ATOM     33  C   UNL     1     -11.250  12.109  26.593  0.00  0.00    +0.007 A 
ATOM     34  C   UNL     1     -12.110  13.069  27.223  0.00  0.00    -0.029 A 
ATOM     35  C   UNL     1     -13.107  12.573  28.296  0.00  0.00    +0.045 C 
ENDROOT
BRANCH  10   9
ATOM      4  C   UNL     1     -12.743  18.075  29.902  0.00  0.00    +0.077 A 
ATOM      5  C   UNL     1     -11.413  17.977  30.431  0.00  0.00    +0.048 A 
ATOM      6  C   UNL     1     -10.570  16.982  29.887  0.00  0.00    +0.116 A 
ATOM      7  N   UNL     1     -11.033  16.153  28.888  0.00  0.00    -0.223 NA
ATOM      8  C   UNL     1     -12.322  16.273  28.402  0.00  0.00    +0.220 A 
ATOM      9  N   UNL     1     -12.806  15.456  27.392  0.00  0.00    -0.283 N 
ATOM     36  H   UNL     1     -13.765  15.571  27.066  0.00  0.00    +0.155 HD
ATOM     37  N   UNL     1     -13.147  17.215  28.906  0.00  0.00    -0.214 NA
BRANCH   4   3
ATOM      1  C   UNL     1     -15.466  20.882  29.966  0.00  0.00    +0.020 A 
ATOM      2  C   UNL     1     -14.504  19.930  29.461  0.00  0.00    +0.013 A 
ATOM      3  C   UNL     1     -13.750  19.078  30.372  0.00  0.00    +0.019 A 
ATOM     38  C   UNL     1     -13.996  19.215  31.800  0.00  0.00    +0.120 A 
ATOM     39  N   UNL     1     -14.927  20.142  32.257  0.00  0.00    -0.263 NA
ATOM     40  C   UNL     1     -15.658  20.968  31.390  0.00  0.00    +0.111 A 
ENDBRANCH   4   3
ENDBRANCH  10   9
BRANCH  12  13
ATOM     13  N   UNL     1      -9.201  14.220  24.194  0.00  0.00    -0.281 N 
ATOM     14  C   UNL     1      -9.414  14.800  22.955  0.00  0.00    +0.248 C 
ATOM     30  O   UNL     1     -10.510  14.924  22.429  0.00  0.00    -0.270 OA
ATOM     31  H   UNL     1      -8.231  14.004  24.427  0.00  0.00    +0.155 HD
BRANCH  14  15
ATOM     15  C   UNL     1      -8.238  15.302  22.181  0.00  0.00    +0.037 A 
ATOM     16  C   UNL     1      -7.603  16.581  22.508  0.00  0.00    +0.013 A 
ATOM     17  C   UNL     1      -6.481  17.051  21.734  0.00  0.00    +0.005 A 
ATOM     18  C   UNL     1      -5.985  16.238  20.626  0.00  0.00    -0.033 A 
ATOM     28  C   UNL     1      -6.630  14.971  20.327  0.00  0.00    +0.005 A 
ATOM     29  C   UNL     1      -7.731  14.508  21.082  0.00  0.00    +0.013 A 
BRANCH  18  19
ATOM     19  C   UNL     1      -4.806  16.670  19.734  0.00  0.00    +0.119 C 
BRANCH  19  20
ATOM     20  N   UNL     1      -3.871  15.602  19.272  0.00  0.00    -0.302 NA
ATOM     21  C   UNL     1      -2.449  15.816  19.800  0.00  0.00    +0.066 C 
ATOM     22  C   UNL     1      -1.489  14.677  19.325  0.00  0.00    -0.064 C 
ATOM     23  N   UNL     1      -1.495  14.611  17.797  0.00  0.00    +0.379 N 
ATOM     24  C   UNL     1      -0.549  13.580  17.346  0.00  0.00    -0.096 C 
ATOM     25  H   UNL     1      -1.132  15.594  17.415  0.00  0.00    -0.082 HD
ATOM     26  C   UNL     1      -2.905  14.402  17.264  0.00  0.00    -0.064 C 
ATOM     27  C   UNL     1      -3.858  15.523  17.765  0.00  0.00    +0.066 C 
ENDBRANCH  19  20
ENDBRANCH  18  19
ENDBRANCH  14  15
ENDBRANCH  12  13
TORSDOF 6
ENDMDL
MODEL 5
REMARK VINA RESULT:      -7.5      1.847      2.378
REMARK  Name = C:\Users\Docking\Desktop\test protocol\1iep_ligandH.pdb
REMARK  8 active torsions:
REMARK  status: ('A' for Active; 'I' for Inactive)
REMARK    1  A    between atoms: _5  and  _11
REMARK    2  A    between atoms: _19  and  _21
REMARK    3  A    between atoms: _22  and  _66
REMARK    4  A    between atoms: _27  and  _30
REMARK    5  A    between atoms: _32  and  _33
REMARK    6  A    between atoms: _38  and  _43
REMARK    7  A    between atoms: _43  and  _46
REMARK    8  A    between atoms: _53  and  _55
REMARK                            x       y       z     vdW  Elec       q    Type
REMARK                         _______ _______ _______ _____ _____    ______ ____
ROOT
ATOM     10  C   UNL     1     -10.316  14.105  25.931  0.00  0.00    +0.038 A 
ATOM     11  C   UNL     1     -11.030  15.140  26.588  0.00  0.00    +0.047 A 
ATOM     12  C   UNL     1     -12.206  14.848  27.393  0.00  0.00    +0.035 A 
ATOM     32  C   UNL     1     -12.625  13.491  27.510  0.00  0.00    +0.024 A 
ATOM     33  C   UNL     1     -11.911  12.427  26.849  0.00  0.00    +0.007 A 
ATOM     34  C   UNL     1     -10.752  12.709  26.051  0.00  0.00    -0.029 A 
ATOM     35  C   UNL     1     -10.030  11.529  25.360  0.00  0.00    +0.045 C 
ENDROOT
BRANCH  10   9
ATOM      4  C   UNL     1      -8.234  15.427  21.813  0.00  0.00    +0.077 A 
ATOM      5  C   UNL     1      -9.485  15.420  21.111  0.00  0.00    +0.048 A 
ATOM      6  C   UNL     1     -10.639  15.064  21.843  0.00  0.00    +0.116 A 
ATOM      7  N   UNL     1     -10.539  14.741  23.179  0.00  0.00    -0.223 NA
ATOM      8  C   UNL     1      -9.317  14.755  23.826  0.00  0.00    +0.220 A 
ATOM      9  N   UNL     1      -9.194  14.442  25.171  0.00  0.00    -0.283 N 
ATOM     36  H   UNL     1      -8.273  14.457  25.610  0.00  0.00    +0.155 HD
ATOM     37  N   UNL     1      -8.199  15.091  23.148  0.00  0.00    -0.214 NA
BRANCH   4   3
ATOM      1  C   UNL     1      -5.056  15.382  19.534  0.00  0.00    +0.020 A 
ATOM      2  C   UNL     1      -6.320  14.993  20.115  0.00  0.00    +0.013 A 
ATOM      3  C   UNL     1      -6.927  15.784  21.177  0.00  0.00    +0.019 A 
ATOM     38  C   UNL     1      -6.224  16.974  21.632  0.00  0.00    +0.120 A 
ATOM     39  N   UNL     1      -5.007  17.324  21.055  0.00  0.00    -0.263 NA
ATOM     40  C   UNL     1      -4.412  16.569  20.033  0.00  0.00    +0.111 A 
ENDBRANCH   4   3
ENDBRANCH  10   9
BRANCH  12  13
ATOM     13  N   UNL     1     -12.976  15.858  28.076  0.00  0.00    -0.281 N 
ATOM     14  C   UNL     1     -12.698  16.465  29.290  0.00  0.00    +0.248 C 
ATOM     30  O   UNL     1     -11.851  16.076  30.079  0.00  0.00    -0.270 OA
ATOM     31  H   UNL     1     -13.830  16.162  27.608  0.00  0.00    +0.155 HD
BRANCH  14  15
ATOM     15  C   UNL     1     -13.486  17.670  29.691  0.00  0.00    +0.037 A 
ATOM     16  C   UNL     1     -13.928  18.654  28.700  0.00  0.00    +0.013 A 
ATOM     17  C   UNL     1     -14.671  19.817  29.116  0.00  0.00    +0.005 A 
ATOM     18  C   UNL     1     -14.979  20.001  30.532  0.00  0.00    -0.033 A 
ATOM     28  C   UNL     1     -14.532  19.007  31.494  0.00  0.00    +0.005 A 
ATOM     29  C   UNL     1     -13.803  17.867  31.090  0.00  0.00    +0.013 A 
BRANCH  18  19
ATOM     19  C   UNL     1     -15.749  21.222  31.069  0.00  0.00    +0.119 C 
BRANCH  19  20
ATOM     20  N   UNL     1     -15.026  22.529  31.094  0.00  0.00    -0.302 NA
ATOM     21  C   UNL     1     -15.153  23.281  29.766  0.00  0.00    +0.066 C 
ATOM     22  C   UNL     1     -14.410  24.656  29.818  0.00  0.00    -0.064 C 
ATOM     23  N   UNL     1     -12.940  24.425  30.171  0.00  0.00    +0.379 N 
ATOM     24  C   UNL     1     -12.226  25.711  30.164  0.00  0.00    -0.096 C 
ATOM     25  H   UNL     1     -12.496  23.787  29.372  0.00  0.00    -0.082 HD
ATOM     26  C   UNL     1     -12.805  23.676  31.489  0.00  0.00    -0.064 C 
ATOM     27  C   UNL     1     -13.571  22.324  31.437  0.00  0.00    +0.066 C 
ENDBRANCH  19  20
ENDBRANCH  18  19
ENDBRANCH  14  15
ENDBRANCH  12  13
TORSDOF 6
ENDMDL
