MODEL 1
REMARK VINA RESULT:      -8.5      0.000      0.000
REMARK  Name = C:\Users\Docking\Desktop\test protocol\1iep_ligandH.pdb
REMARK  8 active torsions:
REMARK  status: ('A' for Active; 'I' for Inactive)
REMARK    1  A    between atoms: _5  and  _11
REMARK    2  A    between atoms: _19  and  _21
REMARK    3  A    between atoms: _22  and  _66
REMARK    4  A    between atoms: _27  and  _30
REMARK    5  A    between atoms: _32  and  _33
REMARK    6  A    between atoms: _38  and  _43
REMARK    7  A    between atoms: _43  and  _46
REMARK    8  A    between atoms: _53  and  _55
REMARK                            x       y       z     vdW  Elec       q    Type
REMARK                         _______ _______ _______ _____ _____    ______ ____
ROOT
ATOM     10  C   UNL     1      19.375   2.736  -6.912  0.00  0.00    +0.038 A 
ATOM     11  C   UNL     1      18.322   1.951  -6.378  0.00  0.00    +0.047 A 
ATOM     12  C   UNL     1      17.987   0.654  -6.945  0.00  0.00    +0.035 A 
ATOM     32  C   UNL     1      18.748   0.186  -8.056  0.00  0.00    +0.024 A 
ATOM     33  C   UNL     1      19.821   0.972  -8.613  0.00  0.00    +0.007 A 
ATOM     34  C   UNL     1      20.154   2.253  -8.059  0.00  0.00    -0.029 A 
ATOM     35  C   UNL     1      21.310   3.055  -8.701  0.00  0.00    +0.045 C 
ENDROOT
BRANCH  10   9
ATOM      4  C   UNL     1      18.779   7.487  -6.575  0.00  0.00    +0.077 A 
ATOM      5  C   UNL     1      17.856   7.508  -7.673  0.00  0.00    +0.048 A 
ATOM      6  C   UNL     1      17.566   6.277  -8.302  0.00  0.00    +0.116 A 
ATOM      7  N   UNL     1      18.161   5.116  -7.857  0.00  0.00    -0.223 NA
ATOM      8  C   UNL     1      19.049   5.130  -6.797  0.00  0.00    +0.220 A 
ATOM      9  N   UNL     1      19.653   3.974  -6.328  0.00  0.00    -0.283 N 
ATOM     36  H   UNL     1      20.308   4.027  -5.548  0.00  0.00    +0.155 HD
ATOM     37  N   UNL     1      19.343   6.294  -6.180  0.00  0.00    -0.214 NA
BRANCH   4   3
ATOM      1  C   UNL     1      19.519   9.986  -3.659  0.00  0.00    +0.020 A 
ATOM      2  C   UNL     1      19.117   8.785  -4.353  0.00  0.00    +0.013 A 
ATOM      3  C   UNL     1      19.183   8.706  -5.806  0.00  0.00    +0.019 A 
ATOM     38  C   UNL     1      19.666   9.870  -6.534  0.00  0.00    +0.120 A 
ATOM     39  N   UNL     1      20.046  11.014  -5.839  0.00  0.00    -0.263 NA
ATOM     40  C   UNL     1      19.985  11.102  -4.440  0.00  0.00    +0.111 A 
ENDBRANCH   4   3
ENDBRANCH  10   9
BRANCH  12  13
ATOM     13  N   UNL     1      16.924  -0.185  -6.449  0.00  0.00    -0.281 N 
ATOM     14  C   UNL     1      17.020  -1.256  -5.577  0.00  0.00    +0.248 C 
ATOM     30  O   UNL     1      18.070  -1.793  -5.256  0.00  0.00    -0.270 OA
ATOM     31  H   UNL     1      15.986   0.040  -6.782  0.00  0.00    +0.155 HD
BRANCH  14  15
ATOM     15  C   UNL     1      15.769  -1.823  -4.988  0.00  0.00    +0.037 A 
ATOM     16  C   UNL     1      14.547  -1.022  -4.886  0.00  0.00    +0.013 A 
ATOM     17  C   UNL     1      13.358  -1.587  -4.298  0.00  0.00    +0.005 A 
ATOM     18  C   UNL     1      13.387  -2.963  -3.808  0.00  0.00    -0.033 A 
ATOM     28  C   UNL     1      14.612  -3.737  -3.926  0.00  0.00    +0.005 A 
ATOM     29  C   UNL     1      15.778  -3.186  -4.501  0.00  0.00    +0.013 A 
BRANCH  18  19
ATOM     19  C   UNL     1      12.172  -3.641  -3.146  0.00  0.00    +0.119 C 
BRANCH  19  20
ATOM     20  N   UNL     1      10.916  -2.840  -3.041  0.00  0.00    -0.302 NA
ATOM     21  C   UNL     1      10.744  -2.220  -1.651  0.00  0.00    +0.066 C 
ATOM     22  C   UNL     1       9.437  -1.368  -1.565  0.00  0.00    -0.064 C 
ATOM     23  N   UNL     1       8.235  -2.245  -1.919  0.00  0.00    +0.379 N 
ATOM     24  C   UNL     1       6.998  -1.462  -1.784  0.00  0.00    -0.096 C 
ATOM     25  H   UNL     1       8.193  -3.076  -1.177  0.00  0.00    -0.082 HD
ATOM     26  C   UNL     1       8.399  -2.868  -3.299  0.00  0.00    -0.064 C 
ATOM     27  C   UNL     1       9.716  -3.688  -3.382  0.00  0.00    +0.066 C 
ENDBRANCH  19  20
ENDBRANCH  18  19
ENDBRANCH  14  15
ENDBRANCH  12  13
TORSDOF 6
ENDMDL
MODEL 2
REMARK VINA RESULT:      -8.4     25.386     33.143
REMARK  Name = C:\Users\Docking\Desktop\test protocol\1iep_ligandH.pdb
REMARK  8 active torsions:
REMARK  status: ('A' for Active; 'I' for Inactive)
REMARK    1  A    between atoms: _5  and  _11
REMARK    2  A    between atoms: _19  and  _21
REMARK    3  A    between atoms: _22  and  _66
REMARK    4  A    between atoms: _27  and  _30
REMARK    5  A    between atoms: _32  and  _33
REMARK    6  A    between atoms: _38  and  _43
REMARK    7  A    between atoms: _43  and  _46
REMARK    8  A    between atoms: _53  and  _55
REMARK                            x       y       z     vdW  Elec       q    Type
REMARK                         _______ _______ _______ _____ _____    ______ ____
ROOT
ATOM     10  C   UNL     1      14.305  23.076  14.150  0.00  0.00    +0.038 A 
ATOM     11  C   UNL     1      15.088  24.224  13.866  0.00  0.00    +0.047 A 
ATOM     12  C   UNL     1      14.618  25.558  14.204  0.00  0.00    +0.035 A 
ATOM     32  C   UNL     1      13.345  25.687  14.832  0.00  0.00    +0.024 A 
ATOM     33  C   UNL     1      12.535  24.531  15.127  0.00  0.00    +0.007 A 
ATOM     34  C   UNL     1      12.993  23.212  14.794  0.00  0.00    -0.029 A 
ATOM     35  C   UNL     1      12.080  22.009  15.128  0.00  0.00    +0.045 C 
ENDROOT
BRANCH  10   9
ATOM      4  C   UNL     1      16.400  18.903  15.260  0.00  0.00    +0.077 A 
ATOM      5  C   UNL     1      16.533  19.269  16.640  0.00  0.00    +0.048 A 
ATOM      6  C   UNL     1      16.056  20.542  17.023  0.00  0.00    +0.116 A 
ATOM      7  N   UNL     1      15.490  21.379  16.086  0.00  0.00    -0.223 NA
ATOM      8  C   UNL     1      15.379  20.996  14.762  0.00  0.00    +0.220 A 
ATOM      9  N   UNL     1      14.806  21.819  13.804  0.00  0.00    -0.283 N 
ATOM     36  H   UNL     1      14.749  21.502  12.836  0.00  0.00    +0.155 HD
ATOM     37  N   UNL     1      15.828  19.785  14.371  0.00  0.00    -0.214 NA
BRANCH   4   3
ATOM      1  C   UNL     1      18.643  15.934  14.053  0.00  0.00    +0.020 A 
ATOM      2  C   UNL     1      18.259  17.215  14.599  0.00  0.00    +0.013 A 
ATOM      3  C   UNL     1      16.854  17.589  14.702  0.00  0.00    +0.019 A 
ATOM     38  C   UNL     1      15.855  16.636  14.242  0.00  0.00    +0.120 A 
ATOM     39  N   UNL     1      16.256  15.410  13.720  0.00  0.00    -0.263 NA
ATOM     40  C   UNL     1      17.605  15.040  13.613  0.00  0.00    +0.111 A 
ENDBRANCH   4   3
ENDBRANCH  10   9
BRANCH  12  13
ATOM     13  N   UNL     1      15.366  26.761  13.932  0.00  0.00    -0.281 N 
ATOM     14  C   UNL     1      15.295  27.573  12.812  0.00  0.00    +0.248 C 
ATOM     30  O   UNL     1      14.729  27.269  11.773  0.00  0.00    -0.270 OA
ATOM     31  H   UNL     1      16.027  27.048  14.654  0.00  0.00    +0.155 HD
BRANCH  14  15
ATOM     15  C   UNL     1      15.963  28.910  12.847  0.00  0.00    +0.037 A 
ATOM     16  C   UNL     1      15.830  29.796  14.007  0.00  0.00    +0.013 A 
ATOM     17  C   UNL     1      16.470  31.087  14.007  0.00  0.00    +0.005 A 
ATOM     18  C   UNL     1      17.250  31.500  12.843  0.00  0.00    -0.033 A 
ATOM     28  C   UNL     1      17.370  30.600  11.708  0.00  0.00    +0.005 A 
ATOM     29  C   UNL     1      16.743  29.333  11.704  0.00  0.00    +0.013 A 
BRANCH  18  19
ATOM     19  C   UNL     1      17.950  32.869  12.748  0.00  0.00    +0.119 C 
BRANCH  19  20
ATOM     20  N   UNL     1      17.266  34.032  13.388  0.00  0.00    -0.302 NA
ATOM     21  C   UNL     1      16.054  34.502  12.578  0.00  0.00    +0.066 C 
ATOM     22  C   UNL     1      15.337  35.705  13.273  0.00  0.00    -0.064 C 
ATOM     23  N   UNL     1      16.336  36.848  13.466  0.00  0.00    +0.379 N 
ATOM     24  C   UNL     1      15.651  38.002  14.067  0.00  0.00    -0.096 C 
ATOM     25  H   UNL     1      16.696  37.156  12.457  0.00  0.00    -0.082 HD
ATOM     26  C   UNL     1      17.545  36.389  14.268  0.00  0.00    -0.064 C 
ATOM     27  C   UNL     1      18.233  35.174  13.584  0.00  0.00    +0.066 C 
ENDBRANCH  19  20
ENDBRANCH  18  19
ENDBRANCH  14  15
ENDBRANCH  12  13
TORSDOF 6
ENDMDL
MODEL 3
REMARK VINA RESULT:      -8.2      9.173     11.609
REMARK  Name = C:\Users\Docking\Desktop\test protocol\1iep_ligandH.pdb
REMARK  8 active torsions:
REMARK  status: ('A' for Active; 'I' for Inactive)
REMARK    1  A    between atoms: _5  and  _11
REMARK    2  A    between atoms: _19  and  _21
REMARK    3  A    between atoms: _22  and  _66
REMARK    4  A    between atoms: _27  and  _30
REMARK    5  A    between atoms: _32  and  _33
REMARK    6  A    between atoms: _38  and  _43
REMARK    7  A    between atoms: _43  and  _46
REMARK    8  A    between atoms: _53  and  _55
REMARK                            x       y       z     vdW  Elec       q    Type
REMARK                         _______ _______ _______ _____ _____    ______ ____
ROOT
ATOM     10  C   UNL     1      25.699   3.377  -4.074  0.00  0.00    +0.038 A 
ATOM     11  C   UNL     1      24.953   3.710  -2.914  0.00  0.00    +0.047 A 
ATOM     12  C   UNL     1      23.673   3.078  -2.635  0.00  0.00    +0.035 A 
ATOM     32  C   UNL     1      23.183   2.109  -3.559  0.00  0.00    +0.024 A 
ATOM     33  C   UNL     1      23.927   1.760  -4.743  0.00  0.00    +0.007 A 
ATOM     34  C   UNL     1      25.189   2.382  -5.024  0.00  0.00    -0.029 A 
ATOM     35  C   UNL     1      25.941   1.973  -6.313  0.00  0.00    +0.045 C 
ENDROOT
BRANCH  10   9
ATOM      4  C   UNL     1      30.495   3.388  -4.244  0.00  0.00    +0.077 A 
ATOM      5  C   UNL     1      30.572   2.013  -3.839  0.00  0.00    +0.048 A 
ATOM      6  C   UNL     1      29.354   1.342  -3.590  0.00  0.00    +0.116 A 
ATOM      7  N   UNL     1      28.155   2.005  -3.738  0.00  0.00    -0.223 NA
ATOM      8  C   UNL     1      28.117   3.331  -4.128  0.00  0.00    +0.220 A 
ATOM      9  N   UNL     1      26.922   4.015  -4.291  0.00  0.00    -0.283 N 
ATOM     36  H   UNL     1      26.936   4.995  -4.574  0.00  0.00    +0.155 HD
ATOM     37  N   UNL     1      29.266   3.995  -4.371  0.00  0.00    -0.214 NA
BRANCH   4   3
ATOM      1  C   UNL     1      32.910   6.440  -4.636  0.00  0.00    +0.020 A 
ATOM      2  C   UNL     1      31.726   5.671  -4.327  0.00  0.00    +0.013 A 
ATOM      3  C   UNL     1      31.695   4.231  -4.547  0.00  0.00    +0.019 A 
ATOM     38  C   UNL     1      32.887   3.593  -5.085  0.00  0.00    +0.120 A 
ATOM     39  N   UNL     1      34.012   4.359  -5.374  0.00  0.00    -0.263 NA
ATOM     40  C   UNL     1      34.054   5.746  -5.168  0.00  0.00    +0.111 A 
ENDBRANCH   4   3
ENDBRANCH  10   9
BRANCH  12  13
ATOM     13  N   UNL     1      22.867   3.381  -1.478  0.00  0.00    -0.281 N 
ATOM     14  C   UNL     1      21.940   4.399  -1.330  0.00  0.00    +0.248 C 
ATOM     30  O   UNL     1      21.816   5.339  -2.100  0.00  0.00    -0.270 OA
ATOM     31  H   UNL     1      22.997   2.771  -0.671  0.00  0.00    +0.155 HD
BRANCH  14  15
ATOM     15  C   UNL     1      21.027   4.377  -0.146  0.00  0.00    +0.037 A 
ATOM     16  C   UNL     1      21.430   3.743   1.112  0.00  0.00    +0.013 A 
ATOM     17  C   UNL     1      20.524   3.720   2.233  0.00  0.00    +0.005 A 
ATOM     18  C   UNL     1      19.206   4.336   2.101  0.00  0.00    -0.033 A 
ATOM     28  C   UNL     1      18.834   4.963   0.843  0.00  0.00    +0.005 A 
ATOM     29  C   UNL     1      19.719   4.986  -0.258  0.00  0.00    +0.013 A 
BRANCH  18  19
ATOM     19  C   UNL     1      18.167   4.341   3.238  0.00  0.00    +0.119 C 
BRANCH  19  20
ATOM     20  N   UNL     1      18.193   5.496   4.183  0.00  0.00    -0.302 NA
ATOM     21  C   UNL     1      17.881   5.070   5.621  0.00  0.00    +0.066 C 
ATOM     22  C   UNL     1      17.935   6.287   6.600  0.00  0.00    -0.064 C 
ATOM     23  N   UNL     1      16.953   7.361   6.129  0.00  0.00    +0.379 N 
ATOM     24  C   UNL     1      16.959   8.483   7.079  0.00  0.00    -0.096 C 
ATOM     25  H   UNL     1      15.932   6.914   6.139  0.00  0.00    -0.082 HD
ATOM     26  C   UNL     1      17.254   7.789   4.699  0.00  0.00    -0.064 C 
ATOM     27  C   UNL     1      17.227   6.567   3.739  0.00  0.00    +0.066 C 
ENDBRANCH  19  20
ENDBRANCH  18  19
ENDBRANCH  14  15
ENDBRANCH  12  13
TORSDOF 6
ENDMDL
MODEL 4
REMARK VINA RESULT:      -7.7      5.293     13.059
REMARK  Name = C:\Users\Docking\Desktop\test protocol\1iep_ligandH.pdb
REMARK  8 active torsions:
REMARK  status: ('A' for Active; 'I' for Inactive)
REMARK    1  A    between atoms: _5  and  _11
REMARK    2  A    between atoms: _19  and  _21
REMARK    3  A    between atoms: _22  and  _66
REMARK    4  A    between atoms: _27  and  _30
REMARK    5  A    between atoms: _32  and  _33
REMARK    6  A    between atoms: _38  and  _43
REMARK    7  A    between atoms: _43  and  _46
REMARK    8  A    between atoms: _53  and  _55
REMARK                            x       y       z     vdW  Elec       q    Type
REMARK                         _______ _______ _______ _____ _____    ______ ____
ROOT
ATOM     10  C   UNL     1      17.982   4.412  -5.813  0.00  0.00    +0.038 A 
ATOM     11  C   UNL     1      17.439   5.058  -6.953  0.00  0.00    +0.047 A 
ATOM     12  C   UNL     1      17.738   6.453  -7.240  0.00  0.00    +0.035 A 
ATOM     32  C   UNL     1      18.596   7.158  -6.347  0.00  0.00    +0.024 A 
ATOM     33  C   UNL     1      19.156   6.516  -5.184  0.00  0.00    +0.007 A 
ATOM     34  C   UNL     1      18.863   5.142  -4.894  0.00  0.00    -0.029 A 
ATOM     35  C   UNL     1      19.486   4.507  -3.628  0.00  0.00    +0.045 C 
ENDROOT
BRANCH  10   9
ATOM      4  C   UNL     1      18.139  -0.238  -6.994  0.00  0.00    +0.077 A 
ATOM      5  C   UNL     1      18.900   0.029  -8.181  0.00  0.00    +0.048 A 
ATOM      6  C   UNL     1      19.225   1.376  -8.455  0.00  0.00    +0.116 A 
ATOM      7  N   UNL     1      18.814   2.375  -7.599  0.00  0.00    -0.223 NA
ATOM      8  C   UNL     1      18.079   2.084  -6.464  0.00  0.00    +0.220 A 
ATOM      9  N   UNL     1      17.662   3.072  -5.585  0.00  0.00    -0.283 N 
ATOM     36  H   UNL     1      17.115   2.817  -4.763  0.00  0.00    +0.155 HD
ATOM     37  N   UNL     1      17.755   0.805  -6.181  0.00  0.00    -0.214 NA
BRANCH   4   3
ATOM      1  C   UNL     1      16.849  -3.930  -7.039  0.00  0.00    +0.020 A 
ATOM      2  C   UNL     1      17.239  -2.619  -7.503  0.00  0.00    +0.013 A 
ATOM      3  C   UNL     1      17.721  -1.610  -6.567  0.00  0.00    +0.019 A 
ATOM     38  C   UNL     1      17.795  -1.964  -5.158  0.00  0.00    +0.120 A 
ATOM     39  N   UNL     1      17.411  -3.234  -4.740  0.00  0.00    -0.263 NA
ATOM     40  C   UNL     1      16.945  -4.212  -5.631  0.00  0.00    +0.111 A 
ENDBRANCH   4   3
ENDBRANCH  10   9
BRANCH  12  13
ATOM     13  N   UNL     1      17.209   7.164  -8.378  0.00  0.00    -0.281 N 
ATOM     14  C   UNL     1      16.183   8.095  -8.398  0.00  0.00    +0.248 C 
ATOM     30  O   UNL     1      15.417   8.299  -7.468  0.00  0.00    -0.270 OA
ATOM     31  H   UNL     1      17.644   6.957  -9.277  0.00  0.00    +0.155 HD
BRANCH  14  15
ATOM     15  C   UNL     1      15.968   8.905  -9.635  0.00  0.00    +0.037 A 
ATOM     16  C   UNL     1      16.649  10.187  -9.832  0.00  0.00    +0.013 A 
ATOM     17  C   UNL     1      16.411  10.957 -11.027  0.00  0.00    +0.005 A 
ATOM     18  C   UNL     1      15.486  10.445 -12.036  0.00  0.00    -0.033 A 
ATOM     28  C   UNL     1      14.828   9.168 -11.818  0.00  0.00    +0.005 A 
ATOM     29  C   UNL     1      15.058   8.411 -10.647  0.00  0.00    +0.013 A 
BRANCH  18  19
ATOM     19  C   UNL     1      15.155  11.209 -13.332  0.00  0.00    +0.119 C 
BRANCH  19  20
ATOM     20  N   UNL     1      16.195  11.220 -14.404  0.00  0.00    -0.302 NA
ATOM     21  C   UNL     1      16.104  12.472 -15.280  0.00  0.00    +0.066 C 
ATOM     22  C   UNL     1      17.213  12.478 -16.382  0.00  0.00    -0.064 C 
ATOM     23  N   UNL     1      17.091  11.212 -17.232  0.00  0.00    +0.379 N 
ATOM     24  C   UNL     1      18.096  11.243 -18.305  0.00  0.00    -0.096 C 
ATOM     25  H   UNL     1      16.084  11.223 -17.710  0.00  0.00    -0.082 HD
ATOM     26  C   UNL     1      17.178   9.962 -16.368  0.00  0.00    -0.064 C 
ATOM     27  C   UNL     1      16.090   9.981 -15.258  0.00  0.00    +0.066 C 
ENDBRANCH  19  20
ENDBRANCH  18  19
ENDBRANCH  14  15
ENDBRANCH  12  13
TORSDOF 6
ENDMDL
MODEL 5
REMARK VINA RESULT:      -7.7     26.054     32.956
REMARK  Name = C:\Users\Docking\Desktop\test protocol\1iep_ligandH.pdb
REMARK  8 active torsions:
REMARK  status: ('A' for Active; 'I' for Inactive)
REMARK    1  A    between atoms: _5  and  _11
REMARK    2  A    between atoms: _19  and  _21
REMARK    3  A    between atoms: _22  and  _66
REMARK    4  A    between atoms: _27  and  _30
REMARK    5  A    between atoms: _32  and  _33
REMARK    6  A    between atoms: _38  and  _43
REMARK    7  A    between atoms: _43  and  _46
REMARK    8  A    between atoms: _53  and  _55
REMARK                            x       y       z     vdW  Elec       q    Type
REMARK                         _______ _______ _______ _____ _____    ______ ____
ROOT
ATOM     10  C   UNL     1      14.205  23.141  12.649  0.00  0.00    +0.038 A 
ATOM     11  C   UNL     1      14.992  24.309  12.816  0.00  0.00    +0.047 A 
ATOM     12  C   UNL     1      14.439  25.631  12.567  0.00  0.00    +0.035 A 
ATOM     32  C   UNL     1      13.079  25.727  12.150  0.00  0.00    +0.024 A 
ATOM     33  C   UNL     1      12.265  24.550  11.973  0.00  0.00    +0.007 A 
ATOM     34  C   UNL     1      12.806  23.243  12.216  0.00  0.00    -0.029 A 
ATOM     35  C   UNL     1      11.889  22.015  12.004  0.00  0.00    +0.045 C 
ENDROOT
BRANCH  10   9
ATOM      4  C   UNL     1      15.338  19.518  15.587  0.00  0.00    +0.077 A 
ATOM      5  C   UNL     1      14.744  20.171  16.717  0.00  0.00    +0.048 A 
ATOM      6  C   UNL     1      14.163  21.442  16.502  0.00  0.00    +0.116 A 
ATOM      7  N   UNL     1      14.181  22.007  15.245  0.00  0.00    -0.223 NA
ATOM      8  C   UNL     1      14.764  21.351  14.177  0.00  0.00    +0.220 A 
ATOM      9  N   UNL     1      14.787  21.897  12.903  0.00  0.00    -0.283 N 
ATOM     36  H   UNL     1      15.233  21.384  12.142  0.00  0.00    +0.155 HD
ATOM     37  N   UNL     1      15.327  20.137  14.357  0.00  0.00    -0.214 NA
BRANCH   4   3
ATOM      1  C   UNL     1      16.192  15.830  16.571  0.00  0.00    +0.020 A 
ATOM      2  C   UNL     1      15.529  17.114  16.545  0.00  0.00    +0.013 A 
ATOM      3  C   UNL     1      15.988  18.171  15.654  0.00  0.00    +0.019 A 
ATOM     38  C   UNL     1      17.129  17.896  14.794  0.00  0.00    +0.120 A 
ATOM     39  N   UNL     1      17.748  16.651  14.841  0.00  0.00    -0.263 NA
ATOM     40  C   UNL     1      17.317  15.626  15.696  0.00  0.00    +0.111 A 
ENDBRANCH   4   3
ENDBRANCH  10   9
BRANCH  12  13
ATOM     13  N   UNL     1      15.191  26.852  12.712  0.00  0.00    -0.281 N 
ATOM     14  C   UNL     1      15.720  27.651  11.712  0.00  0.00    +0.248 C 
ATOM     30  O   UNL     1      15.808  27.322  10.538  0.00  0.00    -0.270 OA
ATOM     31  H   UNL     1      15.355  27.165  13.669  0.00  0.00    +0.155 HD
BRANCH  14  15
ATOM     15  C   UNL     1      16.238  29.007  12.068  0.00  0.00    +0.037 A 
ATOM     16  C   UNL     1      16.962  29.825  11.092  0.00  0.00    +0.013 A 
ATOM     17  C   UNL     1      17.466  31.122  11.468  0.00  0.00    +0.005 A 
ATOM     18  C   UNL     1      17.245  31.610  12.827  0.00  0.00    -0.033 A 
ATOM     28  C   UNL     1      16.519  30.780  13.774  0.00  0.00    +0.005 A 
ATOM     29  C   UNL     1      16.025  29.508  13.410  0.00  0.00    +0.013 A 
BRANCH  18  19
ATOM     19  C   UNL     1      17.766  32.973  13.321  0.00  0.00    +0.119 C 
BRANCH  19  20
ATOM     20  N   UNL     1      17.175  34.196  12.700  0.00  0.00    -0.302 NA
ATOM     21  C   UNL     1      18.111  35.404  12.808  0.00  0.00    +0.066 C 
ATOM     22  C   UNL     1      17.487  36.669  12.134  0.00  0.00    -0.064 C 
ATOM     23  N   UNL     1      16.134  36.973  12.780  0.00  0.00    +0.379 N 
ATOM     24  C   UNL     1      15.571  38.195  12.188  0.00  0.00    -0.096 C 
ATOM     25  H   UNL     1      16.313  37.172  13.862  0.00  0.00    -0.082 HD
ATOM     26  C   UNL     1      15.198  35.776  12.680  0.00  0.00    -0.064 C 
ATOM     27  C   UNL     1      15.840  34.517  13.326  0.00  0.00    +0.066 C 
ENDBRANCH  19  20
ENDBRANCH  18  19
ENDBRANCH  14  15
ENDBRANCH  12  13
TORSDOF 6
ENDMDL
