MODEL 1
REMARK VINA RESULT:      -8.5      0.000      0.000
REMARK  Name = C:\Users\Docking\Desktop\test protocol\1iep_ligandH.pdb
REMARK  8 active torsions:
REMARK  status: ('A' for Active; 'I' for Inactive)
REMARK    1  A    between atoms: _5  and  _11
REMARK    2  A    between atoms: _19  and  _21
REMARK    3  A    between atoms: _22  and  _66
REMARK    4  A    between atoms: _27  and  _30
REMARK    5  A    between atoms: _32  and  _33
REMARK    6  A    between atoms: _38  and  _43
REMARK    7  A    between atoms: _43  and  _46
REMARK    8  A    between atoms: _53  and  _55
REMARK                            x       y       z     vdW  Elec       q    Type
REMARK                         _______ _______ _______ _____ _____    ______ ____
ROOT
ATOM     10  C   UNL     1      95.793   2.828  -6.582  0.00  0.00    +0.038 A 
ATOM     11  C   UNL     1      96.459   3.900  -5.935  0.00  0.00    +0.047 A 
ATOM     12  C   UNL     1      96.469   5.237  -6.509  0.00  0.00    +0.035 A 
ATOM     32  C   UNL     1      95.788   5.446  -7.744  0.00  0.00    +0.024 A 
ATOM     33  C   UNL     1      95.106   4.368  -8.416  0.00  0.00    +0.007 A 
ATOM     34  C   UNL     1      95.095   3.047  -7.855  0.00  0.00    -0.029 A 
ATOM     35  C   UNL     1      94.354   1.928  -8.623  0.00  0.00    +0.045 C 
ENDROOT
BRANCH  10   9
ATOM      4  C   UNL     1      97.735  -1.513  -5.934  0.00  0.00    +0.077 A 
ATOM      5  C   UNL     1      98.778  -1.253  -6.884  0.00  0.00    +0.048 A 
ATOM      6  C   UNL     1      98.775   0.007  -7.523  0.00  0.00    +0.116 A 
ATOM      7  N   UNL     1      97.797   0.931  -7.226  0.00  0.00    -0.223 NA
ATOM      8  C   UNL     1      96.804   0.648  -6.306  0.00  0.00    +0.220 A 
ATOM      9  N   UNL     1      95.815   1.566  -5.986  0.00  0.00    -0.283 N 
ATOM     36  H   UNL     1      95.096   1.316  -5.308  0.00  0.00    +0.155 HD
ATOM     37  N   UNL     1      96.784  -0.549  -5.683  0.00  0.00    -0.214 NA
BRANCH   4   3
ATOM      1  C   UNL     1      97.330  -4.115  -3.041  0.00  0.00    +0.020 A 
ATOM      2  C   UNL     1      97.452  -2.848  -3.726  0.00  0.00    +0.013 A 
ATOM      3  C   UNL     1      97.605  -2.797  -5.175  0.00  0.00    +0.019 A 
ATOM     38  C   UNL     1      97.629  -4.054  -5.907  0.00  0.00    +0.120 A 
ATOM     39  N   UNL     1      97.511  -5.258  -5.220  0.00  0.00    -0.263 NA
ATOM     40  C   UNL     1      97.365  -5.321  -3.826  0.00  0.00    +0.111 A 
ENDBRANCH   4   3
ENDBRANCH  10   9
BRANCH  12  13
ATOM     13  N   UNL     1      97.135   6.362  -5.902  0.00  0.00    -0.281 N 
ATOM     14  C   UNL     1      96.577   7.366  -5.128  0.00  0.00    +0.248 C 
ATOM     30  O   UNL     1      95.377   7.566  -5.017  0.00  0.00    -0.270 OA
ATOM     31  H   UNL     1      98.141   6.426  -6.062  0.00  0.00    +0.155 HD
BRANCH  14  15
ATOM     15  C   UNL     1      97.483   8.289  -4.380  0.00  0.00    +0.037 A 
ATOM     16  C   UNL     1      98.906   7.984  -4.208  0.00  0.00    +0.013 A 
ATOM     17  C   UNL     1      99.755   8.884  -3.468  0.00  0.00    +0.005 A 
ATOM     18  C   UNL     1      99.182  10.099  -2.894  0.00  0.00    -0.033 A 
ATOM     28  C   UNL     1      97.769  10.380  -3.085  0.00  0.00    +0.005 A 
ATOM     29  C   UNL     1      96.934   9.500  -3.809  0.00  0.00    +0.013 A 
BRANCH  18  19
ATOM     19  C   UNL     1     100.008  11.105  -2.072  0.00  0.00    +0.119 C 
BRANCH  19  20
ATOM     20  N   UNL     1     101.451  10.787  -1.851  0.00  0.00    -0.302 NA
ATOM     21  C   UNL     1     101.675  10.009  -0.551  0.00  0.00    +0.066 C 
ATOM     22  C   UNL     1     103.186   9.665  -0.347  0.00  0.00    -0.064 C 
ATOM     23  N   UNL     1     104.006  10.957  -0.354  0.00  0.00    +0.379 N 
ATOM     24  C   UNL     1     105.420  10.642  -0.105  0.00  0.00    -0.096 C 
ATOM     25  H   UNL     1     103.646  11.590   0.490  0.00  0.00    -0.082 HD
ATOM     26  C   UNL     1     103.787  11.738  -1.642  0.00  0.00    -0.064 C 
ATOM     27  C   UNL     1     102.278  12.049  -1.850  0.00  0.00    +0.066 C 
ENDBRANCH  19  20
ENDBRANCH  18  19
ENDBRANCH  14  15
ENDBRANCH  12  13
TORSDOF 6
ENDMDL
MODEL 2
REMARK VINA RESULT:      -8.2      6.819     12.861
REMARK  Name = C:\Users\Docking\Desktop\test protocol\1iep_ligandH.pdb
REMARK  8 active torsions:
REMARK  status: ('A' for Active; 'I' for Inactive)
REMARK    1  A    between atoms: _5  and  _11
REMARK    2  A    between atoms: _19  and  _21
REMARK    3  A    between atoms: _22  and  _66
REMARK    4  A    between atoms: _27  and  _30
REMARK    5  A    between atoms: _32  and  _33
REMARK    6  A    between atoms: _38  and  _43
REMARK    7  A    between atoms: _43  and  _46
REMARK    8  A    between atoms: _53  and  _55
REMARK                            x       y       z     vdW  Elec       q    Type
REMARK                         _______ _______ _______ _____ _____    ______ ____
ROOT
ATOM     10  C   UNL     1      94.600   2.132  -6.383  0.00  0.00    +0.038 A 
ATOM     11  C   UNL     1      93.232   1.766  -6.315  0.00  0.00    +0.047 A 
ATOM     12  C   UNL     1      92.185   2.774  -6.258  0.00  0.00    +0.035 A 
ATOM     32  C   UNL     1      92.567   4.147  -6.275  0.00  0.00    +0.024 A 
ATOM     33  C   UNL     1      93.954   4.537  -6.342  0.00  0.00    +0.007 A 
ATOM     34  C   UNL     1      94.991   3.547  -6.396  0.00  0.00    -0.029 A 
ATOM     35  C   UNL     1      96.461   4.022  -6.462  0.00  0.00    +0.045 C 
ENDROOT
BRANCH  10   9
ATOM      4  C   UNL     1      97.281  -1.272  -4.319  0.00  0.00    +0.077 A 
ATOM      5  C   UNL     1      96.736  -0.998  -3.021  0.00  0.00    +0.048 A 
ATOM      6  C   UNL     1      95.773   0.031  -2.926  0.00  0.00    +0.116 A 
ATOM      7  N   UNL     1      95.391   0.728  -4.052  0.00  0.00    -0.223 NA
ATOM      8  C   UNL     1      95.938   0.440  -5.289  0.00  0.00    +0.220 A 
ATOM      9  N   UNL     1      95.564   1.122  -6.436  0.00  0.00    -0.283 N 
ATOM     36  H   UNL     1      95.996   0.885  -7.328  0.00  0.00    +0.155 HD
ATOM     37  N   UNL     1      96.861  -0.538  -5.405  0.00  0.00    -0.214 NA
BRANCH   4   3
ATOM      1  C   UNL     1      99.534  -4.452  -3.981  0.00  0.00    +0.020 A 
ATOM      2  C   UNL     1      98.533  -3.455  -3.680  0.00  0.00    +0.013 A 
ATOM      3  C   UNL     1      98.305  -2.333  -4.582  0.00  0.00    +0.019 A 
ATOM     38  C   UNL     1      99.114  -2.248  -5.788  0.00  0.00    +0.120 A 
ATOM     39  N   UNL     1     100.072  -3.222  -6.051  0.00  0.00    -0.263 NA
ATOM     40  C   UNL     1     100.301  -4.306  -5.190  0.00  0.00    +0.111 A 
ENDBRANCH   4   3
ENDBRANCH  10   9
BRANCH  12  13
ATOM     13  N   UNL     1      90.779   2.462  -6.179  0.00  0.00    -0.281 N 
ATOM     14  C   UNL     1      90.092   1.456  -6.838  0.00  0.00    +0.248 C 
ATOM     30  O   UNL     1      90.546   0.801  -7.764  0.00  0.00    -0.270 OA
ATOM     31  H   UNL     1      90.223   3.055  -5.563  0.00  0.00    +0.155 HD
BRANCH  14  15
ATOM     15  C   UNL     1      88.693   1.141  -6.416  0.00  0.00    +0.037 A 
ATOM     16  C   UNL     1      88.402   0.621  -5.078  0.00  0.00    +0.013 A 
ATOM     17  C   UNL     1      87.045   0.310  -4.702  0.00  0.00    +0.005 A 
ATOM     18  C   UNL     1      85.969   0.519  -5.668  0.00  0.00    -0.033 A 
ATOM     28  C   UNL     1      86.286   1.040  -6.987  0.00  0.00    +0.005 A 
ATOM     29  C   UNL     1      87.614   1.346  -7.359  0.00  0.00    +0.013 A 
BRANCH  18  19
ATOM     19  C   UNL     1      84.495   0.194  -5.361  0.00  0.00    +0.119 C 
BRANCH  19  20
ATOM     20  N   UNL     1      84.087  -1.242  -5.410  0.00  0.00    -0.302 NA
ATOM     21  C   UNL     1      85.294  -2.179  -5.510  0.00  0.00    +0.066 C 
ATOM     22  C   UNL     1      84.850  -3.678  -5.538  0.00  0.00    -0.064 C 
ATOM     23  N   UNL     1      83.892  -3.902  -6.709  0.00  0.00    +0.379 N 
ATOM     24  C   UNL     1      83.518  -5.322  -6.773  0.00  0.00    -0.096 C 
ATOM     25  H   UNL     1      84.442  -3.654  -7.647  0.00  0.00    -0.082 HD
ATOM     26  C   UNL     1      82.690  -2.972  -6.620  0.00  0.00    -0.064 C 
ATOM     27  C   UNL     1      83.144  -1.486  -6.563  0.00  0.00    +0.066 C 
ENDBRANCH  19  20
ENDBRANCH  18  19
ENDBRANCH  14  15
ENDBRANCH  12  13
TORSDOF 6
ENDMDL
MODEL 3
REMARK VINA RESULT:      -7.9      8.394     11.158
REMARK  Name = C:\Users\Docking\Desktop\test protocol\1iep_ligandH.pdb
REMARK  8 active torsions:
REMARK  status: ('A' for Active; 'I' for Inactive)
REMARK    1  A    between atoms: _5  and  _11
REMARK    2  A    between atoms: _19  and  _21
REMARK    3  A    between atoms: _22  and  _66
REMARK    4  A    between atoms: _27  and  _30
REMARK    5  A    between atoms: _32  and  _33
REMARK    6  A    between atoms: _38  and  _43
REMARK    7  A    between atoms: _43  and  _46
REMARK    8  A    between atoms: _53  and  _55
REMARK                            x       y       z     vdW  Elec       q    Type
REMARK                         _______ _______ _______ _____ _____    ______ ____
ROOT
ATOM     10  C   UNL     1      98.844  -4.197  -6.031  0.00  0.00    +0.038 A 
ATOM     11  C   UNL     1      97.912  -3.310  -5.434  0.00  0.00    +0.047 A 
ATOM     12  C   UNL     1      97.073  -3.734  -4.324  0.00  0.00    +0.035 A 
ATOM     32  C   UNL     1      97.212  -5.070  -3.845  0.00  0.00    +0.024 A 
ATOM     33  C   UNL     1      98.153  -5.985  -4.440  0.00  0.00    +0.007 A 
ATOM     34  C   UNL     1      98.982  -5.572  -5.537  0.00  0.00    -0.029 A 
ATOM     35  C   UNL     1      99.969  -6.598  -6.141  0.00  0.00    +0.045 C 
ENDROOT
BRANCH  10   9
ATOM      4  C   UNL     1     102.893  -2.337  -7.815  0.00  0.00    +0.077 A 
ATOM      5  C   UNL     1     103.496  -2.251  -6.516  0.00  0.00    +0.048 A 
ATOM      6  C   UNL     1     102.727  -2.689  -5.414  0.00  0.00    +0.116 A 
ATOM      7  N   UNL     1     101.453  -3.175  -5.608  0.00  0.00    -0.223 NA
ATOM      8  C   UNL     1     100.901  -3.243  -6.874  0.00  0.00    +0.220 A 
ATOM      9  N   UNL     1      99.624  -3.736  -7.094  0.00  0.00    -0.283 N 
ATOM     36  H   UNL     1      99.250  -3.763  -8.042  0.00  0.00    +0.155 HD
ATOM     37  N   UNL     1     101.614  -2.830  -7.943  0.00  0.00    -0.214 NA
BRANCH   4   3
ATOM      1  C   UNL     1     103.617  -0.782 -11.330  0.00  0.00    +0.020 A 
ATOM      2  C   UNL     1     102.909  -1.164 -10.130  0.00  0.00    +0.013 A 
ATOM      3  C   UNL     1     103.579  -1.916  -9.077  0.00  0.00    +0.019 A 
ATOM     38  C   UNL     1     104.978  -2.268  -9.270  0.00  0.00    +0.120 A 
ATOM     39  N   UNL     1     105.634  -1.888 -10.437  0.00  0.00    -0.263 NA
ATOM     40  C   UNL     1     104.999  -1.165 -11.458  0.00  0.00    +0.111 A 
ENDBRANCH   4   3
ENDBRANCH  10   9
BRANCH  12  13
ATOM     13  N   UNL     1      96.104  -2.881  -3.683  0.00  0.00    -0.281 N 
ATOM     14  C   UNL     1      96.082  -1.496  -3.646  0.00  0.00    +0.248 C 
ATOM     30  O   UNL     1      97.015  -0.780  -3.978  0.00  0.00    -0.270 OA
ATOM     31  H   UNL     1      95.342  -3.354  -3.199  0.00  0.00    +0.155 HD
BRANCH  14  15
ATOM     15  C   UNL     1      94.850  -0.807  -3.154  0.00  0.00    +0.037 A 
ATOM     16  C   UNL     1      94.919   0.513  -2.521  0.00  0.00    +0.013 A 
ATOM     17  C   UNL     1      93.718   1.148  -2.040  0.00  0.00    +0.005 A 
ATOM     18  C   UNL     1      92.436   0.464  -2.191  0.00  0.00    -0.033 A 
ATOM     28  C   UNL     1      92.396  -0.843  -2.827  0.00  0.00    +0.005 A 
ATOM     29  C   UNL     1      93.571  -1.469  -3.299  0.00  0.00    +0.013 A 
BRANCH  18  19
ATOM     19  C   UNL     1      91.107   1.057  -1.688  0.00  0.00    +0.119 C 
BRANCH  19  20
ATOM     20  N   UNL     1      90.102   1.454  -2.719  0.00  0.00    -0.302 NA
ATOM     21  C   UNL     1      90.409   2.828  -3.322  0.00  0.00    +0.066 C 
ATOM     22  C   UNL     1      89.361   3.218  -4.414  0.00  0.00    -0.064 C 
ATOM     23  N   UNL     1      87.959   3.196  -3.802  0.00  0.00    +0.379 N 
ATOM     24  C   UNL     1      86.976   3.618  -4.812  0.00  0.00    -0.096 C 
ATOM     25  H   UNL     1      87.938   3.944  -2.977  0.00  0.00    -0.082 HD
ATOM     26  C   UNL     1      87.646   1.834  -3.199  0.00  0.00    -0.064 C 
ATOM     27  C   UNL     1      88.710   1.443  -2.135  0.00  0.00    +0.066 C 
ENDBRANCH  19  20
ENDBRANCH  18  19
ENDBRANCH  14  15
ENDBRANCH  12  13
TORSDOF 6
ENDMDL
MODEL 4
REMARK VINA RESULT:      -7.9     35.651     40.859
REMARK  Name = C:\Users\Docking\Desktop\test protocol\1iep_ligandH.pdb
REMARK  8 active torsions:
REMARK  status: ('A' for Active; 'I' for Inactive)
REMARK    1  A    between atoms: _5  and  _11
REMARK    2  A    between atoms: _19  and  _21
REMARK    3  A    between atoms: _22  and  _66
REMARK    4  A    between atoms: _27  and  _30
REMARK    5  A    between atoms: _32  and  _33
REMARK    6  A    between atoms: _38  and  _43
REMARK    7  A    between atoms: _43  and  _46
REMARK    8  A    between atoms: _53  and  _55
REMARK                            x       y       z     vdW  Elec       q    Type
REMARK                         _______ _______ _______ _____ _____    ______ ____
ROOT
ATOM     10  C   UNL     1      65.301 -11.472 -13.817  0.00  0.00    +0.038 A 
ATOM     11  C   UNL     1      64.156 -11.425 -12.981  0.00  0.00    +0.047 A 
ATOM     12  C   UNL     1      62.831 -11.188 -13.533  0.00  0.00    +0.035 A 
ATOM     32  C   UNL     1      62.708 -11.006 -14.941  0.00  0.00    +0.024 A 
ATOM     33  C   UNL     1      63.861 -11.050 -15.805  0.00  0.00    +0.007 A 
ATOM     34  C   UNL     1      65.171 -11.281 -15.267  0.00  0.00    -0.029 A 
ATOM     35  C   UNL     1      66.373 -11.311 -16.240  0.00  0.00    +0.045 C 
ENDROOT
BRANCH  10   9
ATOM      4  C   UNL     1      68.340 -14.151 -11.243  0.00  0.00    +0.077 A 
ATOM      5  C   UNL     1      67.349 -15.164 -11.017  0.00  0.00    +0.048 A 
ATOM      6  C   UNL     1      66.068 -14.953 -11.574  0.00  0.00    +0.116 A 
ATOM      7  N   UNL     1      65.808 -13.812 -12.302  0.00  0.00    -0.223 NA
ATOM      8  C   UNL     1      66.786 -12.855 -12.499  0.00  0.00    +0.220 A 
ATOM      9  N   UNL     1      66.549 -11.703 -13.234  0.00  0.00    -0.283 N 
ATOM     36  H   UNL     1      67.295 -11.017 -13.351  0.00  0.00    +0.155 HD
ATOM     37  N   UNL     1      68.017 -13.031 -11.976  0.00  0.00    -0.214 NA
BRANCH   4   3
ATOM      1  C   UNL     1      72.174 -13.563 -10.736  0.00  0.00    +0.020 A 
ATOM      2  C   UNL     1      70.839 -13.450 -11.277  0.00  0.00    +0.013 A 
ATOM      3  C   UNL     1      69.741 -14.230 -10.721  0.00  0.00    +0.019 A 
ATOM     38  C   UNL     1      70.030 -15.123  -9.608  0.00  0.00    +0.120 A 
ATOM     39  N   UNL     1      71.325 -15.212  -9.109  0.00  0.00    -0.263 NA
ATOM     40  C   UNL     1      72.390 -14.467  -9.638  0.00  0.00    +0.111 A 
ENDBRANCH   4   3
ENDBRANCH  10   9
BRANCH  12  13
ATOM     13  N   UNL     1      61.634 -11.122 -12.732  0.00  0.00    -0.281 N 
ATOM     14  C   UNL     1      60.621 -10.178 -12.792  0.00  0.00    +0.248 C 
ATOM     30  O   UNL     1      60.696  -9.122 -13.401  0.00  0.00    -0.270 OA
ATOM     31  H   UNL     1      61.518 -11.860 -12.038  0.00  0.00    +0.155 HD
BRANCH  14  15
ATOM     15  C   UNL     1      59.346 -10.440 -12.057  0.00  0.00    +0.037 A 
ATOM     16  C   UNL     1      58.987 -11.790 -11.615  0.00  0.00    +0.013 A 
ATOM     17  C   UNL     1      57.743 -12.018 -10.923  0.00  0.00    +0.005 A 
ATOM     18  C   UNL     1      56.850 -10.891 -10.667  0.00  0.00    -0.033 A 
ATOM     28  C   UNL     1      57.233  -9.561 -11.111  0.00  0.00    +0.005 A 
ATOM     29  C   UNL     1      58.451  -9.335 -11.791  0.00  0.00    +0.013 A 
BRANCH  18  19
ATOM     19  C   UNL     1      55.493 -11.045  -9.954  0.00  0.00    +0.119 C 
BRANCH  19  20
ATOM     20  N   UNL     1      55.482 -11.787  -8.658  0.00  0.00    -0.302 NA
ATOM     21  C   UNL     1      54.060 -12.005  -8.133  0.00  0.00    +0.066 C 
ATOM     22  C   UNL     1      54.066 -12.803  -6.788  0.00  0.00    -0.064 C 
ATOM     23  N   UNL     1      54.914 -12.055  -5.759  0.00  0.00    +0.379 N 
ATOM     24  C   UNL     1      54.875 -12.772  -4.476  0.00  0.00    -0.096 C 
ATOM     25  H   UNL     1      54.450 -11.054  -5.601  0.00  0.00    -0.082 HD
ATOM     26  C   UNL     1      56.329 -11.831  -6.274  0.00  0.00    -0.064 C 
ATOM     27  C   UNL     1      56.311 -11.064  -7.625  0.00  0.00    +0.066 C 
ENDBRANCH  19  20
ENDBRANCH  18  19
ENDBRANCH  14  15
ENDBRANCH  12  13
TORSDOF 6
ENDMDL
MODEL 5
REMARK VINA RESULT:      -7.7     28.001     30.602
REMARK  Name = C:\Users\Docking\Desktop\test protocol\1iep_ligandH.pdb
REMARK  8 active torsions:
REMARK  status: ('A' for Active; 'I' for Inactive)
REMARK    1  A    between atoms: _5  and  _11
REMARK    2  A    between atoms: _19  and  _21
REMARK    3  A    between atoms: _22  and  _66
REMARK    4  A    between atoms: _27  and  _30
REMARK    5  A    between atoms: _32  and  _33
REMARK    6  A    between atoms: _38  and  _43
REMARK    7  A    between atoms: _43  and  _46
REMARK    8  A    between atoms: _53  and  _55
REMARK                            x       y       z     vdW  Elec       q    Type
REMARK                         _______ _______ _______ _____ _____    ______ ____
ROOT
ATOM     10  C   UNL     1      82.572  -2.510  16.353  0.00  0.00    +0.038 A 
ATOM     11  C   UNL     1      81.193  -2.230  16.538  0.00  0.00    +0.047 A 
ATOM     12  C   UNL     1      80.483  -1.325  15.648  0.00  0.00    +0.035 A 
ATOM     32  C   UNL     1      81.208  -0.724  14.577  0.00  0.00    +0.024 A 
ATOM     33  C   UNL     1      82.609  -0.997  14.375  0.00  0.00    +0.007 A 
ATOM     34  C   UNL     1      83.315  -1.887  15.252  0.00  0.00    -0.029 A 
ATOM     35  C   UNL     1      84.819  -2.137  14.992  0.00  0.00    +0.045 C 
ENDROOT
BRANCH  10   9
ATOM      4  C   UNL     1      84.828  -3.461  20.481  0.00  0.00    +0.077 A 
ATOM      5  C   UNL     1      84.767  -2.090  20.899  0.00  0.00    +0.048 A 
ATOM      6  C   UNL     1      84.153  -1.170  20.019  0.00  0.00    +0.116 A 
ATOM      7  N   UNL     1      83.641  -1.601  18.814  0.00  0.00    -0.223 NA
ATOM      8  C   UNL     1      83.718  -2.930  18.441  0.00  0.00    +0.220 A 
ATOM      9  N   UNL     1      83.203  -3.387  17.238  0.00  0.00    -0.283 N 
ATOM     36  H   UNL     1      83.287  -4.374  16.996  0.00  0.00    +0.155 HD
ATOM     37  N   UNL     1      84.301  -3.828  19.263  0.00  0.00    -0.214 NA
BRANCH   4   3
ATOM      1  C   UNL     1      85.989  -5.656  23.503  0.00  0.00    +0.020 A 
ATOM      2  C   UNL     1      85.379  -4.579  22.758  0.00  0.00    +0.013 A 
ATOM      3  C   UNL     1      85.443  -4.551  21.302  0.00  0.00    +0.019 A 
ATOM     38  C   UNL     1      86.136  -5.637  20.626  0.00  0.00    +0.120 A 
ATOM     39  N   UNL     1      86.716  -6.660  21.370  0.00  0.00    -0.263 NA
ATOM     40  C   UNL     1      86.662  -6.697  22.771  0.00  0.00    +0.111 A 
ENDBRANCH   4   3
ENDBRANCH  10   9
BRANCH  12  13
ATOM     13  N   UNL     1      79.087  -0.997  15.791  0.00  0.00    -0.281 N 
ATOM     14  C   UNL     1      78.509  -0.101  16.675  0.00  0.00    +0.248 C 
ATOM     30  O   UNL     1      79.087   0.401  17.627  0.00  0.00    -0.270 OA
ATOM     31  H   UNL     1      78.446  -1.485  15.164  0.00  0.00    +0.155 HD
BRANCH  14  15
ATOM     15  C   UNL     1      77.077   0.284  16.481  0.00  0.00    +0.037 A 
ATOM     16  C   UNL     1      76.361   1.076  17.484  0.00  0.00    +0.013 A 
ATOM     17  C   UNL     1      74.975   1.418  17.280  0.00  0.00    +0.005 A 
ATOM     18  C   UNL     1      74.298   0.970  16.065  0.00  0.00    -0.033 A 
ATOM     28  C   UNL     1      75.035   0.190  15.085  0.00  0.00    +0.005 A 
ATOM     29  C   UNL     1      76.392  -0.149  15.282  0.00  0.00    +0.013 A 
BRANCH  18  19
ATOM     19  C   UNL     1      72.816   1.271  15.775  0.00  0.00    +0.119 C 
BRANCH  19  20
ATOM     20  N   UNL     1      72.450   1.606  14.366  0.00  0.00    -0.302 NA
ATOM     21  C   UNL     1      72.841   3.040  13.997  0.00  0.00    +0.066 C 
ATOM     22  C   UNL     1      72.471   3.367  12.514  0.00  0.00    -0.064 C 
ATOM     23  N   UNL     1      70.973   3.143  12.303  0.00  0.00    +0.379 N 
ATOM     24  C   UNL     1      70.611   3.505  10.925  0.00  0.00    -0.096 C 
ATOM     25  H   UNL     1      70.428   3.834  12.988  0.00  0.00    -0.082 HD
ATOM     26  C   UNL     1      70.575   1.721  12.671  0.00  0.00    -0.064 C 
ATOM     27  C   UNL     1      70.973   1.396  14.138  0.00  0.00    +0.066 C 
ENDBRANCH  19  20
ENDBRANCH  18  19
ENDBRANCH  14  15
ENDBRANCH  12  13
TORSDOF 6
ENDMDL
