MODEL 1
REMARK VINA RESULT:      -9.3      0.000      0.000
REMARK  Name = C:\Users\Docking\Desktop\test protocol\1iep_ligandH.pdb
REMARK  8 active torsions:
REMARK  status: ('A' for Active; 'I' for Inactive)
REMARK    1  A    between atoms: _5  and  _11
REMARK    2  A    between atoms: _19  and  _21
REMARK    3  A    between atoms: _22  and  _66
REMARK    4  A    between atoms: _27  and  _30
REMARK    5  A    between atoms: _32  and  _33
REMARK    6  A    between atoms: _38  and  _43
REMARK    7  A    between atoms: _43  and  _46
REMARK    8  A    between atoms: _53  and  _55
REMARK                            x       y       z     vdW  Elec       q    Type
REMARK                         _______ _______ _______ _____ _____    ______ ____
ROOT
ATOM     10  C   UNL     1     -28.636  52.705  71.690  0.00  0.00    +0.038 A 
ATOM     11  C   UNL     1     -29.649  52.171  72.528  0.00  0.00    +0.047 A 
ATOM     12  C   UNL     1     -30.350  50.947  72.173  0.00  0.00    +0.035 A 
ATOM     32  C   UNL     1     -29.992  50.291  70.960  0.00  0.00    +0.024 A 
ATOM     33  C   UNL     1     -28.966  50.820  70.097  0.00  0.00    +0.007 A 
ATOM     34  C   UNL     1     -28.272  52.028  70.440  0.00  0.00    -0.029 A 
ATOM     35  C   UNL     1     -27.185  52.553  69.473  0.00  0.00    +0.045 C 
ENDROOT
BRANCH  10   9
ATOM      4  C   UNL     1     -28.702  57.232  73.284  0.00  0.00    +0.077 A 
ATOM      5  C   UNL     1     -30.136  57.261  73.320  0.00  0.00    +0.048 A 
ATOM      6  C   UNL     1     -30.819  56.093  72.913  0.00  0.00    +0.116 A 
ATOM      7  N   UNL     1     -30.110  54.984  72.504  0.00  0.00    -0.223 NA
ATOM      8  C   UNL     1     -28.728  54.990  72.480  0.00  0.00    +0.220 A 
ATOM      9  N   UNL     1     -27.995  53.884  72.079  0.00  0.00    -0.283 N 
ATOM     36  H   UNL     1     -26.976  53.930  72.069  0.00  0.00    +0.155 HD
ATOM     37  N   UNL     1     -28.053  56.094  72.862  0.00  0.00    -0.214 NA
BRANCH   4   3
ATOM      1  C   UNL     1     -25.603  59.433  74.207  0.00  0.00    +0.020 A 
ATOM      2  C   UNL     1     -26.391  58.287  73.816  0.00  0.00    +0.013 A 
ATOM      3  C   UNL     1     -27.839  58.387  73.687  0.00  0.00    +0.019 A 
ATOM     38  C   UNL     1     -28.464  59.672  73.962  0.00  0.00    +0.120 A 
ATOM     39  N   UNL     1     -27.680  60.758  74.339  0.00  0.00    -0.263 NA
ATOM     40  C   UNL     1     -26.286  60.673  74.468  0.00  0.00    +0.111 A 
ENDBRANCH   4   3
ENDBRANCH  10   9
BRANCH  12  13
ATOM     13  N   UNL     1     -31.393  50.363  72.980  0.00  0.00    -0.281 N 
ATOM     14  C   UNL     1     -32.753  50.329  72.719  0.00  0.00    +0.248 C 
ATOM     30  O   UNL     1     -33.307  50.987  71.852  0.00  0.00    -0.270 OA
ATOM     31  H   UNL     1     -31.092  49.920  73.848  0.00  0.00    +0.155 HD
BRANCH  14  15
ATOM     15  C   UNL     1     -33.626  49.447  73.552  0.00  0.00    +0.037 A 
ATOM     16  C   UNL     1     -33.967  49.800  74.933  0.00  0.00    +0.013 A 
ATOM     17  C   UNL     1     -34.797  48.923  75.720  0.00  0.00    +0.005 A 
ATOM     18  C   UNL     1     -35.293  47.683  75.126  0.00  0.00    -0.033 A 
ATOM     28  C   UNL     1     -34.944  47.360  73.753  0.00  0.00    +0.005 A 
ATOM     29  C   UNL     1     -34.130  48.217  72.979  0.00  0.00    +0.013 A 
BRANCH  18  19
ATOM     19  C   UNL     1     -36.167  46.678  75.899  0.00  0.00    +0.119 C 
BRANCH  19  20
ATOM     20  N   UNL     1     -35.466  45.704  76.788  0.00  0.00    -0.302 NA
ATOM     21  C   UNL     1     -35.228  44.360  76.092  0.00  0.00    +0.066 C 
ATOM     22  C   UNL     1     -34.474  43.361  77.028  0.00  0.00    -0.064 C 
ATOM     23  N   UNL     1     -35.275  43.169  78.317  0.00  0.00    +0.379 N 
ATOM     24  C   UNL     1     -34.597  42.185  79.174  0.00  0.00    -0.096 C 
ATOM     25  H   UNL     1     -36.268  42.747  78.037  0.00  0.00    -0.082 HD
ATOM     26  C   UNL     1     -35.518  44.500  79.013  0.00  0.00    -0.064 C 
ATOM     27  C   UNL     1     -36.242  45.496  78.065  0.00  0.00    +0.066 C 
ENDBRANCH  19  20
ENDBRANCH  18  19
ENDBRANCH  14  15
ENDBRANCH  12  13
TORSDOF 6
ENDMDL
MODEL 2
REMARK VINA RESULT:      -9.1      6.590     13.443
REMARK  Name = C:\Users\Docking\Desktop\test protocol\1iep_ligandH.pdb
REMARK  8 active torsions:
REMARK  status: ('A' for Active; 'I' for Inactive)
REMARK    1  A    between atoms: _5  and  _11
REMARK    2  A    between atoms: _19  and  _21
REMARK    3  A    between atoms: _22  and  _66
REMARK    4  A    between atoms: _27  and  _30
REMARK    5  A    between atoms: _32  and  _33
REMARK    6  A    between atoms: _38  and  _43
REMARK    7  A    between atoms: _43  and  _46
REMARK    8  A    between atoms: _53  and  _55
REMARK                            x       y       z     vdW  Elec       q    Type
REMARK                         _______ _______ _______ _____ _____    ______ ____
ROOT
ATOM     10  C   UNL     1     -34.611  49.278  69.407  0.00  0.00    +0.038 A 
ATOM     11  C   UNL     1     -33.247  49.299  69.021  0.00  0.00    +0.047 A 
ATOM     12  C   UNL     1     -32.266  50.074  69.764  0.00  0.00    +0.035 A 
ATOM     32  C   UNL     1     -32.709  50.814  70.899  0.00  0.00    +0.024 A 
ATOM     33  C   UNL     1     -34.093  50.805  71.305  0.00  0.00    +0.007 A 
ATOM     34  C   UNL     1     -35.065  50.044  70.574  0.00  0.00    -0.029 A 
ATOM     35  C   UNL     1     -36.536  50.076  71.051  0.00  0.00    +0.045 C 
ENDROOT
BRANCH  10   9
ATOM      4  C   UNL     1     -36.656  45.102  68.216  0.00  0.00    +0.077 A 
ATOM      5  C   UNL     1     -35.846  44.372  69.149  0.00  0.00    +0.048 A 
ATOM      6  C   UNL     1     -34.911  45.107  69.910  0.00  0.00    +0.116 A 
ATOM      7  N   UNL     1     -34.802  46.471  69.744  0.00  0.00    -0.223 NA
ATOM      8  C   UNL     1     -35.597  47.144  68.835  0.00  0.00    +0.220 A 
ATOM      9  N   UNL     1     -35.510  48.516  68.657  0.00  0.00    -0.283 N 
ATOM     36  H   UNL     1     -36.109  48.975  67.971  0.00  0.00    +0.155 HD
ATOM     37  N   UNL     1     -36.497  46.464  68.094  0.00  0.00    -0.214 NA
BRANCH   4   3
ATOM      1  C   UNL     1     -39.859  44.508  66.050  0.00  0.00    +0.020 A 
ATOM      2  C   UNL     1     -38.889  45.167  66.895  0.00  0.00    +0.013 A 
ATOM      3  C   UNL     1     -37.692  44.466  67.342  0.00  0.00    +0.019 A 
ATOM     38  C   UNL     1     -37.504  43.089  66.913  0.00  0.00    +0.120 A 
ATOM     39  N   UNL     1     -38.455  42.479  66.101  0.00  0.00    -0.263 NA
ATOM     40  C   UNL     1     -39.612  43.143  65.666  0.00  0.00    +0.111 A 
ENDBRANCH   4   3
ENDBRANCH  10   9
BRANCH  12  13
ATOM     13  N   UNL     1     -30.869  50.140  69.415  0.00  0.00    -0.281 N 
ATOM     14  C   UNL     1     -29.800  50.468  70.233  0.00  0.00    +0.248 C 
ATOM     30  O   UNL     1     -29.908  50.964  71.345  0.00  0.00    -0.270 OA
ATOM     31  H   UNL     1     -30.639  49.918  68.446  0.00  0.00    +0.155 HD
BRANCH  14  15
ATOM     15  C   UNL     1     -28.411  50.221  69.740  0.00  0.00    +0.037 A 
ATOM     16  C   UNL     1     -27.890  50.914  68.559  0.00  0.00    +0.013 A 
ATOM     17  C   UNL     1     -26.552  50.645  68.095  0.00  0.00    +0.005 A 
ATOM     18  C   UNL     1     -25.724  49.680  68.814  0.00  0.00    -0.033 A 
ATOM     28  C   UNL     1     -26.265  49.011  69.986  0.00  0.00    +0.005 A 
ATOM     29  C   UNL     1     -27.576  49.271  70.444  0.00  0.00    +0.013 A 
BRANCH  18  19
ATOM     19  C   UNL     1     -24.293  49.316  68.378  0.00  0.00    +0.119 C 
BRANCH  19  20
ATOM     20  N   UNL     1     -24.016  47.881  68.071  0.00  0.00    -0.302 NA
ATOM     21  C   UNL     1     -23.144  47.222  69.144  0.00  0.00    +0.066 C 
ATOM     22  C   UNL     1     -22.883  45.715  68.819  0.00  0.00    -0.064 C 
ATOM     23  N   UNL     1     -22.226  45.600  67.443  0.00  0.00    +0.379 N 
ATOM     24  C   UNL     1     -21.926  44.189  67.159  0.00  0.00    -0.096 C 
ATOM     25  H   UNL     1     -21.258  46.150  67.483  0.00  0.00    -0.082 HD
ATOM     26  C   UNL     1     -23.085  46.255  66.370  0.00  0.00    -0.064 C 
ATOM     27  C   UNL     1     -23.363  47.744  66.718  0.00  0.00    +0.066 C 
ENDBRANCH  19  20
ENDBRANCH  18  19
ENDBRANCH  14  15
ENDBRANCH  12  13
TORSDOF 6
ENDMDL
MODEL 3
REMARK VINA RESULT:      -9.0      4.028     12.630
REMARK  Name = C:\Users\Docking\Desktop\test protocol\1iep_ligandH.pdb
REMARK  8 active torsions:
REMARK  status: ('A' for Active; 'I' for Inactive)
REMARK    1  A    between atoms: _5  and  _11
REMARK    2  A    between atoms: _19  and  _21
REMARK    3  A    between atoms: _22  and  _66
REMARK    4  A    between atoms: _27  and  _30
REMARK    5  A    between atoms: _32  and  _33
REMARK    6  A    between atoms: _38  and  _43
REMARK    7  A    between atoms: _43  and  _46
REMARK    8  A    between atoms: _53  and  _55
REMARK                            x       y       z     vdW  Elec       q    Type
REMARK                         _______ _______ _______ _____ _____    ______ ____
ROOT
ATOM     10  C   UNL     1     -34.371  47.562  73.423  0.00  0.00    +0.038 A 
ATOM     11  C   UNL     1     -33.729  48.826  73.387  0.00  0.00    +0.047 A 
ATOM     12  C   UNL     1     -33.861  49.768  74.487  0.00  0.00    +0.035 A 
ATOM     32  C   UNL     1     -34.653  49.390  75.610  0.00  0.00    +0.024 A 
ATOM     33  C   UNL     1     -35.314  48.109  75.662  0.00  0.00    +0.007 A 
ATOM     34  C   UNL     1     -35.189  47.176  74.579  0.00  0.00    -0.029 A 
ATOM     35  C   UNL     1     -35.925  45.820  74.687  0.00  0.00    +0.045 C 
ENDROOT
BRANCH  10   9
ATOM      4  C   UNL     1     -35.309  46.200  68.917  0.00  0.00    +0.077 A 
ATOM      5  C   UNL     1     -36.217  47.292  68.713  0.00  0.00    +0.048 A 
ATOM      6  C   UNL     1     -36.421  48.177  69.795  0.00  0.00    +0.116 A 
ATOM      7  N   UNL     1     -35.760  47.976  70.988  0.00  0.00    -0.223 NA
ATOM      8  C   UNL     1     -34.892  46.912  71.151  0.00  0.00    +0.220 A 
ATOM      9  N   UNL     1     -34.210  46.695  72.339  0.00  0.00    -0.283 N 
ATOM     36  H   UNL     1     -33.585  45.895  72.422  0.00  0.00    +0.155 HD
ATOM     37  N   UNL     1     -34.682  46.052  70.133  0.00  0.00    -0.214 NA
BRANCH   4   3
ATOM      1  C   UNL     1     -35.293  42.933  66.765  0.00  0.00    +0.020 A 
ATOM      2  C   UNL     1     -35.640  43.881  67.799  0.00  0.00    +0.013 A 
ATOM      3  C   UNL     1     -34.987  45.182  67.867  0.00  0.00    +0.019 A 
ATOM     38  C   UNL     1     -33.980  45.497  66.865  0.00  0.00    +0.120 A 
ATOM     39  N   UNL     1     -33.665  44.564  65.882  0.00  0.00    -0.263 NA
ATOM     40  C   UNL     1     -34.285  43.308  65.808  0.00  0.00    +0.111 A 
ENDBRANCH   4   3
ENDBRANCH  10   9
BRANCH  12  13
ATOM     13  N   UNL     1     -33.239  51.069  74.503  0.00  0.00    -0.281 N 
ATOM     14  C   UNL     1     -31.886  51.366  74.506  0.00  0.00    +0.248 C 
ATOM     30  O   UNL     1     -31.000  50.550  74.712  0.00  0.00    -0.270 OA
ATOM     31  H   UNL     1     -33.874  51.868  74.513  0.00  0.00    +0.155 HD
BRANCH  14  15
ATOM     15  C   UNL     1     -31.456  52.776  74.258  0.00  0.00    +0.037 A 
ATOM     16  C   UNL     1     -31.152  53.251  72.906  0.00  0.00    +0.013 A 
ATOM     17  C   UNL     1     -30.723  54.612  72.697  0.00  0.00    +0.005 A 
ATOM     18  C   UNL     1     -30.596  55.507  73.845  0.00  0.00    -0.033 A 
ATOM     28  C   UNL     1     -30.909  55.010  75.175  0.00  0.00    +0.005 A 
ATOM     29  C   UNL     1     -31.329  53.678  75.383  0.00  0.00    +0.013 A 
BRANCH  18  19
ATOM     19  C   UNL     1     -30.124  56.967  73.718  0.00  0.00    +0.119 C 
BRANCH  19  20
ATOM     20  N   UNL     1     -28.746  57.197  73.192  0.00  0.00    -0.302 NA
ATOM     21  C   UNL     1     -27.685  56.472  74.025  0.00  0.00    +0.066 C 
ATOM     22  C   UNL     1     -26.251  56.705  73.447  0.00  0.00    -0.064 C 
ATOM     23  N   UNL     1     -25.963  58.207  73.393  0.00  0.00    +0.379 N 
ATOM     24  C   UNL     1     -24.594  58.427  72.905  0.00  0.00    -0.096 C 
ATOM     25  H   UNL     1     -26.018  58.599  74.435  0.00  0.00    -0.082 HD
ATOM     26  C   UNL     1     -27.015  58.936  72.569  0.00  0.00    -0.064 C 
ATOM     27  C   UNL     1     -28.439  58.674  73.134  0.00  0.00    +0.066 C 
ENDBRANCH  19  20
ENDBRANCH  18  19
ENDBRANCH  14  15
ENDBRANCH  12  13
TORSDOF 6
ENDMDL
MODEL 4
REMARK VINA RESULT:      -8.9      5.988     12.114
REMARK  Name = C:\Users\Docking\Desktop\test protocol\1iep_ligandH.pdb
REMARK  8 active torsions:
REMARK  status: ('A' for Active; 'I' for Inactive)
REMARK    1  A    between atoms: _5  and  _11
REMARK    2  A    between atoms: _19  and  _21
REMARK    3  A    between atoms: _22  and  _66
REMARK    4  A    between atoms: _27  and  _30
REMARK    5  A    between atoms: _32  and  _33
REMARK    6  A    between atoms: _38  and  _43
REMARK    7  A    between atoms: _43  and  _46
REMARK    8  A    between atoms: _53  and  _55
REMARK                            x       y       z     vdW  Elec       q    Type
REMARK                         _______ _______ _______ _____ _____    ______ ____
ROOT
ATOM     10  C   UNL     1     -29.907  51.381  72.339  0.00  0.00    +0.038 A 
ATOM     11  C   UNL     1     -28.888  50.643  71.684  0.00  0.00    +0.047 A 
ATOM     12  C   UNL     1     -27.849  51.312  70.918  0.00  0.00    +0.035 A 
ATOM     32  C   UNL     1     -27.876  52.735  70.841  0.00  0.00    +0.024 A 
ATOM     33  C   UNL     1     -28.905  53.501  71.500  0.00  0.00    +0.007 A 
ATOM     34  C   UNL     1     -29.934  52.846  72.256  0.00  0.00    -0.029 A 
ATOM     35  C   UNL     1     -31.016  53.717  72.936  0.00  0.00    +0.045 C 
ENDROOT
BRANCH  10   9
ATOM      4  C   UNL     1     -34.260  49.403  72.758  0.00  0.00    +0.077 A 
ATOM      5  C   UNL     1     -34.637  49.810  71.435  0.00  0.00    +0.048 A 
ATOM      6  C   UNL     1     -33.685  50.532  70.682  0.00  0.00    +0.116 A 
ATOM      7  N   UNL     1     -32.450  50.820  71.222  0.00  0.00    -0.223 NA
ATOM      8  C   UNL     1     -32.119  50.415  72.502  0.00  0.00    +0.220 A 
ATOM      9  N   UNL     1     -30.880  50.687  73.062  0.00  0.00    -0.283 N 
ATOM     36  H   UNL     1     -30.677  50.376  74.012  0.00  0.00    +0.155 HD
ATOM     37  N   UNL     1     -33.012  49.724  73.241  0.00  0.00    -0.214 NA
BRANCH   4   3
ATOM      1  C   UNL     1     -37.424  48.023  74.598  0.00  0.00    +0.020 A 
ATOM      2  C   UNL     1     -36.604  48.795  73.693  0.00  0.00    +0.013 A 
ATOM      3  C   UNL     1     -35.156  48.630  73.675  0.00  0.00    +0.019 A 
ATOM     38  C   UNL     1     -34.565  47.667  74.592  0.00  0.00    +0.120 A 
ATOM     39  N   UNL     1     -35.379  46.939  75.454  0.00  0.00    -0.263 NA
ATOM     40  C   UNL     1     -36.774  47.091  75.481  0.00  0.00    +0.111 A 
ENDBRANCH   4   3
ENDBRANCH  10   9
BRANCH  12  13
ATOM     13  N   UNL     1     -26.794  50.615  70.225  0.00  0.00    -0.281 N 
ATOM     14  C   UNL     1     -25.765  49.866  70.772  0.00  0.00    +0.248 C 
ATOM     30  O   UNL     1     -25.471  49.859  71.959  0.00  0.00    -0.270 OA
ATOM     31  H   UNL     1     -26.807  50.682  69.207  0.00  0.00    +0.155 HD
BRANCH  14  15
ATOM     15  C   UNL     1     -24.933  49.014  69.870  0.00  0.00    +0.037 A 
ATOM     16  C   UNL     1     -25.511  47.873  69.156  0.00  0.00    +0.013 A 
ATOM     17  C   UNL     1     -24.682  47.056  68.305  0.00  0.00    +0.005 A 
ATOM     18  C   UNL     1     -23.265  47.380  68.162  0.00  0.00    -0.033 A 
ATOM     28  C   UNL     1     -22.718  48.521  68.878  0.00  0.00    +0.005 A 
ATOM     29  C   UNL     1     -23.527  49.323  69.713  0.00  0.00    +0.013 A 
BRANCH  18  19
ATOM     19  C   UNL     1     -22.301  46.551  67.292  0.00  0.00    +0.119 C 
BRANCH  19  20
ATOM     20  N   UNL     1     -21.210  45.812  67.994  0.00  0.00    -0.302 NA
ATOM     21  C   UNL     1     -19.862  46.528  67.874  0.00  0.00    +0.066 C 
ATOM     22  C   UNL     1     -18.736  45.753  68.633  0.00  0.00    -0.064 C 
ATOM     23  N   UNL     1     -18.644  44.328  68.084  0.00  0.00    +0.379 N 
ATOM     24  C   UNL     1     -17.548  43.614  68.756  0.00  0.00    -0.096 C 
ATOM     25  H   UNL     1     -18.388  44.399  67.002  0.00  0.00    -0.082 HD
ATOM     26  C   UNL     1     -19.981  43.609  68.197  0.00  0.00    -0.064 C 
ATOM     27  C   UNL     1     -21.098  44.403  67.464  0.00  0.00    +0.066 C 
ENDBRANCH  19  20
ENDBRANCH  18  19
ENDBRANCH  14  15
ENDBRANCH  12  13
TORSDOF 6
ENDMDL
MODEL 5
REMARK VINA RESULT:      -8.8      6.435      9.557
REMARK  Name = C:\Users\Docking\Desktop\test protocol\1iep_ligandH.pdb
REMARK  8 active torsions:
REMARK  status: ('A' for Active; 'I' for Inactive)
REMARK    1  A    between atoms: _5  and  _11
REMARK    2  A    between atoms: _19  and  _21
REMARK    3  A    between atoms: _22  and  _66
REMARK    4  A    between atoms: _27  and  _30
REMARK    5  A    between atoms: _32  and  _33
REMARK    6  A    between atoms: _38  and  _43
REMARK    7  A    between atoms: _43  and  _46
REMARK    8  A    between atoms: _53  and  _55
REMARK                            x       y       z     vdW  Elec       q    Type
REMARK                         _______ _______ _______ _____ _____    ______ ____
ROOT
ATOM     10  C   UNL     1     -29.647  55.875  73.467  0.00  0.00    +0.038 A 
ATOM     11  C   UNL     1     -28.657  54.972  73.002  0.00  0.00    +0.047 A 
ATOM     12  C   UNL     1     -29.020  53.769  72.269  0.00  0.00    +0.035 A 
ATOM     32  C   UNL     1     -30.401  53.518  72.024  0.00  0.00    +0.024 A 
ATOM     33  C   UNL     1     -31.421  54.425  72.490  0.00  0.00    +0.007 A 
ATOM     34  C   UNL     1     -31.069  55.612  73.216  0.00  0.00    -0.029 A 
ATOM     35  C   UNL     1     -32.204  56.546  73.696  0.00  0.00    +0.045 C 
ENDROOT
BRANCH  10   9
ATOM      4  C   UNL     1     -26.963  59.828  73.924  0.00  0.00    +0.077 A 
ATOM      5  C   UNL     1     -26.292  59.589  72.679  0.00  0.00    +0.048 A 
ATOM      6  C   UNL     1     -26.662  58.433  71.955  0.00  0.00    +0.116 A 
ATOM      7  N   UNL     1     -27.632  57.588  72.449  0.00  0.00    -0.223 NA
ATOM      8  C   UNL     1     -28.258  57.847  73.654  0.00  0.00    +0.220 A 
ATOM      9  N   UNL     1     -29.242  57.015  74.165  0.00  0.00    -0.283 N 
ATOM     36  H   UNL     1     -29.674  57.237  75.061  0.00  0.00    +0.155 HD
ATOM     37  N   UNL     1     -27.922  58.943  74.365  0.00  0.00    -0.214 NA
BRANCH   4   3
ATOM      1  C   UNL     1     -27.396  63.079  76.057  0.00  0.00    +0.020 A 
ATOM      2  C   UNL     1     -27.717  61.956  75.207  0.00  0.00    +0.013 A 
ATOM      3  C   UNL     1     -26.685  61.008  74.803  0.00  0.00    +0.019 A 
ATOM     38  C   UNL     1     -25.328  61.227  75.281  0.00  0.00    +0.120 A 
ATOM     39  N   UNL     1     -25.049  62.319  76.097  0.00  0.00    -0.263 NA
ATOM     40  C   UNL     1     -26.033  63.238  76.491  0.00  0.00    +0.111 A 
ENDBRANCH   4   3
ENDBRANCH  10   9
BRANCH  12  13
ATOM     13  N   UNL     1     -28.059  52.811  71.781  0.00  0.00    -0.281 N 
ATOM     14  C   UNL     1     -27.787  51.548  72.279  0.00  0.00    +0.248 C 
ATOM     30  O   UNL     1     -28.181  51.131  73.358  0.00  0.00    -0.270 OA
ATOM     31  H   UNL     1     -27.513  53.100  70.969  0.00  0.00    +0.155 HD
BRANCH  14  15
ATOM     15  C   UNL     1     -26.942  50.618  71.469  0.00  0.00    +0.037 A 
ATOM     16  C   UNL     1     -27.546  49.579  70.630  0.00  0.00    +0.013 A 
ATOM     17  C   UNL     1     -26.708  48.685  69.871  0.00  0.00    +0.005 A 
ATOM     18  C   UNL     1     -25.256  48.827  69.947  0.00  0.00    -0.033 A 
ATOM     28  C   UNL     1     -24.684  49.870  70.783  0.00  0.00    +0.005 A 
ATOM     29  C   UNL     1     -25.502  50.747  71.528  0.00  0.00    +0.013 A 
BRANCH  18  19
ATOM     19  C   UNL     1     -24.285  47.903  69.188  0.00  0.00    +0.119 C 
BRANCH  19  20
ATOM     20  N   UNL     1     -23.408  48.533  68.157  0.00  0.00    -0.302 NA
ATOM     21  C   UNL     1     -24.130  48.707  66.817  0.00  0.00    +0.066 C 
ATOM     22  C   UNL     1     -23.205  49.388  65.757  0.00  0.00    -0.064 C 
ATOM     23  N   UNL     1     -21.934  48.555  65.582  0.00  0.00    +0.379 N 
ATOM     24  C   UNL     1     -21.088  49.161  64.543  0.00  0.00    -0.096 C 
ATOM     25  H   UNL     1     -22.239  47.544  65.223  0.00  0.00    -0.082 HD
ATOM     26  C   UNL     1     -21.211  48.374  66.910  0.00  0.00    -0.064 C 
ATOM     27  C   UNL     1     -22.148  47.724  67.965  0.00  0.00    +0.066 C 
ENDBRANCH  19  20
ENDBRANCH  18  19
ENDBRANCH  14  15
ENDBRANCH  12  13
TORSDOF 6
ENDMDL
