MODEL 1
REMARK VINA RESULT:      -9.8      0.000      0.000
REMARK  Name = C:\Users\Docking\Desktop\test protocol\1iep_ligandH.pdb
REMARK  8 active torsions:
REMARK  status: ('A' for Active; 'I' for Inactive)
REMARK    1  A    between atoms: _5  and  _11
REMARK    2  A    between atoms: _19  and  _21
REMARK    3  A    between atoms: _22  and  _66
REMARK    4  A    between atoms: _27  and  _30
REMARK    5  A    between atoms: _32  and  _33
REMARK    6  A    between atoms: _38  and  _43
REMARK    7  A    between atoms: _43  and  _46
REMARK    8  A    between atoms: _53  and  _55
REMARK                            x       y       z     vdW  Elec       q    Type
REMARK                         _______ _______ _______ _____ _____    ______ ____
ROOT
ATOM     10  C   UNL     1      20.820  24.120  20.485  0.00  0.00    +0.038 A 
ATOM     11  C   UNL     1      19.816  23.562  21.318  0.00  0.00    +0.047 A 
ATOM     12  C   UNL     1      20.160  22.877  22.555  0.00  0.00    +0.035 A 
ATOM     32  C   UNL     1      21.536  22.782  22.914  0.00  0.00    +0.024 A 
ATOM     33  C   UNL     1      22.569  23.342  22.079  0.00  0.00    +0.007 A 
ATOM     34  C   UNL     1      22.236  24.016  20.857  0.00  0.00    -0.029 A 
ATOM     35  C   UNL     1      23.385  24.592  19.997  0.00  0.00    +0.045 C 
ENDROOT
BRANCH  10   9
ATOM      4  C   UNL     1      19.767  24.114  15.802  0.00  0.00    +0.077 A 
ATOM      5  C   UNL     1      20.035  22.710  15.683  0.00  0.00    +0.048 A 
ATOM      6  C   UNL     1      20.449  22.027  16.849  0.00  0.00    +0.116 A 
ATOM      7  N   UNL     1      20.580  22.708  18.040  0.00  0.00    -0.223 NA
ATOM      8  C   UNL     1      20.315  24.063  18.120  0.00  0.00    +0.220 A 
ATOM      9  N   UNL     1      20.433  24.766  19.309  0.00  0.00    -0.283 N 
ATOM     36  H   UNL     1      20.235  25.766  19.325  0.00  0.00    +0.155 HD
ATOM     37  N   UNL     1      19.920  24.738  17.021  0.00  0.00    -0.214 NA
BRANCH   4   3
ATOM      1  C   UNL     1      18.495  27.151  13.690  0.00  0.00    +0.020 A 
ATOM      2  C   UNL     1      18.920  26.365  14.826  0.00  0.00    +0.013 A 
ATOM      3  C   UNL     1      19.318  24.973  14.661  0.00  0.00    +0.019 A 
ATOM     38  C   UNL     1      19.276  24.402  13.323  0.00  0.00    +0.120 A 
ATOM     39  N   UNL     1      18.861  25.183  12.249  0.00  0.00    -0.263 NA
ATOM     40  C   UNL     1      18.474  26.523  12.396  0.00  0.00    +0.111 A 
ENDBRANCH   4   3
ENDBRANCH  10   9
BRANCH  12  13
ATOM     13  N   UNL     1      19.185  22.284  23.437  0.00  0.00    -0.281 N 
ATOM     14  C   UNL     1      19.365  21.235  24.323  0.00  0.00    +0.248 C 
ATOM     30  O   UNL     1      20.344  20.503  24.337  0.00  0.00    -0.270 OA
ATOM     31  H   UNL     1      18.249  22.687  23.403  0.00  0.00    +0.155 HD
BRANCH  14  15
ATOM     15  C   UNL     1      18.298  20.948  25.329  0.00  0.00    +0.037 A 
ATOM     16  C   UNL     1      17.195  21.885  25.554  0.00  0.00    +0.013 A 
ATOM     17  C   UNL     1      16.188  21.592  26.543  0.00  0.00    +0.005 A 
ATOM     18  C   UNL     1      16.279  20.354  27.314  0.00  0.00    -0.033 A 
ATOM     28  C   UNL     1      17.382  19.440  27.066  0.00  0.00    +0.005 A 
ATOM     29  C   UNL     1      18.371  19.724  26.098  0.00  0.00    +0.013 A 
BRANCH  18  19
ATOM     19  C   UNL     1      15.261  19.970  28.404  0.00  0.00    +0.119 C 
BRANCH  19  20
ATOM     20  N   UNL     1      13.902  19.547  27.952  0.00  0.00    -0.302 NA
ATOM     21  C   UNL     1      12.794  20.154  28.817  0.00  0.00    +0.066 C 
ATOM     22  C   UNL     1      11.378  19.720  28.316  0.00  0.00    -0.064 C 
ATOM     23  N   UNL     1      11.288  18.193  28.313  0.00  0.00    +0.379 N 
ATOM     24  C   UNL     1       9.939  17.782  27.898  0.00  0.00    -0.096 C 
ATOM     25  H   UNL     1      11.441  17.843  29.361  0.00  0.00    -0.082 HD
ATOM     26  C   UNL     1      12.388  17.581  27.457  0.00  0.00    -0.064 C 
ATOM     27  C   UNL     1      13.790  18.043  27.945  0.00  0.00    +0.066 C 
ENDBRANCH  19  20
ENDBRANCH  18  19
ENDBRANCH  14  15
ENDBRANCH  12  13
TORSDOF 6
ENDMDL
MODEL 2
REMARK VINA RESULT:      -9.7      7.300      9.438
REMARK  Name = C:\Users\Docking\Desktop\test protocol\1iep_ligandH.pdb
REMARK  8 active torsions:
REMARK  status: ('A' for Active; 'I' for Inactive)
REMARK    1  A    between atoms: _5  and  _11
REMARK    2  A    between atoms: _19  and  _21
REMARK    3  A    between atoms: _22  and  _66
REMARK    4  A    between atoms: _27  and  _30
REMARK    5  A    between atoms: _32  and  _33
REMARK    6  A    between atoms: _38  and  _43
REMARK    7  A    between atoms: _43  and  _46
REMARK    8  A    between atoms: _53  and  _55
REMARK                            x       y       z     vdW  Elec       q    Type
REMARK                         _______ _______ _______ _____ _____    ______ ____
ROOT
ATOM     10  C   UNL     1      25.287  18.199  25.811  0.00  0.00    +0.038 A 
ATOM     11  C   UNL     1      24.038  18.588  26.359  0.00  0.00    +0.047 A 
ATOM     12  C   UNL     1      22.835  17.806  26.119  0.00  0.00    +0.035 A 
ATOM     32  C   UNL     1      22.942  16.631  25.319  0.00  0.00    +0.024 A 
ATOM     33  C   UNL     1      24.203  16.221  24.754  0.00  0.00    +0.007 A 
ATOM     34  C   UNL     1      25.393  16.990  24.985  0.00  0.00    -0.029 A 
ATOM     35  C   UNL     1      26.717  16.507  24.349  0.00  0.00    +0.045 C 
ENDROOT
BRANCH  10   9
ATOM      4  C   UNL     1      27.960  22.124  25.113  0.00  0.00    +0.077 A 
ATOM      5  C   UNL     1      27.057  22.635  24.123  0.00  0.00    +0.048 A 
ATOM      6  C   UNL     1      25.920  21.853  23.817  0.00  0.00    +0.116 A 
ATOM      7  N   UNL     1      25.712  20.653  24.460  0.00  0.00    -0.223 NA
ATOM      8  C   UNL     1      26.604  20.188  25.409  0.00  0.00    +0.220 A 
ATOM      9  N   UNL     1      26.410  18.987  26.074  0.00  0.00    -0.283 N 
ATOM     36  H   UNL     1      27.095  18.676  26.762  0.00  0.00    +0.155 HD
ATOM     37  N   UNL     1      27.698  20.915  25.718  0.00  0.00    -0.214 NA
BRANCH   4   3
ATOM      1  C   UNL     1      31.616  22.873  26.283  0.00  0.00    +0.020 A 
ATOM      2  C   UNL     1      30.443  22.139  25.869  0.00  0.00    +0.013 A 
ATOM      3  C   UNL     1      29.204  22.835  25.548  0.00  0.00    +0.019 A 
ATOM     38  C   UNL     1      29.185  24.286  25.655  0.00  0.00    +0.120 A 
ATOM     39  N   UNL     1      30.330  24.966  26.058  0.00  0.00    -0.263 NA
ATOM     40  C   UNL     1      31.528  24.307  26.372  0.00  0.00    +0.111 A 
ENDBRANCH   4   3
ENDBRANCH  10   9
BRANCH  12  13
ATOM     13  N   UNL     1      21.538  18.156  26.642  0.00  0.00    -0.281 N 
ATOM     14  C   UNL     1      20.582  18.978  26.068  0.00  0.00    +0.248 C 
ATOM     30  O   UNL     1      20.785  19.712  25.112  0.00  0.00    -0.270 OA
ATOM     31  H   UNL     1      21.294  17.748  27.544  0.00  0.00    +0.155 HD
BRANCH  14  15
ATOM     15  C   UNL     1      19.205  18.999  26.649  0.00  0.00    +0.037 A 
ATOM     16  C   UNL     1      18.825  18.095  27.737  0.00  0.00    +0.013 A 
ATOM     17  C   UNL     1      17.485  18.124  28.267  0.00  0.00    +0.005 A 
ATOM     18  C   UNL     1      16.515  19.063  27.710  0.00  0.00    -0.033 A 
ATOM     28  C   UNL     1      16.920  19.953  26.634  0.00  0.00    +0.005 A 
ATOM     29  C   UNL     1      18.232  19.926  26.111  0.00  0.00    +0.013 A 
BRANCH  18  19
ATOM     19  C   UNL     1      15.057  19.149  28.200  0.00  0.00    +0.119 C 
BRANCH  19  20
ATOM     20  N   UNL     1      14.800  18.843  29.639  0.00  0.00    -0.302 NA
ATOM     21  C   UNL     1      13.305  18.845  29.969  0.00  0.00    +0.066 C 
ATOM     22  C   UNL     1      13.054  18.501  31.473  0.00  0.00    -0.064 C 
ATOM     23  N   UNL     1      13.804  19.502  32.354  0.00  0.00    +0.379 N 
ATOM     24  C   UNL     1      13.523  19.217  33.769  0.00  0.00    -0.096 C 
ATOM     25  H   UNL     1      13.404  20.518  32.128  0.00  0.00    -0.082 HD
ATOM     26  C   UNL     1      15.291  19.508  32.031  0.00  0.00    -0.064 C 
ATOM     27  C   UNL     1      15.529  19.822  30.527  0.00  0.00    +0.066 C 
ENDBRANCH  19  20
ENDBRANCH  18  19
ENDBRANCH  14  15
ENDBRANCH  12  13
TORSDOF 6
ENDMDL
MODEL 3
REMARK VINA RESULT:      -9.7      7.371      9.351
REMARK  Name = C:\Users\Docking\Desktop\test protocol\1iep_ligandH.pdb
REMARK  8 active torsions:
REMARK  status: ('A' for Active; 'I' for Inactive)
REMARK    1  A    between atoms: _5  and  _11
REMARK    2  A    between atoms: _19  and  _21
REMARK    3  A    between atoms: _22  and  _66
REMARK    4  A    between atoms: _27  and  _30
REMARK    5  A    between atoms: _32  and  _33
REMARK    6  A    between atoms: _38  and  _43
REMARK    7  A    between atoms: _43  and  _46
REMARK    8  A    between atoms: _53  and  _55
REMARK                            x       y       z     vdW  Elec       q    Type
REMARK                         _______ _______ _______ _____ _____    ______ ____
ROOT
ATOM     10  C   UNL     1      25.418  18.111  25.761  0.00  0.00    +0.038 A 
ATOM     11  C   UNL     1      24.220  18.494  26.417  0.00  0.00    +0.047 A 
ATOM     12  C   UNL     1      22.980  17.763  26.206  0.00  0.00    +0.035 A 
ATOM     32  C   UNL     1      22.997  16.644  25.323  0.00  0.00    +0.024 A 
ATOM     33  C   UNL     1      24.205  16.242  24.647  0.00  0.00    +0.007 A 
ATOM     34  C   UNL     1      25.431  16.960  24.849  0.00  0.00    -0.029 A 
ATOM     35  C   UNL     1      26.695  16.488  24.093  0.00  0.00    +0.045 C 
ENDROOT
BRANCH  10   9
ATOM      4  C   UNL     1      28.133  22.029  25.205  0.00  0.00    +0.077 A 
ATOM      5  C   UNL     1      27.167  22.649  24.344  0.00  0.00    +0.048 A 
ATOM      6  C   UNL     1      25.988  21.923  24.064  0.00  0.00    +0.116 A 
ATOM      7  N   UNL     1      25.799  20.671  24.609  0.00  0.00    -0.223 NA
ATOM      8  C   UNL     1      26.752  20.102  25.434  0.00  0.00    +0.220 A 
ATOM      9  N   UNL     1      26.580  18.848  26.000  0.00  0.00    -0.283 N 
ATOM     36  H   UNL     1      27.310  18.460  26.597  0.00  0.00    +0.155 HD
ATOM     37  N   UNL     1      27.887  20.775  25.716  0.00  0.00    -0.214 NA
BRANCH   4   3
ATOM      1  C   UNL     1      31.846  22.576  26.306  0.00  0.00    +0.020 A 
ATOM      2  C   UNL     1      30.621  21.907  25.934  0.00  0.00    +0.013 A 
ATOM      3  C   UNL     1      29.427  22.672  25.597  0.00  0.00    +0.019 A 
ATOM     38  C   UNL     1      29.507  24.124  25.645  0.00  0.00    +0.120 A 
ATOM     39  N   UNL     1      30.700  24.741  26.008  0.00  0.00    -0.263 NA
ATOM     40  C   UNL     1      31.855  24.015  26.337  0.00  0.00    +0.111 A 
ENDBRANCH   4   3
ENDBRANCH  10   9
BRANCH  12  13
ATOM     13  N   UNL     1      21.732  18.110  26.838  0.00  0.00    -0.281 N 
ATOM     14  C   UNL     1      20.674  18.824  26.299  0.00  0.00    +0.248 C 
ATOM     30  O   UNL     1      20.729  19.459  25.257  0.00  0.00    -0.270 OA
ATOM     31  H   UNL     1      21.613  17.791  27.800  0.00  0.00    +0.155 HD
BRANCH  14  15
ATOM     15  C   UNL     1      19.371  18.847  27.031  0.00  0.00    +0.037 A 
ATOM     16  C   UNL     1      18.210  19.560  26.493  0.00  0.00    +0.013 A 
ATOM     17  C   UNL     1      16.970  19.581  27.227  0.00  0.00    +0.005 A 
ATOM     18  C   UNL     1      16.884  18.884  28.508  0.00  0.00    -0.033 A 
ATOM     28  C   UNL     1      18.050  18.180  29.016  0.00  0.00    +0.005 A 
ATOM     29  C   UNL     1      19.268  18.159  28.300  0.00  0.00    +0.013 A 
BRANCH  18  19
ATOM     19  C   UNL     1      15.608  18.872  29.370  0.00  0.00    +0.119 C 
BRANCH  19  20
ATOM     20  N   UNL     1      14.320  19.203  28.690  0.00  0.00    -0.302 NA
ATOM     21  C   UNL     1      13.334  19.896  29.633  0.00  0.00    +0.066 C 
ATOM     22  C   UNL     1      12.001  20.256  28.899  0.00  0.00    -0.064 C 
ATOM     23  N   UNL     1      11.386  18.984  28.312  0.00  0.00    +0.379 N 
ATOM     24  C   UNL     1      10.104  19.309  27.672  0.00  0.00    -0.096 C 
ATOM     25  H   UNL     1      11.175  18.289  29.159  0.00  0.00    -0.082 HD
ATOM     26  C   UNL     1      12.361  18.286  27.375  0.00  0.00    -0.064 C 
ATOM     27  C   UNL     1      13.694  17.960  28.106  0.00  0.00    +0.066 C 
ENDBRANCH  19  20
ENDBRANCH  18  19
ENDBRANCH  14  15
ENDBRANCH  12  13
TORSDOF 6
ENDMDL
MODEL 4
REMARK VINA RESULT:      -9.6      7.280     13.275
REMARK  Name = C:\Users\Docking\Desktop\test protocol\1iep_ligandH.pdb
REMARK  8 active torsions:
REMARK  status: ('A' for Active; 'I' for Inactive)
REMARK    1  A    between atoms: _5  and  _11
REMARK    2  A    between atoms: _19  and  _21
REMARK    3  A    between atoms: _22  and  _66
REMARK    4  A    between atoms: _27  and  _30
REMARK    5  A    between atoms: _32  and  _33
REMARK    6  A    between atoms: _38  and  _43
REMARK    7  A    between atoms: _43  and  _46
REMARK    8  A    between atoms: _53  and  _55
REMARK                            x       y       z     vdW  Elec       q    Type
REMARK                         _______ _______ _______ _____ _____    ______ ____
ROOT
ATOM     10  C   UNL     1      18.621  17.061  29.294  0.00  0.00    +0.038 A 
ATOM     11  C   UNL     1      19.483  16.974  28.171  0.00  0.00    +0.047 A 
ATOM     12  C   UNL     1      20.923  16.850  28.336  0.00  0.00    +0.035 A 
ATOM     32  C   UNL     1      21.451  16.814  29.659  0.00  0.00    +0.024 A 
ATOM     33  C   UNL     1      20.590  16.902  30.812  0.00  0.00    +0.007 A 
ATOM     34  C   UNL     1      19.169  17.028  30.656  0.00  0.00    -0.029 A 
ATOM     35  C   UNL     1      18.294  17.125  31.927  0.00  0.00    +0.045 C 
ENDROOT
BRANCH  10   9
ATOM      4  C   UNL     1      14.779  19.448  27.690  0.00  0.00    +0.077 A 
ATOM      5  C   UNL     1      15.575  20.566  27.270  0.00  0.00    +0.048 A 
ATOM      6  C   UNL     1      16.968  20.490  27.492  0.00  0.00    +0.116 A 
ATOM      7  N   UNL     1      17.514  19.374  28.089  0.00  0.00    -0.223 NA
ATOM      8  C   UNL     1      16.718  18.315  28.483  0.00  0.00    +0.220 A 
ATOM      9  N   UNL     1      17.246  17.180  29.078  0.00  0.00    -0.283 N 
ATOM     36  H   UNL     1      16.624  16.423  29.362  0.00  0.00    +0.155 HD
ATOM     37  N   UNL     1      15.384  18.364  28.284  0.00  0.00    -0.214 NA
BRANCH   4   3
ATOM      1  C   UNL     1      11.216  18.915  26.166  0.00  0.00    +0.020 A 
ATOM      2  C   UNL     1      12.656  18.966  26.276  0.00  0.00    +0.013 A 
ATOM      3  C   UNL     1      13.293  19.378  27.521  0.00  0.00    +0.019 A 
ATOM     38  C   UNL     1      12.438  19.734  28.643  0.00  0.00    +0.120 A 
ATOM     39  N   UNL     1      11.054  19.676  28.507  0.00  0.00    -0.263 NA
ATOM     40  C   UNL     1      10.430  19.283  27.314  0.00  0.00    +0.111 A 
ENDBRANCH   4   3
ENDBRANCH  10   9
BRANCH  12  13
ATOM     13  N   UNL     1      21.848  16.766  27.233  0.00  0.00    -0.281 N 
ATOM     14  C   UNL     1      22.793  17.700  26.841  0.00  0.00    +0.248 C 
ATOM     30  O   UNL     1      22.841  18.849  27.253  0.00  0.00    -0.270 OA
ATOM     31  H   UNL     1      21.801  15.914  26.674  0.00  0.00    +0.155 HD
BRANCH  14  15
ATOM     15  C   UNL     1      23.826  17.304  25.836  0.00  0.00    +0.037 A 
ATOM     16  C   UNL     1      25.023  18.119  25.615  0.00  0.00    +0.013 A 
ATOM     17  C   UNL     1      25.995  17.723  24.627  0.00  0.00    +0.005 A 
ATOM     18  C   UNL     1      25.773  16.505  23.852  0.00  0.00    -0.033 A 
ATOM     28  C   UNL     1      24.579  15.712  24.095  0.00  0.00    +0.005 A 
ATOM     29  C   UNL     1      23.624  16.097  25.062  0.00  0.00    +0.013 A 
BRANCH  18  19
ATOM     19  C   UNL     1      26.747  16.018  22.762  0.00  0.00    +0.119 C 
BRANCH  19  20
ATOM     20  N   UNL     1      26.392  16.322  21.343  0.00  0.00    -0.302 NA
ATOM     21  C   UNL     1      27.032  15.332  20.366  0.00  0.00    +0.066 C 
ATOM     22  C   UNL     1      26.633  15.651  18.889  0.00  0.00    -0.064 C 
ATOM     23  N   UNL     1      27.042  17.086  18.552  0.00  0.00    +0.379 N 
ATOM     24  C   UNL     1      26.721  17.370  17.145  0.00  0.00    -0.096 C 
ATOM     25  H   UNL     1      28.149  17.157  18.667  0.00  0.00    -0.082 HD
ATOM     26  C   UNL     1      26.413  18.077  19.520  0.00  0.00    -0.064 C 
ATOM     27  C   UNL     1      26.792  17.733  20.987  0.00  0.00    +0.066 C 
ENDBRANCH  19  20
ENDBRANCH  18  19
ENDBRANCH  14  15
ENDBRANCH  12  13
TORSDOF 6
ENDMDL
MODEL 5
REMARK VINA RESULT:      -9.6      8.149      9.335
REMARK  Name = C:\Users\Docking\Desktop\test protocol\1iep_ligandH.pdb
REMARK  8 active torsions:
REMARK  status: ('A' for Active; 'I' for Inactive)
REMARK    1  A    between atoms: _5  and  _11
REMARK    2  A    between atoms: _19  and  _21
REMARK    3  A    between atoms: _22  and  _66
REMARK    4  A    between atoms: _27  and  _30
REMARK    5  A    between atoms: _32  and  _33
REMARK    6  A    between atoms: _38  and  _43
REMARK    7  A    between atoms: _43  and  _46
REMARK    8  A    between atoms: _53  and  _55
REMARK                            x       y       z     vdW  Elec       q    Type
REMARK                         _______ _______ _______ _____ _____    ______ ____
ROOT
ATOM     10  C   UNL     1      23.856  15.450  26.460  0.00  0.00    +0.038 A 
ATOM     11  C   UNL     1      22.579  16.066  26.506  0.00  0.00    +0.047 A 
ATOM     12  C   UNL     1      21.919  16.336  27.773  0.00  0.00    +0.035 A 
ATOM     32  C   UNL     1      22.589  15.969  28.976  0.00  0.00    +0.024 A 
ATOM     33  C   UNL     1      23.887  15.341  28.949  0.00  0.00    +0.007 A 
ATOM     34  C   UNL     1      24.542  15.069  27.701  0.00  0.00    -0.029 A 
ATOM     35  C   UNL     1      25.930  14.388  27.731  0.00  0.00    +0.045 C 
ENDROOT
BRANCH  10   9
ATOM      4  C   UNL     1      26.609  16.777  22.759  0.00  0.00    +0.077 A 
ATOM      5  C   UNL     1      26.876  18.060  23.342  0.00  0.00    +0.048 A 
ATOM      6  C   UNL     1      26.281  18.342  24.592  0.00  0.00    +0.116 A 
ATOM      7  N   UNL     1      25.479  17.403  25.205  0.00  0.00    -0.223 NA
ATOM      8  C   UNL     1      25.240  16.176  24.614  0.00  0.00    +0.220 A 
ATOM      9  N   UNL     1      24.444  15.214  25.216  0.00  0.00    -0.283 N 
ATOM     36  H   UNL     1      24.286  14.324  24.744  0.00  0.00    +0.155 HD
ATOM     37  N   UNL     1      25.796  15.883  23.420  0.00  0.00    -0.214 NA
BRANCH   4   3
ATOM      1  C   UNL     1      26.925  15.633  19.032  0.00  0.00    +0.020 A 
ATOM      2  C   UNL     1      26.335  16.062  20.279  0.00  0.00    +0.013 A 
ATOM      3  C   UNL     1      27.168  16.330  21.444  0.00  0.00    +0.019 A 
ATOM     38  C   UNL     1      28.606  16.155  21.313  0.00  0.00    +0.120 A 
ATOM     39  N   UNL     1      29.147  15.739  20.100  0.00  0.00    -0.263 NA
ATOM     40  C   UNL     1      28.354  15.476  18.973  0.00  0.00    +0.111 A 
ENDBRANCH   4   3
ENDBRANCH  10   9
BRANCH  12  13
ATOM     13  N   UNL     1      20.619  16.952  27.881  0.00  0.00    -0.281 N 
ATOM     14  C   UNL     1      20.254  18.239  27.522  0.00  0.00    +0.248 C 
ATOM     30  O   UNL     1      21.043  19.131  27.249  0.00  0.00    -0.270 OA
ATOM     31  H   UNL     1      19.879  16.368  28.270  0.00  0.00    +0.155 HD
BRANCH  14  15
ATOM     15  C   UNL     1      18.802  18.590  27.472  0.00  0.00    +0.037 A 
ATOM     16  C   UNL     1      18.307  19.652  26.593  0.00  0.00    +0.013 A 
ATOM     17  C   UNL     1      16.903  19.982  26.577  0.00  0.00    +0.005 A 
ATOM     18  C   UNL     1      15.985  19.247  27.443  0.00  0.00    -0.033 A 
ATOM     28  C   UNL     1      16.502  18.194  28.302  0.00  0.00    +0.005 A 
ATOM     29  C   UNL     1      17.877  17.869  28.321  0.00  0.00    +0.013 A 
BRANCH  18  19
ATOM     19  C   UNL     1      14.475  19.546  27.507  0.00  0.00    +0.119 C 
BRANCH  19  20
ATOM     20  N   UNL     1      13.750  19.144  28.749  0.00  0.00    -0.302 NA
ATOM     21  C   UNL     1      12.246  19.409  28.647  0.00  0.00    +0.066 C 
ATOM     22  C   UNL     1      11.500  18.962  29.947  0.00  0.00    -0.064 C 
ATOM     23  N   UNL     1      12.098  19.691  31.151  0.00  0.00    +0.379 N 
ATOM     24  C   UNL     1      11.361  19.317  32.367  0.00  0.00    -0.096 C 
ATOM     25  H   UNL     1      11.952  20.785  30.990  0.00  0.00    -0.082 HD
ATOM     26  C   UNL     1      13.594  19.436  31.258  0.00  0.00    -0.064 C 
ATOM     27  C   UNL     1      14.322  19.856  29.951  0.00  0.00    +0.066 C 
ENDBRANCH  19  20
ENDBRANCH  18  19
ENDBRANCH  14  15
ENDBRANCH  12  13
TORSDOF 6
ENDMDL
