MODEL 1
REMARK VINA RESULT:      -7.7      0.000      0.000
REMARK  Name = C:\Users\Docking\Desktop\test protocol\1iep_ligandH.pdb
REMARK  8 active torsions:
REMARK  status: ('A' for Active; 'I' for Inactive)
REMARK    1  A    between atoms: _5  and  _11
REMARK    2  A    between atoms: _19  and  _21
REMARK    3  A    between atoms: _22  and  _66
REMARK    4  A    between atoms: _27  and  _30
REMARK    5  A    between atoms: _32  and  _33
REMARK    6  A    between atoms: _38  and  _43
REMARK    7  A    between atoms: _43  and  _46
REMARK    8  A    between atoms: _53  and  _55
REMARK                            x       y       z     vdW  Elec       q    Type
REMARK                         _______ _______ _______ _____ _____    ______ ____
ROOT
ATOM     10  C   UNL     1     -14.466  54.088  -1.282  0.00  0.00    +0.038 A 
ATOM     11  C   UNL     1     -15.261  53.045  -1.822  0.00  0.00    +0.047 A 
ATOM     12  C   UNL     1     -14.978  52.484  -3.133  0.00  0.00    +0.035 A 
ATOM     32  C   UNL     1     -13.874  53.008  -3.868  0.00  0.00    +0.024 A 
ATOM     33  C   UNL     1     -13.056  54.069  -3.336  0.00  0.00    +0.007 A 
ATOM     34  C   UNL     1     -13.333  54.628  -2.043  0.00  0.00    -0.029 A 
ATOM     35  C   UNL     1     -12.426  55.769  -1.525  0.00  0.00    +0.045 C 
ENDROOT
BRANCH  10   9
ATOM      4  C   UNL     1     -16.537  57.329   1.589  0.00  0.00    +0.077 A 
ATOM      5  C   UNL     1     -17.004  58.104   0.475  0.00  0.00    +0.048 A 
ATOM      6  C   UNL     1     -16.684  57.638  -0.820  0.00  0.00    +0.116 A 
ATOM      7  N   UNL     1     -15.951  56.482  -0.977  0.00  0.00    -0.223 NA
ATOM      8  C   UNL     1     -15.515  55.759   0.118  0.00  0.00    +0.220 A 
ATOM      9  N   UNL     1     -14.783  54.589  -0.018  0.00  0.00    -0.283 N 
ATOM     36  H   UNL     1     -14.473  54.089   0.815  0.00  0.00    +0.155 HD
ATOM     37  N   UNL     1     -15.806  56.184   1.365  0.00  0.00    -0.214 NA
BRANCH   4   3
ATOM      1  C   UNL     1     -16.041  58.378   5.324  0.00  0.00    +0.020 A 
ATOM      2  C   UNL     1     -15.735  58.036   3.954  0.00  0.00    +0.013 A 
ATOM      3  C   UNL     1     -16.798  57.690   3.018  0.00  0.00    +0.019 A 
ATOM     38  C   UNL     1     -18.169  57.700   3.504  0.00  0.00    +0.120 A 
ATOM     39  N   UNL     1     -18.433  58.032   4.829  0.00  0.00    -0.263 NA
ATOM     40  C   UNL     1     -17.419  58.365   5.740  0.00  0.00    +0.111 A 
ENDBRANCH   4   3
ENDBRANCH  10   9
BRANCH  12  13
ATOM     13  N   UNL     1     -15.755  51.430  -3.736  0.00  0.00    -0.281 N 
ATOM     14  C   UNL     1     -15.679  50.068  -3.490  0.00  0.00    +0.248 C 
ATOM     30  O   UNL     1     -14.777  49.528  -2.866  0.00  0.00    -0.270 OA
ATOM     31  H   UNL     1     -16.445  51.722  -4.428  0.00  0.00    +0.155 HD
BRANCH  14  15
ATOM     15  C   UNL     1     -16.751  49.176  -4.027  0.00  0.00    +0.037 A 
ATOM     16  C   UNL     1     -17.262  48.047  -3.245  0.00  0.00    +0.013 A 
ATOM     17  C   UNL     1     -18.285  47.192  -3.794  0.00  0.00    +0.005 A 
ATOM     18  C   UNL     1     -18.805  47.465  -5.132  0.00  0.00    -0.033 A 
ATOM     28  C   UNL     1     -18.283  48.595  -5.883  0.00  0.00    +0.005 A 
ATOM     29  C   UNL     1     -17.280  49.434  -5.349  0.00  0.00    +0.013 A 
BRANCH  18  19
ATOM     19  C   UNL     1     -19.881  46.593  -5.804  0.00  0.00    +0.119 C 
BRANCH  19  20
ATOM     20  N   UNL     1     -21.240  47.190  -5.970  0.00  0.00    -0.302 NA
ATOM     21  C   UNL     1     -22.342  46.268  -5.440  0.00  0.00    +0.066 C 
ATOM     22  C   UNL     1     -23.754  46.918  -5.601  0.00  0.00    -0.064 C 
ATOM     23  N   UNL     1     -23.993  47.255  -7.074  0.00  0.00    +0.379 N 
ATOM     24  C   UNL     1     -25.343  47.813  -7.237  0.00  0.00    -0.096 C 
ATOM     25  H   UNL     1     -23.948  46.302  -7.650  0.00  0.00    -0.082 HD
ATOM     26  C   UNL     1     -22.900  48.170  -7.610  0.00  0.00    -0.064 C 
ATOM     27  C   UNL     1     -21.498  47.527  -7.418  0.00  0.00    +0.066 C 
ENDBRANCH  19  20
ENDBRANCH  18  19
ENDBRANCH  14  15
ENDBRANCH  12  13
TORSDOF 6
ENDMDL
MODEL 2
REMARK VINA RESULT:      -7.6      5.500     10.010
REMARK  Name = C:\Users\Docking\Desktop\test protocol\1iep_ligandH.pdb
REMARK  8 active torsions:
REMARK  status: ('A' for Active; 'I' for Inactive)
REMARK    1  A    between atoms: _5  and  _11
REMARK    2  A    between atoms: _19  and  _21
REMARK    3  A    between atoms: _22  and  _66
REMARK    4  A    between atoms: _27  and  _30
REMARK    5  A    between atoms: _32  and  _33
REMARK    6  A    between atoms: _38  and  _43
REMARK    7  A    between atoms: _43  and  _46
REMARK    8  A    between atoms: _53  and  _55
REMARK                            x       y       z     vdW  Elec       q    Type
REMARK                         _______ _______ _______ _____ _____    ______ ____
ROOT
ATOM     10  C   UNL     1     -15.317  55.032  -0.147  0.00  0.00    +0.038 A 
ATOM     11  C   UNL     1     -16.664  55.122   0.288  0.00  0.00    +0.047 A 
ATOM     12  C   UNL     1     -17.425  56.353   0.132  0.00  0.00    +0.035 A 
ATOM     32  C   UNL     1     -16.782  57.472  -0.474  0.00  0.00    +0.024 A 
ATOM     33  C   UNL     1     -15.414  57.398  -0.921  0.00  0.00    +0.007 A 
ATOM     34  C   UNL     1     -14.658  56.188  -0.767  0.00  0.00    -0.029 A 
ATOM     35  C   UNL     1     -13.192  56.168  -1.259  0.00  0.00    +0.045 C 
ENDROOT
BRANCH  10   9
ATOM      4  C   UNL     1     -13.891  50.715  -1.685  0.00  0.00    +0.077 A 
ATOM      5  C   UNL     1     -14.587  50.863  -2.930  0.00  0.00    +0.048 A 
ATOM      6  C   UNL     1     -15.306  52.063  -3.133  0.00  0.00    +0.116 A 
ATOM      7  N   UNL     1     -15.321  53.034  -2.156  0.00  0.00    -0.223 NA
ATOM      8  C   UNL     1     -14.640  52.859  -0.965  0.00  0.00    +0.220 A 
ATOM      9  N   UNL     1     -14.634  53.826   0.028  0.00  0.00    -0.283 N 
ATOM     36  H   UNL     1     -14.126  53.656   0.895  0.00  0.00    +0.155 HD
ATOM     37  N   UNL     1     -13.947  51.722  -0.747  0.00  0.00    -0.214 NA
BRANCH   4   3
ATOM      1  C   UNL     1     -11.044  48.391  -0.345  0.00  0.00    +0.020 A 
ATOM      2  C   UNL     1     -11.783  49.589  -0.673  0.00  0.00    +0.013 A 
ATOM      3  C   UNL     1     -13.084  49.507  -1.324  0.00  0.00    +0.019 A 
ATOM     38  C   UNL     1     -13.614  48.187  -1.632  0.00  0.00    +0.120 A 
ATOM     39  N   UNL     1     -12.880  47.051  -1.306  0.00  0.00    -0.263 NA
ATOM     40  C   UNL     1     -11.626  47.118  -0.681  0.00  0.00    +0.111 A 
ENDBRANCH   4   3
ENDBRANCH  10   9
BRANCH  12  13
ATOM     13  N   UNL     1     -18.793  56.506   0.562  0.00  0.00    -0.281 N 
ATOM     14  C   UNL     1     -19.297  56.408   1.848  0.00  0.00    +0.248 C 
ATOM     30  O   UNL     1     -18.677  55.959   2.802  0.00  0.00    -0.270 OA
ATOM     31  H   UNL     1     -19.471  56.712  -0.171  0.00  0.00    +0.155 HD
BRANCH  14  15
ATOM     15  C   UNL     1     -20.697  56.859   2.111  0.00  0.00    +0.037 A 
ATOM     16  C   UNL     1     -21.002  58.264   2.395  0.00  0.00    +0.013 A 
ATOM     17  C   UNL     1     -22.360  58.669   2.662  0.00  0.00    +0.005 A 
ATOM     18  C   UNL     1     -23.423  57.668   2.644  0.00  0.00    -0.033 A 
ATOM     28  C   UNL     1     -23.093  56.282   2.354  0.00  0.00    +0.005 A 
ATOM     29  C   UNL     1     -21.764  55.881   2.094  0.00  0.00    +0.013 A 
BRANCH  18  19
ATOM     19  C   UNL     1     -24.896  58.007   2.938  0.00  0.00    +0.119 C 
BRANCH  19  20
ATOM     20  N   UNL     1     -25.863  57.898   1.805  0.00  0.00    -0.302 NA
ATOM     21  C   UNL     1     -26.342  56.459   1.595  0.00  0.00    +0.066 C 
ATOM     22  C   UNL     1     -27.369  56.367   0.420  0.00  0.00    -0.064 C 
ATOM     23  N   UNL     1     -26.730  56.916  -0.856  0.00  0.00    +0.379 N 
ATOM     24  C   UNL     1     -27.673  56.778  -1.976  0.00  0.00    -0.096 C 
ATOM     25  H   UNL     1     -25.838  56.288  -1.085  0.00  0.00    -0.082 HD
ATOM     26  C   UNL     1     -26.248  58.346  -0.656  0.00  0.00    -0.064 C 
ATOM     27  C   UNL     1     -25.251  58.431   0.533  0.00  0.00    +0.066 C 
ENDBRANCH  19  20
ENDBRANCH  18  19
ENDBRANCH  14  15
ENDBRANCH  12  13
TORSDOF 6
ENDMDL
MODEL 3
REMARK VINA RESULT:      -7.5      2.759     12.009
REMARK  Name = C:\Users\Docking\Desktop\test protocol\1iep_ligandH.pdb
REMARK  8 active torsions:
REMARK  status: ('A' for Active; 'I' for Inactive)
REMARK    1  A    between atoms: _5  and  _11
REMARK    2  A    between atoms: _19  and  _21
REMARK    3  A    between atoms: _22  and  _66
REMARK    4  A    between atoms: _27  and  _30
REMARK    5  A    between atoms: _32  and  _33
REMARK    6  A    between atoms: _38  and  _43
REMARK    7  A    between atoms: _43  and  _46
REMARK    8  A    between atoms: _53  and  _55
REMARK                            x       y       z     vdW  Elec       q    Type
REMARK                         _______ _______ _______ _____ _____    ______ ____
ROOT
ATOM     10  C   UNL     1     -15.360  50.016  -4.949  0.00  0.00    +0.038 A 
ATOM     11  C   UNL     1     -15.706  51.194  -4.239  0.00  0.00    +0.047 A 
ATOM     12  C   UNL     1     -15.189  51.447  -2.903  0.00  0.00    +0.035 A 
ATOM     32  C   UNL     1     -14.320  50.479  -2.321  0.00  0.00    +0.024 A 
ATOM     33  C   UNL     1     -13.959  49.275  -3.027  0.00  0.00    +0.007 A 
ATOM     34  C   UNL     1     -14.468  49.019  -4.345  0.00  0.00    -0.029 A 
ATOM     35  C   UNL     1     -14.053  47.709  -5.053  0.00  0.00    +0.045 C 
ENDROOT
BRANCH  10   9
ATOM      4  C   UNL     1     -18.814  48.519  -7.927  0.00  0.00    +0.077 A 
ATOM      5  C   UNL     1     -19.630  48.056  -6.842  0.00  0.00    +0.048 A 
ATOM      6  C   UNL     1     -19.122  48.214  -5.533  0.00  0.00    +0.116 A 
ATOM      7  N   UNL     1     -17.888  48.795  -5.336  0.00  0.00    -0.223 NA
ATOM      8  C   UNL     1     -17.125  49.230  -6.404  0.00  0.00    +0.220 A 
ATOM      9  N   UNL     1     -15.885  49.825  -6.229  0.00  0.00    -0.283 N 
ATOM     36  H   UNL     1     -15.350  50.125  -7.043  0.00  0.00    +0.155 HD
ATOM     37  N   UNL     1     -17.588  49.089  -7.664  0.00  0.00    -0.214 NA
BRANCH   4   3
ATOM      1  C   UNL     1     -20.083  49.420 -11.515  0.00  0.00    +0.020 A 
ATOM      2  C   UNL     1     -19.709  49.565 -10.127  0.00  0.00    +0.013 A 
ATOM      3  C   UNL     1     -19.215  48.425  -9.366  0.00  0.00    +0.019 A 
ATOM     38  C   UNL     1     -19.109  47.142 -10.044  0.00  0.00    +0.120 A 
ATOM     39  N   UNL     1     -19.478  47.032 -11.382  0.00  0.00    -0.263 NA
ATOM     40  C   UNL     1     -19.956  48.122 -12.124  0.00  0.00    +0.111 A 
ENDBRANCH   4   3
ENDBRANCH  10   9
BRANCH  12  13
ATOM     13  N   UNL     1     -15.511  52.621  -2.131  0.00  0.00    -0.281 N 
ATOM     14  C   UNL     1     -14.990  53.898  -2.264  0.00  0.00    +0.248 C 
ATOM     30  O   UNL     1     -14.005  54.176  -2.932  0.00  0.00    -0.270 OA
ATOM     31  H   UNL     1     -16.209  52.497  -1.397  0.00  0.00    +0.155 HD
BRANCH  14  15
ATOM     15  C   UNL     1     -15.649  55.027  -1.540  0.00  0.00    +0.037 A 
ATOM     16  C   UNL     1     -14.919  56.257  -1.225  0.00  0.00    +0.013 A 
ATOM     17  C   UNL     1     -15.574  57.324  -0.510  0.00  0.00    +0.005 A 
ATOM     18  C   UNL     1     -16.969  57.165  -0.106  0.00  0.00    -0.033 A 
ATOM     28  C   UNL     1     -17.671  55.935  -0.437  0.00  0.00    +0.005 A 
ATOM     29  C   UNL     1     -17.032  54.887  -1.136  0.00  0.00    +0.013 A 
BRANCH  18  19
ATOM     19  C   UNL     1     -17.741  58.242   0.678  0.00  0.00    +0.119 C 
BRANCH  19  20
ATOM     20  N   UNL     1     -18.705  57.772   1.717  0.00  0.00    -0.302 NA
ATOM     21  C   UNL     1     -19.949  58.663   1.792  0.00  0.00    +0.066 C 
ATOM     22  C   UNL     1     -20.957  58.144   2.869  0.00  0.00    -0.064 C 
ATOM     23  N   UNL     1     -20.257  58.075   4.227  0.00  0.00    +0.379 N 
ATOM     24  C   UNL     1     -21.218  57.643   5.253  0.00  0.00    -0.096 C 
ATOM     25  H   UNL     1     -19.924  59.107   4.489  0.00  0.00    -0.082 HD
ATOM     26  C   UNL     1     -19.018  57.194   4.161  0.00  0.00    -0.064 C 
ATOM     27  C   UNL     1     -18.036  57.701   3.068  0.00  0.00    +0.066 C 
ENDBRANCH  19  20
ENDBRANCH  18  19
ENDBRANCH  14  15
ENDBRANCH  12  13
TORSDOF 6
ENDMDL
MODEL 4
REMARK VINA RESULT:      -7.4      9.568     13.883
REMARK  Name = C:\Users\Docking\Desktop\test protocol\1iep_ligandH.pdb
REMARK  8 active torsions:
REMARK  status: ('A' for Active; 'I' for Inactive)
REMARK    1  A    between atoms: _5  and  _11
REMARK    2  A    between atoms: _19  and  _21
REMARK    3  A    between atoms: _22  and  _66
REMARK    4  A    between atoms: _27  and  _30
REMARK    5  A    between atoms: _32  and  _33
REMARK    6  A    between atoms: _38  and  _43
REMARK    7  A    between atoms: _43  and  _46
REMARK    8  A    between atoms: _53  and  _55
REMARK                            x       y       z     vdW  Elec       q    Type
REMARK                         _______ _______ _______ _____ _____    ______ ____
ROOT
ATOM     10  C   UNL     1      -6.209  56.898   6.796  0.00  0.00    +0.038 A 
ATOM     11  C   UNL     1      -7.326  56.550   5.994  0.00  0.00    +0.047 A 
ATOM     12  C   UNL     1      -8.621  56.262   6.591  0.00  0.00    +0.035 A 
ATOM     32  C   UNL     1      -8.743  56.339   8.009  0.00  0.00    +0.024 A 
ATOM     33  C   UNL     1      -7.618  56.690   8.840  0.00  0.00    +0.007 A 
ATOM     34  C   UNL     1      -6.338  56.973   8.256  0.00  0.00    -0.029 A 
ATOM     35  C   UNL     1      -5.165  57.337   9.196  0.00  0.00    +0.045 C 
ENDROOT
BRANCH  10   9
ATOM      4  C   UNL     1      -1.739  55.681   5.541  0.00  0.00    +0.077 A 
ATOM      5  C   UNL     1      -1.832  54.417   6.213  0.00  0.00    +0.048 A 
ATOM      6  C   UNL     1      -3.044  54.121   6.875  0.00  0.00    +0.116 A 
ATOM      7  N   UNL     1      -4.080  55.029   6.860  0.00  0.00    -0.223 NA
ATOM      8  C   UNL     1      -3.958  56.240   6.204  0.00  0.00    +0.220 A 
ATOM      9  N   UNL     1      -4.990  57.165   6.169  0.00  0.00    -0.283 N 
ATOM     36  H   UNL     1      -4.858  58.050   5.681  0.00  0.00    +0.155 HD
ATOM     37  N   UNL     1      -2.810  56.547   5.565  0.00  0.00    -0.214 NA
BRANCH   4   3
ATOM      1  C   UNL     1       0.606  57.297   2.860  0.00  0.00    +0.020 A 
ATOM      2  C   UNL     1      -0.597  56.880   3.542  0.00  0.00    +0.013 A 
ATOM      3  C   UNL     1      -0.525  56.137   4.794  0.00  0.00    +0.019 A 
ATOM     38  C   UNL     1       0.791  55.830   5.333  0.00  0.00    +0.120 A 
ATOM     39  N   UNL     1       1.933  56.243   4.654  0.00  0.00    -0.263 NA
ATOM     40  C   UNL     1       1.876  56.957   3.448  0.00  0.00    +0.111 A 
ENDBRANCH   4   3
ENDBRANCH  10   9
BRANCH  12  13
ATOM     13  N   UNL     1      -9.789  55.896   5.828  0.00  0.00    -0.281 N 
ATOM     14  C   UNL     1     -10.889  56.681   5.526  0.00  0.00    +0.248 C 
ATOM     30  O   UNL     1     -11.134  57.758   6.049  0.00  0.00    -0.270 OA
ATOM     31  H   UNL     1      -9.806  54.942   5.467  0.00  0.00    +0.155 HD
BRANCH  14  15
ATOM     15  C   UNL     1     -11.865  56.193   4.505  0.00  0.00    +0.037 A 
ATOM     16  C   UNL     1     -13.111  56.917   4.238  0.00  0.00    +0.013 A 
ATOM     17  C   UNL     1     -14.044  56.416   3.260  0.00  0.00    +0.005 A 
ATOM     18  C   UNL     1     -13.733  55.183   2.540  0.00  0.00    -0.033 A 
ATOM     28  C   UNL     1     -12.487  54.488   2.820  0.00  0.00    +0.005 A 
ATOM     29  C   UNL     1     -11.571  54.976   3.779  0.00  0.00    +0.013 A 
BRANCH  18  19
ATOM     19  C   UNL     1     -14.679  54.563   1.495  0.00  0.00    +0.119 C 
BRANCH  19  20
ATOM     20  N   UNL     1     -14.071  54.097   0.213  0.00  0.00    -0.302 NA
ATOM     21  C   UNL     1     -13.634  55.266  -0.675  0.00  0.00    +0.066 C 
ATOM     22  C   UNL     1     -12.980  54.760  -2.001  0.00  0.00    -0.064 C 
ATOM     23  N   UNL     1     -13.968  53.857  -2.742  0.00  0.00    +0.379 N 
ATOM     24  C   UNL     1     -13.377  53.427  -4.018  0.00  0.00    -0.096 C 
ATOM     25  H   UNL     1     -14.872  54.466  -2.976  0.00  0.00    -0.082 HD
ATOM     26  C   UNL     1     -14.410  52.694  -1.866  0.00  0.00    -0.064 C 
ATOM     27  C   UNL     1     -15.032  53.207  -0.537  0.00  0.00    +0.066 C 
ENDBRANCH  19  20
ENDBRANCH  18  19
ENDBRANCH  14  15
ENDBRANCH  12  13
TORSDOF 6
ENDMDL
MODEL 5
REMARK VINA RESULT:      -7.3      4.492     10.543
REMARK  Name = C:\Users\Docking\Desktop\test protocol\1iep_ligandH.pdb
REMARK  8 active torsions:
REMARK  status: ('A' for Active; 'I' for Inactive)
REMARK    1  A    between atoms: _5  and  _11
REMARK    2  A    between atoms: _19  and  _21
REMARK    3  A    between atoms: _22  and  _66
REMARK    4  A    between atoms: _27  and  _30
REMARK    5  A    between atoms: _32  and  _33
REMARK    6  A    between atoms: _38  and  _43
REMARK    7  A    between atoms: _43  and  _46
REMARK    8  A    between atoms: _53  and  _55
REMARK                            x       y       z     vdW  Elec       q    Type
REMARK                         _______ _______ _______ _____ _____    ______ ____
ROOT
ATOM     10  C   UNL     1     -14.969  53.772  -2.088  0.00  0.00    +0.038 A 
ATOM     11  C   UNL     1     -16.083  54.107  -1.277  0.00  0.00    +0.047 A 
ATOM     12  C   UNL     1     -16.015  55.198  -0.318  0.00  0.00    +0.035 A 
ATOM     32  C   UNL     1     -14.796  55.929  -0.211  0.00  0.00    +0.024 A 
ATOM     33  C   UNL     1     -13.653  55.602  -1.026  0.00  0.00    +0.007 A 
ATOM     34  C   UNL     1     -13.714  54.525  -1.973  0.00  0.00    -0.029 A 
ATOM     35  C   UNL     1     -12.455  54.214  -2.816  0.00  0.00    +0.045 C 
ENDROOT
BRANCH  10   9
ATOM      4  C   UNL     1     -14.494  49.148  -3.283  0.00  0.00    +0.077 A 
ATOM      5  C   UNL     1     -13.933  48.814  -2.005  0.00  0.00    +0.048 A 
ATOM      6  C   UNL     1     -13.777  49.863  -1.071  0.00  0.00    +0.116 A 
ATOM      7  N   UNL     1     -14.157  51.146  -1.401  0.00  0.00    -0.223 NA
ATOM      8  C   UNL     1     -14.693  51.434  -2.643  0.00  0.00    +0.220 A 
ATOM      9  N   UNL     1     -15.089  52.715  -2.993  0.00  0.00    -0.283 N 
ATOM     36  H   UNL     1     -15.474  52.888  -3.921  0.00  0.00    +0.155 HD
ATOM     37  N   UNL     1     -14.851  50.450  -3.552  0.00  0.00    -0.214 NA
BRANCH   4   3
ATOM      1  C   UNL     1     -14.798  45.791  -5.268  0.00  0.00    +0.020 A 
ATOM      2  C   UNL     1     -14.562  46.714  -4.181  0.00  0.00    +0.013 A 
ATOM      3  C   UNL     1     -14.725  48.149  -4.374  0.00  0.00    +0.019 A 
ATOM     38  C   UNL     1     -15.132  48.623  -5.688  0.00  0.00    +0.120 A 
ATOM     39  N   UNL     1     -15.351  47.711  -6.716  0.00  0.00    -0.263 NA
ATOM     40  C   UNL     1     -15.195  46.328  -6.543  0.00  0.00    +0.111 A 
ENDBRANCH   4   3
ENDBRANCH  10   9
BRANCH  12  13
ATOM     13  N   UNL     1     -17.112  55.579   0.538  0.00  0.00    -0.281 N 
ATOM     14  C   UNL     1     -17.854  56.748   0.502  0.00  0.00    +0.248 C 
ATOM     30  O   UNL     1     -17.545  57.743  -0.138  0.00  0.00    -0.270 OA
ATOM     31  H   UNL     1     -17.373  54.904   1.257  0.00  0.00    +0.155 HD
BRANCH  14  15
ATOM     15  C   UNL     1     -19.112  56.831   1.305  0.00  0.00    +0.037 A 
ATOM     16  C   UNL     1     -19.464  58.046   2.043  0.00  0.00    +0.013 A 
ATOM     17  C   UNL     1     -20.675  58.093   2.823  0.00  0.00    +0.005 A 
ATOM     18  C   UNL     1     -21.544  56.919   2.868  0.00  0.00    -0.033 A 
ATOM     28  C   UNL     1     -21.173  55.728   2.122  0.00  0.00    +0.005 A 
ATOM     29  C   UNL     1     -19.986  55.678   1.357  0.00  0.00    +0.013 A 
BRANCH  18  19
ATOM     19  C   UNL     1     -22.844  56.872   3.692  0.00  0.00    +0.119 C 
BRANCH  19  20
ATOM     20  N   UNL     1     -24.131  57.021   2.948  0.00  0.00    -0.302 NA
ATOM     21  C   UNL     1     -24.551  55.719   2.261  0.00  0.00    +0.066 C 
ATOM     22  C   UNL     1     -25.910  55.886   1.506  0.00  0.00    -0.064 C 
ATOM     23  N   UNL     1     -25.788  57.021   0.487  0.00  0.00    +0.379 N 
ATOM     24  C   UNL     1     -27.045  57.143  -0.264  0.00  0.00    -0.096 C 
ATOM     25  H   UNL     1     -24.987  56.741  -0.236  0.00  0.00    -0.082 HD
ATOM     26  C   UNL     1     -25.367  58.319   1.162  0.00  0.00    -0.064 C 
ATOM     27  C   UNL     1     -24.031  58.134   1.934  0.00  0.00    +0.066 C 
ENDBRANCH  19  20
ENDBRANCH  18  19
ENDBRANCH  14  15
ENDBRANCH  12  13
TORSDOF 6
ENDMDL
