MODEL 1
REMARK VINA RESULT:      -8.7      0.000      0.000
REMARK  Name = C:\Users\Docking\Desktop\test protocol\1iep_ligandH.pdb
REMARK  8 active torsions:
REMARK  status: ('A' for Active; 'I' for Inactive)
REMARK    1  A    between atoms: _5  and  _11
REMARK    2  A    between atoms: _19  and  _21
REMARK    3  A    between atoms: _22  and  _66
REMARK    4  A    between atoms: _27  and  _30
REMARK    5  A    between atoms: _32  and  _33
REMARK    6  A    between atoms: _38  and  _43
REMARK    7  A    between atoms: _43  and  _46
REMARK    8  A    between atoms: _53  and  _55
REMARK                            x       y       z     vdW  Elec       q    Type
REMARK                         _______ _______ _______ _____ _____    ______ ____
ROOT
ATOM     10  C   UNL     1      20.020  29.819  22.644  0.00  0.00    +0.038 A 
ATOM     11  C   UNL     1      20.496  29.925  21.312  0.00  0.00    +0.047 A 
ATOM     12  C   UNL     1      19.879  30.839  20.363  0.00  0.00    +0.035 A 
ATOM     32  C   UNL     1      18.781  31.632  20.805  0.00  0.00    +0.024 A 
ATOM     33  C   UNL     1      18.283  31.536  22.155  0.00  0.00    +0.007 A 
ATOM     34  C   UNL     1      18.886  30.634  23.095  0.00  0.00    -0.029 A 
ATOM     35  C   UNL     1      18.307  30.568  24.527  0.00  0.00    +0.045 C 
ENDROOT
BRANCH  10   9
ATOM      4  C   UNL     1      20.179  25.686  25.080  0.00  0.00    +0.077 A 
ATOM      5  C   UNL     1      18.887  25.287  24.603  0.00  0.00    +0.048 A 
ATOM      6  C   UNL     1      18.211  26.176  23.737  0.00  0.00    +0.116 A 
ATOM      7  N   UNL     1      18.794  27.373  23.383  0.00  0.00    -0.223 NA
ATOM      8  C   UNL     1      20.041  27.729  23.863  0.00  0.00    +0.220 A 
ATOM      9  N   UNL     1      20.649  28.925  23.513  0.00  0.00    -0.283 N 
ATOM     36  H   UNL     1      21.567  29.154  23.894  0.00  0.00    +0.155 HD
ATOM     37  N   UNL     1      20.706  26.898  24.691  0.00  0.00    -0.214 NA
BRANCH   4   3
ATOM      1  C   UNL     1      21.346  23.437  28.060  0.00  0.00    +0.020 A 
ATOM      2  C   UNL     1      20.493  24.233  27.208  0.00  0.00    +0.013 A 
ATOM      3  C   UNL     1      21.019  24.854  25.999  0.00  0.00    +0.019 A 
ATOM     38  C   UNL     1      22.423  24.648  25.678  0.00  0.00    +0.120 A 
ATOM     39  N   UNL     1      23.221  23.878  26.518  0.00  0.00    -0.263 NA
ATOM     40  C   UNL     1      22.726  23.277  27.685  0.00  0.00    +0.111 A 
ENDBRANCH   4   3
ENDBRANCH  10   9
BRANCH  12  13
ATOM     13  N   UNL     1      20.314  30.984  18.996  0.00  0.00    -0.281 N 
ATOM     14  C   UNL     1      20.894  32.091  18.399  0.00  0.00    +0.248 C 
ATOM     30  O   UNL     1      20.932  33.205  18.900  0.00  0.00    -0.270 OA
ATOM     31  H   UNL     1      20.178  30.171  18.395  0.00  0.00    +0.155 HD
BRANCH  14  15
ATOM     15  C   UNL     1      21.508  31.943  17.045  0.00  0.00    +0.037 A 
ATOM     16  C   UNL     1      20.879  31.118  16.011  0.00  0.00    +0.013 A 
ATOM     17  C   UNL     1      21.501  30.978  14.718  0.00  0.00    +0.005 A 
ATOM     18  C   UNL     1      22.761  31.668  14.452  0.00  0.00    -0.033 A 
ATOM     28  C   UNL     1      23.361  32.485  15.494  0.00  0.00    +0.005 A 
ATOM     29  C   UNL     1      22.754  32.623  16.762  0.00  0.00    +0.013 A 
BRANCH  18  19
ATOM     19  C   UNL     1      23.506  31.560  13.108  0.00  0.00    +0.119 C 
BRANCH  19  20
ATOM     20  N   UNL     1      23.627  32.803  12.291  0.00  0.00    -0.302 NA
ATOM     21  C   UNL     1      22.286  33.223  11.682  0.00  0.00    +0.066 C 
ATOM     22  C   UNL     1      22.426  34.539  10.849  0.00  0.00    -0.064 C 
ATOM     23  N   UNL     1      23.477  34.337   9.756  0.00  0.00    +0.379 N 
ATOM     24  C   UNL     1      23.570  35.552   8.934  0.00  0.00    -0.096 C 
ATOM     25  H   UNL     1      23.126  33.509   9.097  0.00  0.00    -0.082 HD
ATOM     26  C   UNL     1      24.813  33.917  10.352  0.00  0.00    -0.064 C 
ATOM     27  C   UNL     1      24.657  32.625  11.203  0.00  0.00    +0.066 C 
ENDBRANCH  19  20
ENDBRANCH  18  19
ENDBRANCH  14  15
ENDBRANCH  12  13
TORSDOF 6
ENDMDL
MODEL 2
REMARK VINA RESULT:      -8.4      2.109      2.965
REMARK  Name = C:\Users\Docking\Desktop\test protocol\1iep_ligandH.pdb
REMARK  8 active torsions:
REMARK  status: ('A' for Active; 'I' for Inactive)
REMARK    1  A    between atoms: _5  and  _11
REMARK    2  A    between atoms: _19  and  _21
REMARK    3  A    between atoms: _22  and  _66
REMARK    4  A    between atoms: _27  and  _30
REMARK    5  A    between atoms: _32  and  _33
REMARK    6  A    between atoms: _38  and  _43
REMARK    7  A    between atoms: _43  and  _46
REMARK    8  A    between atoms: _53  and  _55
REMARK                            x       y       z     vdW  Elec       q    Type
REMARK                         _______ _______ _______ _____ _____    ______ ____
ROOT
ATOM     10  C   UNL     1      20.186  30.227  22.387  0.00  0.00    +0.038 A 
ATOM     11  C   UNL     1      20.516  30.219  21.008  0.00  0.00    +0.047 A 
ATOM     12  C   UNL     1      19.902  31.158  20.082  0.00  0.00    +0.035 A 
ATOM     32  C   UNL     1      18.957  32.093  20.595  0.00  0.00    +0.024 A 
ATOM     33  C   UNL     1      18.609  32.114  21.994  0.00  0.00    +0.007 A 
ATOM     34  C   UNL     1      19.210  31.189  22.912  0.00  0.00    -0.029 A 
ATOM     35  C   UNL     1      18.794  31.253  24.400  0.00  0.00    +0.045 C 
ENDROOT
BRANCH  10   9
ATOM      4  C   UNL     1      20.267  26.064  24.775  0.00  0.00    +0.077 A 
ATOM      5  C   UNL     1      18.951  25.712  24.324  0.00  0.00    +0.048 A 
ATOM      6  C   UNL     1      18.285  26.633  23.484  0.00  0.00    +0.116 A 
ATOM      7  N   UNL     1      18.898  27.814  23.129  0.00  0.00    -0.223 NA
ATOM      8  C   UNL     1      20.167  28.124  23.583  0.00  0.00    +0.220 A 
ATOM      9  N   UNL     1      20.806  29.303  23.231  0.00  0.00    -0.283 N 
ATOM     36  H   UNL     1      21.739  29.498  23.593  0.00  0.00    +0.155 HD
ATOM     37  N   UNL     1      20.824  27.262  24.387  0.00  0.00    -0.214 NA
BRANCH   4   3
ATOM      1  C   UNL     1      23.301  24.207  26.401  0.00  0.00    +0.020 A 
ATOM      2  C   UNL     1      22.543  25.061  25.516  0.00  0.00    +0.013 A 
ATOM      3  C   UNL     1      21.100  25.194  25.664  0.00  0.00    +0.019 A 
ATOM     38  C   UNL     1      20.448  24.445  26.728  0.00  0.00    +0.120 A 
ATOM     39  N   UNL     1      21.204  23.629  27.565  0.00  0.00    -0.263 NA
ATOM     40  C   UNL     1      22.593  23.492  27.430  0.00  0.00    +0.111 A 
ENDBRANCH   4   3
ENDBRANCH  10   9
BRANCH  12  13
ATOM     13  N   UNL     1      20.192  31.192  18.670  0.00  0.00    -0.281 N 
ATOM     14  C   UNL     1      20.972  32.107  17.982  0.00  0.00    +0.248 C 
ATOM     30  O   UNL     1      21.366  33.166  18.447  0.00  0.00    -0.270 OA
ATOM     31  H   UNL     1      19.772  30.450  18.109  0.00  0.00    +0.155 HD
BRANCH  14  15
ATOM     15  C   UNL     1      21.356  31.811  16.568  0.00  0.00    +0.037 A 
ATOM     16  C   UNL     1      20.417  31.171  15.644  0.00  0.00    +0.013 A 
ATOM     17  C   UNL     1      20.819  30.881  14.290  0.00  0.00    +0.005 A 
ATOM     18  C   UNL     1      22.168  31.233  13.853  0.00  0.00    -0.033 A 
ATOM     28  C   UNL     1      23.077  31.872  14.789  0.00  0.00    +0.005 A 
ATOM     29  C   UNL     1      22.687  32.157  16.117  0.00  0.00    +0.013 A 
BRANCH  18  19
ATOM     19  C   UNL     1      22.689  30.941  12.433  0.00  0.00    +0.119 C 
BRANCH  19  20
ATOM     20  N   UNL     1      23.116  29.541  12.135  0.00  0.00    -0.302 NA
ATOM     21  C   UNL     1      24.548  29.479  11.598  0.00  0.00    +0.066 C 
ATOM     22  C   UNL     1      24.986  28.005  11.313  0.00  0.00    -0.064 C 
ATOM     23  N   UNL     1      24.008  27.368  10.324  0.00  0.00    +0.379 N 
ATOM     24  C   UNL     1      24.449  26.001  10.010  0.00  0.00    -0.096 C 
ATOM     25  H   UNL     1      24.046  27.961   9.381  0.00  0.00    -0.082 HD
ATOM     26  C   UNL     1      22.580  27.428  10.850  0.00  0.00    -0.064 C 
ATOM     27  C   UNL     1      22.166  28.894  11.158  0.00  0.00    +0.066 C 
ENDBRANCH  19  20
ENDBRANCH  18  19
ENDBRANCH  14  15
ENDBRANCH  12  13
TORSDOF 6
ENDMDL
MODEL 3
REMARK VINA RESULT:      -8.3      4.407     12.904
REMARK  Name = C:\Users\Docking\Desktop\test protocol\1iep_ligandH.pdb
REMARK  8 active torsions:
REMARK  status: ('A' for Active; 'I' for Inactive)
REMARK    1  A    between atoms: _5  and  _11
REMARK    2  A    between atoms: _19  and  _21
REMARK    3  A    between atoms: _22  and  _66
REMARK    4  A    between atoms: _27  and  _30
REMARK    5  A    between atoms: _32  and  _33
REMARK    6  A    between atoms: _38  and  _43
REMARK    7  A    between atoms: _43  and  _46
REMARK    8  A    between atoms: _53  and  _55
REMARK                            x       y       z     vdW  Elec       q    Type
REMARK                         _______ _______ _______ _____ _____    ______ ____
ROOT
ATOM     10  C   UNL     1      22.889  30.452  12.546  0.00  0.00    +0.038 A 
ATOM     11  C   UNL     1      22.170  30.371  13.766  0.00  0.00    +0.047 A 
ATOM     12  C   UNL     1      22.433  31.297  14.857  0.00  0.00    +0.035 A 
ATOM     32  C   UNL     1      23.434  32.295  14.670  0.00  0.00    +0.024 A 
ATOM     33  C   UNL     1      24.175  32.390  13.437  0.00  0.00    +0.007 A 
ATOM     34  C   UNL     1      23.922  31.478  12.358  0.00  0.00    -0.029 A 
ATOM     35  C   UNL     1      24.751  31.623  11.061  0.00  0.00    +0.045 C 
ENDROOT
BRANCH  10   9
ATOM      4  C   UNL     1      23.648  26.321  10.223  0.00  0.00    +0.077 A 
ATOM      5  C   UNL     1      24.738  25.967  11.086  0.00  0.00    +0.048 A 
ATOM      6  C   UNL     1      25.076  26.879  12.111  0.00  0.00    +0.116 A 
ATOM      7  N   UNL     1      24.370  28.053  12.253  0.00  0.00    -0.223 NA
ATOM      8  C   UNL     1      23.325  28.365  11.402  0.00  0.00    +0.220 A 
ATOM      9  N   UNL     1      22.596  29.537  11.532  0.00  0.00    -0.283 N 
ATOM     36  H   UNL     1      21.838  29.734  10.880  0.00  0.00    +0.155 HD
ATOM     37  N   UNL     1      22.983  27.512  10.415  0.00  0.00    -0.214 NA
BRANCH   4   3
ATOM      1  C   UNL     1      23.510  24.234   6.917  0.00  0.00    +0.020 A 
ATOM      2  C   UNL     1      24.021  25.068   7.980  0.00  0.00    +0.013 A 
ATOM      3  C   UNL     1      23.169  25.460   9.096  0.00  0.00    +0.019 A 
ATOM     38  C   UNL     1      21.793  24.986   9.106  0.00  0.00    +0.120 A 
ATOM     39  N   UNL     1      21.327  24.186   8.067  0.00  0.00    -0.263 NA
ATOM     40  C   UNL     1      22.138  23.804   6.988  0.00  0.00    +0.111 A 
ENDBRANCH   4   3
ENDBRANCH  10   9
BRANCH  12  13
ATOM     13  N   UNL     1      21.741  31.259  16.121  0.00  0.00    -0.281 N 
ATOM     14  C   UNL     1      20.401  30.989  16.350  0.00  0.00    +0.248 C 
ATOM     30  O   UNL     1      19.545  30.949  15.479  0.00  0.00    -0.270 OA
ATOM     31  H   UNL     1      22.306  31.454  16.947  0.00  0.00    +0.155 HD
BRANCH  14  15
ATOM     15  C   UNL     1      19.944  30.742  17.752  0.00  0.00    +0.037 A 
ATOM     16  C   UNL     1      18.748  29.943  18.032  0.00  0.00    +0.013 A 
ATOM     17  C   UNL     1      18.320  29.734  19.392  0.00  0.00    +0.005 A 
ATOM     18  C   UNL     1      19.090  30.325  20.484  0.00  0.00    -0.033 A 
ATOM     28  C   UNL     1      20.276  31.109  20.178  0.00  0.00    +0.005 A 
ATOM     29  C   UNL     1      20.698  31.316  18.846  0.00  0.00    +0.013 A 
BRANCH  18  19
ATOM     19  C   UNL     1      18.695  30.172  21.965  0.00  0.00    +0.119 C 
BRANCH  19  20
ATOM     20  N   UNL     1      18.752  28.799  22.549  0.00  0.00    -0.302 NA
ATOM     21  C   UNL     1      18.350  28.786  24.027  0.00  0.00    +0.066 C 
ATOM     22  C   UNL     1      18.394  27.339  24.616  0.00  0.00    -0.064 C 
ATOM     23  N   UNL     1      19.798  26.759  24.432  0.00  0.00    +0.379 N 
ATOM     24  C   UNL     1      19.859  25.420  25.037  0.00  0.00    -0.096 C 
ATOM     25  H   UNL     1      20.509  27.414  24.987  0.00  0.00    -0.082 HD
ATOM     26  C   UNL     1      20.207  26.770  22.966  0.00  0.00    -0.064 C 
ATOM     27  C   UNL     1      20.131  28.209  22.382  0.00  0.00    +0.066 C 
ENDBRANCH  19  20
ENDBRANCH  18  19
ENDBRANCH  14  15
ENDBRANCH  12  13
TORSDOF 6
ENDMDL
MODEL 4
REMARK VINA RESULT:      -8.1     10.031     15.527
REMARK  Name = C:\Users\Docking\Desktop\test protocol\1iep_ligandH.pdb
REMARK  8 active torsions:
REMARK  status: ('A' for Active; 'I' for Inactive)
REMARK    1  A    between atoms: _5  and  _11
REMARK    2  A    between atoms: _19  and  _21
REMARK    3  A    between atoms: _22  and  _66
REMARK    4  A    between atoms: _27  and  _30
REMARK    5  A    between atoms: _32  and  _33
REMARK    6  A    between atoms: _38  and  _43
REMARK    7  A    between atoms: _43  and  _46
REMARK    8  A    between atoms: _53  and  _55
REMARK                            x       y       z     vdW  Elec       q    Type
REMARK                         _______ _______ _______ _____ _____    ______ ____
ROOT
ATOM     10  C   UNL     1      23.383  28.467  10.560  0.00  0.00    +0.038 A 
ATOM     11  C   UNL     1      23.787  27.662   9.464  0.00  0.00    +0.047 A 
ATOM     12  C   UNL     1      24.302  26.317   9.667  0.00  0.00    +0.035 A 
ATOM     32  C   UNL     1      24.389  25.821  11.001  0.00  0.00    +0.024 A 
ATOM     33  C   UNL     1      23.983  26.626  12.127  0.00  0.00    +0.007 A 
ATOM     34  C   UNL     1      23.478  27.955  11.932  0.00  0.00    -0.029 A 
ATOM     35  C   UNL     1      23.064  28.775  13.176  0.00  0.00    +0.045 C 
ENDROOT
BRANCH  10   9
ATOM      4  C   UNL     1      23.934  33.228  10.308  0.00  0.00    +0.077 A 
ATOM      5  C   UNL     1      25.299  33.152  10.743  0.00  0.00    +0.048 A 
ATOM      6  C   UNL     1      25.819  31.870  11.028  0.00  0.00    +0.116 A 
ATOM      7  N   UNL     1      25.024  30.753  10.885  0.00  0.00    -0.223 NA
ATOM      8  C   UNL     1      23.711  30.861  10.465  0.00  0.00    +0.220 A 
ATOM      9  N   UNL     1      22.897  29.751  10.306  0.00  0.00    -0.283 N 
ATOM     36  H   UNL     1      21.931  29.873  10.002  0.00  0.00    +0.155 HD
ATOM     37  N   UNL     1      23.191  32.075  10.187  0.00  0.00    -0.214 NA
BRANCH   4   3
ATOM      1  C   UNL     1      23.096  36.717   8.750  0.00  0.00    +0.020 A 
ATOM      2  C   UNL     1      23.805  35.494   9.047  0.00  0.00    +0.013 A 
ATOM      3  C   UNL     1      23.242  34.511   9.965  0.00  0.00    +0.019 A 
ATOM     38  C   UNL     1      21.949  34.797  10.568  0.00  0.00    +0.120 A 
ATOM     39  N   UNL     1      21.290  35.984  10.264  0.00  0.00    -0.263 NA
ATOM     40  C   UNL     1      21.823  36.938   9.384  0.00  0.00    +0.111 A 
ENDBRANCH   4   3
ENDBRANCH  10   9
BRANCH  12  13
ATOM     13  N   UNL     1      24.734  25.456   8.594  0.00  0.00    -0.281 N 
ATOM     14  C   UNL     1      23.974  24.557   7.864  0.00  0.00    +0.248 C 
ATOM     30  O   UNL     1      22.846  24.199   8.168  0.00  0.00    -0.270 OA
ATOM     31  H   UNL     1      25.721  25.518   8.342  0.00  0.00    +0.155 HD
BRANCH  14  15
ATOM     15  C   UNL     1      24.557  23.957   6.626  0.00  0.00    +0.037 A 
ATOM     16  C   UNL     1      25.282  22.685   6.666  0.00  0.00    +0.013 A 
ATOM     17  C   UNL     1      25.849  22.137   5.459  0.00  0.00    +0.005 A 
ATOM     18  C   UNL     1      25.692  22.862   4.200  0.00  0.00    -0.033 A 
ATOM     28  C   UNL     1      24.963  24.120   4.188  0.00  0.00    +0.005 A 
ATOM     29  C   UNL     1      24.407  24.660   5.369  0.00  0.00    +0.013 A 
BRANCH  18  19
ATOM     19  C   UNL     1      26.282  22.363   2.868  0.00  0.00    +0.119 C 
BRANCH  19  20
ATOM     20  N   UNL     1      27.600  22.927   2.450  0.00  0.00    -0.302 NA
ATOM     21  C   UNL     1      27.486  23.770   1.177  0.00  0.00    +0.066 C 
ATOM     22  C   UNL     1      28.870  24.371   0.766  0.00  0.00    -0.064 C 
ATOM     23  N   UNL     1      29.880  23.237   0.577  0.00  0.00    +0.379 N 
ATOM     24  C   UNL     1      31.166  23.794   0.135  0.00  0.00    -0.096 C 
ATOM     25  H   UNL     1      29.498  22.578  -0.237  0.00  0.00    -0.082 HD
ATOM     26  C   UNL     1      29.997  22.392   1.838  0.00  0.00    -0.064 C 
ATOM     27  C   UNL     1      28.611  21.824   2.254  0.00  0.00    +0.066 C 
ENDBRANCH  19  20
ENDBRANCH  18  19
ENDBRANCH  14  15
ENDBRANCH  12  13
TORSDOF 6
ENDMDL
MODEL 5
REMARK VINA RESULT:      -8.1      1.826     13.032
REMARK  Name = C:\Users\Docking\Desktop\test protocol\1iep_ligandH.pdb
REMARK  8 active torsions:
REMARK  status: ('A' for Active; 'I' for Inactive)
REMARK    1  A    between atoms: _5  and  _11
REMARK    2  A    between atoms: _19  and  _21
REMARK    3  A    between atoms: _22  and  _66
REMARK    4  A    between atoms: _27  and  _30
REMARK    5  A    between atoms: _32  and  _33
REMARK    6  A    between atoms: _38  and  _43
REMARK    7  A    between atoms: _43  and  _46
REMARK    8  A    between atoms: _53  and  _55
REMARK                            x       y       z     vdW  Elec       q    Type
REMARK                         _______ _______ _______ _____ _____    ______ ____
ROOT
ATOM     10  C   UNL     1      20.851  32.758  17.611  0.00  0.00    +0.038 A 
ATOM     11  C   UNL     1      21.031  31.724  18.564  0.00  0.00    +0.047 A 
ATOM     12  C   UNL     1      20.069  31.511  19.634  0.00  0.00    +0.035 A 
ATOM     32  C   UNL     1      18.933  32.369  19.702  0.00  0.00    +0.024 A 
ATOM     33  C   UNL     1      18.735  33.426  18.742  0.00  0.00    +0.007 A 
ATOM     34  C   UNL     1      19.682  33.643  17.686  0.00  0.00    -0.029 A 
ATOM     35  C   UNL     1      19.422  34.796  16.689  0.00  0.00    +0.045 C 
ENDROOT
BRANCH  10   9
ATOM      4  C   UNL     1      22.703  31.661  13.321  0.00  0.00    +0.077 A 
ATOM      5  C   UNL     1      21.698  30.668  13.075  0.00  0.00    +0.048 A 
ATOM      6  C   UNL     1      20.727  30.465  14.081  0.00  0.00    +0.116 A 
ATOM      7  N   UNL     1      20.767  31.206  15.242  0.00  0.00    -0.223 NA
ATOM      8  C   UNL     1      21.751  32.155  15.448  0.00  0.00    +0.220 A 
ATOM      9  N   UNL     1      21.806  32.918  16.605  0.00  0.00    -0.283 N 
ATOM     36  H   UNL     1      22.553  33.603  16.722  0.00  0.00    +0.155 HD
ATOM     37  N   UNL     1      22.691  32.367  14.503  0.00  0.00    -0.214 NA
BRANCH   4   3
ATOM      1  C   UNL     1      25.960  31.483  11.162  0.00  0.00    +0.020 A 
ATOM      2  C   UNL     1      24.932  31.115  12.108  0.00  0.00    +0.013 A 
ATOM      3  C   UNL     1      23.795  31.994  12.353  0.00  0.00    +0.019 A 
ATOM     38  C   UNL     1      23.727  33.247  11.617  0.00  0.00    +0.120 A 
ATOM     39  N   UNL     1      24.733  33.576  10.713  0.00  0.00    -0.263 NA
ATOM     40  C   UNL     1      25.832  32.739  10.470  0.00  0.00    +0.111 A 
ENDBRANCH   4   3
ENDBRANCH  10   9
BRANCH  12  13
ATOM     13  N   UNL     1      20.203  30.482  20.636  0.00  0.00    -0.281 N 
ATOM     14  C   UNL     1      19.864  30.550  21.977  0.00  0.00    +0.248 C 
ATOM     30  O   UNL     1      19.591  31.583  22.570  0.00  0.00    -0.270 OA
ATOM     31  H   UNL     1      20.594  29.595  20.316  0.00  0.00    +0.155 HD
BRANCH  14  15
ATOM     15  C   UNL     1      19.839  29.289  22.780  0.00  0.00    +0.037 A 
ATOM     16  C   UNL     1      19.414  29.290  24.182  0.00  0.00    +0.013 A 
ATOM     17  C   UNL     1      19.416  28.063  24.939  0.00  0.00    +0.005 A 
ATOM     18  C   UNL     1      19.843  26.824  24.294  0.00  0.00    -0.033 A 
ATOM     28  C   UNL     1      20.254  26.851  22.900  0.00  0.00    +0.005 A 
ATOM     29  C   UNL     1      20.255  28.052  22.155  0.00  0.00    +0.013 A 
BRANCH  18  19
ATOM     19  C   UNL     1      19.896  25.473  25.031  0.00  0.00    +0.119 C 
BRANCH  19  20
ATOM     20  N   UNL     1      20.930  25.316  26.097  0.00  0.00    -0.302 NA
ATOM     21  C   UNL     1      22.318  25.035  25.516  0.00  0.00    +0.066 C 
ATOM     22  C   UNL     1      23.390  24.896  26.645  0.00  0.00    -0.064 C 
ATOM     23  N   UNL     1      22.972  23.784  27.609  0.00  0.00    +0.379 N 
ATOM     24  C   UNL     1      24.006  23.612  28.639  0.00  0.00    -0.096 C 
ATOM     25  H   UNL     1      22.913  22.836  27.026  0.00  0.00    -0.082 HD
ATOM     26  C   UNL     1      21.591  24.055  28.190  0.00  0.00    -0.064 C 
ATOM     27  C   UNL     1      20.538  24.220  27.058  0.00  0.00    +0.066 C 
ENDBRANCH  19  20
ENDBRANCH  18  19
ENDBRANCH  14  15
ENDBRANCH  12  13
TORSDOF 6
ENDMDL
