MODEL 1
REMARK VINA RESULT:      -8.1      0.000      0.000
REMARK  Name = C:\Users\Docking\Desktop\test protocol\1iep_ligandH.pdb
REMARK  8 active torsions:
REMARK  status: ('A' for Active; 'I' for Inactive)
REMARK    1  A    between atoms: _5  and  _11
REMARK    2  A    between atoms: _19  and  _21
REMARK    3  A    between atoms: _22  and  _66
REMARK    4  A    between atoms: _27  and  _30
REMARK    5  A    between atoms: _32  and  _33
REMARK    6  A    between atoms: _38  and  _43
REMARK    7  A    between atoms: _43  and  _46
REMARK    8  A    between atoms: _53  and  _55
REMARK                            x       y       z     vdW  Elec       q    Type
REMARK                         _______ _______ _______ _____ _____    ______ ____
ROOT
ATOM     10  C   UNL     1      20.450  30.463  21.935  0.00  0.00    +0.038 A 
ATOM     11  C   UNL     1      20.820  30.440  20.567  0.00  0.00    +0.047 A 
ATOM     12  C   UNL     1      20.257  31.389  19.618  0.00  0.00    +0.035 A 
ATOM     32  C   UNL     1      19.320  32.350  20.100  0.00  0.00    +0.024 A 
ATOM     33  C   UNL     1      18.932  32.387  21.488  0.00  0.00    +0.007 A 
ATOM     34  C   UNL     1      19.482  31.452  22.427  0.00  0.00    -0.029 A 
ATOM     35  C   UNL     1      19.025  31.534  23.902  0.00  0.00    +0.045 C 
ENDROOT
BRANCH  10   9
ATOM      4  C   UNL     1      20.309  26.370  24.438  0.00  0.00    +0.077 A 
ATOM      5  C   UNL     1      18.973  26.082  24.004  0.00  0.00    +0.048 A 
ATOM      6  C   UNL     1      18.354  27.015  23.143  0.00  0.00    +0.116 A 
ATOM      7  N   UNL     1      19.032  28.150  22.751  0.00  0.00    -0.223 NA
ATOM      8  C   UNL     1      20.319  28.399  23.190  0.00  0.00    +0.220 A 
ATOM      9  N   UNL     1      21.022  29.529  22.802  0.00  0.00    -0.283 N 
ATOM     36  H   UNL     1      21.967  29.681  23.153  0.00  0.00    +0.155 HD
ATOM     37  N   UNL     1      20.931  27.523  24.014  0.00  0.00    -0.214 NA
BRANCH   4   3
ATOM      1  C   UNL     1      23.224  24.314  26.045  0.00  0.00    +0.020 A 
ATOM      2  C   UNL     1      22.508  25.181  25.137  0.00  0.00    +0.013 A 
ATOM      3  C   UNL     1      21.097  25.479  25.347  0.00  0.00    +0.019 A 
ATOM     38  C   UNL     1      20.434  24.879  26.495  0.00  0.00    +0.120 A 
ATOM     39  N   UNL     1      21.148  24.046  27.351  0.00  0.00    -0.263 NA
ATOM     40  C   UNL     1      22.506  23.751  27.158  0.00  0.00    +0.111 A 
ENDBRANCH   4   3
ENDBRANCH  10   9
BRANCH  12  13
ATOM     13  N   UNL     1      20.589  31.408  18.215  0.00  0.00    -0.281 N 
ATOM     14  C   UNL     1      21.395  32.312  17.543  0.00  0.00    +0.248 C 
ATOM     30  O   UNL     1      21.783  33.372  18.011  0.00  0.00    -0.270 OA
ATOM     31  H   UNL     1      20.180  30.665  17.649  0.00  0.00    +0.155 HD
BRANCH  14  15
ATOM     15  C   UNL     1      21.819  32.000  16.144  0.00  0.00    +0.037 A 
ATOM     16  C   UNL     1      20.999  31.154  15.272  0.00  0.00    +0.013 A 
ATOM     17  C   UNL     1      21.440  30.856  13.933  0.00  0.00    +0.005 A 
ATOM     18  C   UNL     1      22.707  31.405  13.456  0.00  0.00    -0.033 A 
ATOM     28  C   UNL     1      23.497  32.245  14.341  0.00  0.00    +0.005 A 
ATOM     29  C   UNL     1      23.069  32.540  15.654  0.00  0.00    +0.013 A 
BRANCH  18  19
ATOM     19  C   UNL     1      23.265  31.121  12.049  0.00  0.00    +0.119 C 
BRANCH  19  20
ATOM     20  N   UNL     1      23.238  32.243  11.064  0.00  0.00    -0.302 NA
ATOM     21  C   UNL     1      21.881  32.950  11.035  0.00  0.00    +0.066 C 
ATOM     22  C   UNL     1      21.877  34.135  10.016  0.00  0.00    -0.064 C 
ATOM     23  N   UNL     1      22.244  33.610   8.626  0.00  0.00    +0.379 N 
ATOM     24  C   UNL     1      22.185  34.711   7.654  0.00  0.00    -0.096 C 
ATOM     25  H   UNL     1      21.472  32.859   8.335  0.00  0.00    -0.082 HD
ATOM     26  C   UNL     1      23.591  32.902   8.646  0.00  0.00    -0.064 C 
ATOM     27  C   UNL     1      23.593  31.745   9.684  0.00  0.00    +0.066 C 
ENDBRANCH  19  20
ENDBRANCH  18  19
ENDBRANCH  14  15
ENDBRANCH  12  13
TORSDOF 6
ENDMDL
MODEL 2
REMARK VINA RESULT:      -7.8      1.996      2.826
REMARK  Name = C:\Users\Docking\Desktop\test protocol\1iep_ligandH.pdb
REMARK  8 active torsions:
REMARK  status: ('A' for Active; 'I' for Inactive)
REMARK    1  A    between atoms: _5  and  _11
REMARK    2  A    between atoms: _19  and  _21
REMARK    3  A    between atoms: _22  and  _66
REMARK    4  A    between atoms: _27  and  _30
REMARK    5  A    between atoms: _32  and  _33
REMARK    6  A    between atoms: _38  and  _43
REMARK    7  A    between atoms: _43  and  _46
REMARK    8  A    between atoms: _53  and  _55
REMARK                            x       y       z     vdW  Elec       q    Type
REMARK                         _______ _______ _______ _____ _____    ______ ____
ROOT
ATOM     10  C   UNL     1      20.157  29.990  22.266  0.00  0.00    +0.038 A 
ATOM     11  C   UNL     1      20.537  29.877  20.904  0.00  0.00    +0.047 A 
ATOM     12  C   UNL     1      19.924  30.708  19.880  0.00  0.00    +0.035 A 
ATOM     32  C   UNL     1      18.928  31.646  20.278  0.00  0.00    +0.024 A 
ATOM     33  C   UNL     1      18.529  31.774  21.658  0.00  0.00    +0.007 A 
ATOM     34  C   UNL     1      19.129  30.955  22.672  0.00  0.00    -0.029 A 
ATOM     35  C   UNL     1      18.658  31.131  24.134  0.00  0.00    +0.045 C 
ENDROOT
BRANCH  10   9
ATOM      4  C   UNL     1      20.341  26.013  24.946  0.00  0.00    +0.077 A 
ATOM      5  C   UNL     1      19.079  25.548  24.449  0.00  0.00    +0.048 A 
ATOM      6  C   UNL     1      18.411  26.366  23.509  0.00  0.00    +0.116 A 
ATOM      7  N   UNL     1      18.973  27.557  23.105  0.00  0.00    -0.223 NA
ATOM      8  C   UNL     1      20.191  27.977  23.606  0.00  0.00    +0.220 A 
ATOM      9  N   UNL     1      20.779  29.167  23.207  0.00  0.00    -0.283 N 
ATOM     36  H   UNL     1      21.676  29.445  23.606  0.00  0.00    +0.155 HD
ATOM     37  N   UNL     1      20.849  27.215  24.505  0.00  0.00    -0.214 NA
BRANCH   4   3
ATOM      1  C   UNL     1      23.377  24.471  26.871  0.00  0.00    +0.020 A 
ATOM      2  C   UNL     1      22.625  25.212  25.885  0.00  0.00    +0.013 A 
ATOM      3  C   UNL     1      21.169  25.260  25.941  0.00  0.00    +0.019 A 
ATOM     38  C   UNL     1      20.500  24.542  27.015  0.00  0.00    +0.120 A 
ATOM     39  N   UNL     1      21.251  23.835  27.949  0.00  0.00    -0.263 NA
ATOM     40  C   UNL     1      22.652  23.780  27.905  0.00  0.00    +0.111 A 
ENDBRANCH   4   3
ENDBRANCH  10   9
BRANCH  12  13
ATOM     13  N   UNL     1      20.264  30.631  18.480  0.00  0.00    -0.281 N 
ATOM     14  C   UNL     1      19.417  30.392  17.410  0.00  0.00    +0.248 C 
ATOM     30  O   UNL     1      18.266  29.993  17.515  0.00  0.00    -0.270 OA
ATOM     31  H   UNL     1      21.248  30.770  18.251  0.00  0.00    +0.155 HD
BRANCH  14  15
ATOM     15  C   UNL     1      19.926  30.614  16.023  0.00  0.00    +0.037 A 
ATOM     16  C   UNL     1      19.255  30.021  14.863  0.00  0.00    +0.013 A 
ATOM     17  C   UNL     1      19.777  30.237  13.537  0.00  0.00    +0.005 A 
ATOM     18  C   UNL     1      20.977  31.051  13.364  0.00  0.00    -0.033 A 
ATOM     28  C   UNL     1      21.620  31.632  14.531  0.00  0.00    +0.005 A 
ATOM     29  C   UNL     1      21.112  31.422  15.832  0.00  0.00    +0.013 A 
BRANCH  18  19
ATOM     19  C   UNL     1      21.616  31.317  11.988  0.00  0.00    +0.119 C 
BRANCH  19  20
ATOM     20  N   UNL     1      22.675  30.368  11.531  0.00  0.00    -0.302 NA
ATOM     21  C   UNL     1      22.187  28.916  11.536  0.00  0.00    +0.066 C 
ATOM     22  C   UNL     1      23.300  27.940  11.034  0.00  0.00    -0.064 C 
ATOM     23  N   UNL     1      24.544  28.096  11.910  0.00  0.00    +0.379 N 
ATOM     24  C   UNL     1      25.572  27.138  11.477  0.00  0.00    -0.096 C 
ATOM     25  H   UNL     1      24.257  27.835  12.955  0.00  0.00    -0.082 HD
ATOM     26  C   UNL     1      25.035  29.537  11.912  0.00  0.00    -0.064 C 
ATOM     27  C   UNL     1      23.912  30.502  12.384  0.00  0.00    +0.066 C 
ENDBRANCH  19  20
ENDBRANCH  18  19
ENDBRANCH  14  15
ENDBRANCH  12  13
TORSDOF 6
ENDMDL
MODEL 3
REMARK VINA RESULT:      -7.6     23.863     26.257
REMARK  Name = C:\Users\Docking\Desktop\test protocol\1iep_ligandH.pdb
REMARK  8 active torsions:
REMARK  status: ('A' for Active; 'I' for Inactive)
REMARK    1  A    between atoms: _5  and  _11
REMARK    2  A    between atoms: _19  and  _21
REMARK    3  A    between atoms: _22  and  _66
REMARK    4  A    between atoms: _27  and  _30
REMARK    5  A    between atoms: _32  and  _33
REMARK    6  A    between atoms: _38  and  _43
REMARK    7  A    between atoms: _43  and  _46
REMARK    8  A    between atoms: _53  and  _55
REMARK                            x       y       z     vdW  Elec       q    Type
REMARK                         _______ _______ _______ _____ _____    ______ ____
ROOT
ATOM     10  C   UNL     1      44.622  20.333  11.170  0.00  0.00    +0.038 A 
ATOM     11  C   UNL     1      43.821  20.600  10.031  0.00  0.00    +0.047 A 
ATOM     12  C   UNL     1      43.968  19.824   8.809  0.00  0.00    +0.035 A 
ATOM     32  C   UNL     1      44.940  18.781   8.784  0.00  0.00    +0.024 A 
ATOM     33  C   UNL     1      45.763  18.497   9.933  0.00  0.00    +0.007 A 
ATOM     34  C   UNL     1      45.625  19.261  11.140  0.00  0.00    -0.029 A 
ATOM     35  C   UNL     1      46.539  18.917  12.339  0.00  0.00    +0.045 C 
ENDROOT
BRANCH  10   9
ATOM      4  C   UNL     1      45.365  24.311  13.752  0.00  0.00    +0.077 A 
ATOM      5  C   UNL     1      46.212  24.879  12.743  0.00  0.00    +0.048 A 
ATOM      6  C   UNL     1      46.437  24.112  11.578  0.00  0.00    +0.116 A 
ATOM      7  N   UNL     1      45.853  22.871  11.442  0.00  0.00    -0.223 NA
ATOM      8  C   UNL     1      45.043  22.352  12.435  0.00  0.00    +0.220 A 
ATOM      9  N   UNL     1      44.439  21.110  12.317  0.00  0.00    -0.283 N 
ATOM     36  H   UNL     1      43.854  20.759  13.075  0.00  0.00    +0.155 HD
ATOM     37  N   UNL     1      44.814  23.064  13.558  0.00  0.00    -0.214 NA
BRANCH   4   3
ATOM      1  C   UNL     1      43.773  26.718  16.393  0.00  0.00    +0.020 A 
ATOM      2  C   UNL     1      44.061  26.086  15.126  0.00  0.00    +0.013 A 
ATOM      3  C   UNL     1      45.030  25.000  15.038  0.00  0.00    +0.019 A 
ATOM     38  C   UNL     1      45.694  24.574  16.260  0.00  0.00    +0.120 A 
ATOM     39  N   UNL     1      45.398  25.203  17.466  0.00  0.00    -0.263 NA
ATOM     40  C   UNL     1      44.468  26.249  17.562  0.00  0.00    +0.111 A 
ENDBRANCH   4   3
ENDBRANCH  10   9
BRANCH  12  13
ATOM     13  N   UNL     1      43.189  20.054   7.618  0.00  0.00    -0.281 N 
ATOM     14  C   UNL     1      42.456  21.181   7.285  0.00  0.00    +0.248 C 
ATOM     30  O   UNL     1      42.185  22.084   8.062  0.00  0.00    -0.270 OA
ATOM     31  H   UNL     1      43.176  19.293   6.939  0.00  0.00    +0.155 HD
BRANCH  14  15
ATOM     15  C   UNL     1      41.937  21.318   5.890  0.00  0.00    +0.037 A 
ATOM     16  C   UNL     1      42.510  20.543   4.786  0.00  0.00    +0.013 A 
ATOM     17  C   UNL     1      42.001  20.706   3.447  0.00  0.00    +0.005 A 
ATOM     18  C   UNL     1      40.912  21.650   3.205  0.00  0.00    -0.033 A 
ATOM     28  C   UNL     1      40.360  22.402   4.319  0.00  0.00    +0.005 A 
ATOM     29  C   UNL     1      40.856  22.245   5.632  0.00  0.00    +0.013 A 
BRANCH  18  19
ATOM     19  C   UNL     1      40.322  21.904   1.805  0.00  0.00    +0.119 C 
BRANCH  19  20
ATOM     20  N   UNL     1      40.723  23.165   1.113  0.00  0.00    -0.302 NA
ATOM     21  C   UNL     1      39.917  23.398  -0.168  0.00  0.00    +0.066 C 
ATOM     22  C   UNL     1      40.333  24.734  -0.867  0.00  0.00    -0.064 C 
ATOM     23  N   UNL     1      41.833  24.703  -1.168  0.00  0.00    +0.379 N 
ATOM     24  C   UNL     1      42.216  25.932  -1.877  0.00  0.00    -0.096 C 
ATOM     25  H   UNL     1      42.022  23.844  -1.853  0.00  0.00    -0.082 HD
ATOM     26  C   UNL     1      42.641  24.469   0.101  0.00  0.00    -0.064 C 
ATOM     27  C   UNL     1      42.199  23.155   0.803  0.00  0.00    +0.066 C 
ENDBRANCH  19  20
ENDBRANCH  18  19
ENDBRANCH  14  15
ENDBRANCH  12  13
TORSDOF 6
ENDMDL
MODEL 4
REMARK VINA RESULT:      -7.5      2.098     12.713
REMARK  Name = C:\Users\Docking\Desktop\test protocol\1iep_ligandH.pdb
REMARK  8 active torsions:
REMARK  status: ('A' for Active; 'I' for Inactive)
REMARK    1  A    between atoms: _5  and  _11
REMARK    2  A    between atoms: _19  and  _21
REMARK    3  A    between atoms: _22  and  _66
REMARK    4  A    between atoms: _27  and  _30
REMARK    5  A    between atoms: _32  and  _33
REMARK    6  A    between atoms: _38  and  _43
REMARK    7  A    between atoms: _43  and  _46
REMARK    8  A    between atoms: _53  and  _55
REMARK                            x       y       z     vdW  Elec       q    Type
REMARK                         _______ _______ _______ _____ _____    ______ ____
ROOT
ATOM     10  C   UNL     1      21.110  33.096  18.209  0.00  0.00    +0.038 A 
ATOM     11  C   UNL     1      21.047  32.025  19.137  0.00  0.00    +0.047 A 
ATOM     12  C   UNL     1      20.087  32.032  20.230  0.00  0.00    +0.035 A 
ATOM     32  C   UNL     1      19.204  33.145  20.346  0.00  0.00    +0.024 A 
ATOM     33  C   UNL     1      19.255  34.242  19.413  0.00  0.00    +0.007 A 
ATOM     34  C   UNL     1      20.201  34.242  18.334  0.00  0.00    -0.029 A 
ATOM     35  C   UNL     1      20.216  35.448  17.367  0.00  0.00    +0.045 C 
ENDROOT
BRANCH  10   9
ATOM      4  C   UNL     1      22.500  31.748  13.817  0.00  0.00    +0.077 A 
ATOM      5  C   UNL     1      21.256  31.080  13.564  0.00  0.00    +0.048 A 
ATOM      6  C   UNL     1      20.287  31.101  14.592  0.00  0.00    +0.116 A 
ATOM      7  N   UNL     1      20.554  31.745  15.781  0.00  0.00    -0.223 NA
ATOM      8  C   UNL     1      21.765  32.377  15.994  0.00  0.00    +0.220 A 
ATOM      9  N   UNL     1      22.051  33.037  17.179  0.00  0.00    -0.283 N 
ATOM     36  H   UNL     1      22.959  33.485  17.300  0.00  0.00    +0.155 HD
ATOM     37  N   UNL     1      22.707  32.370  15.028  0.00  0.00    -0.214 NA
BRANCH   4   3
ATOM      1  C   UNL     1      25.972  31.298  12.073  0.00  0.00    +0.020 A 
ATOM      2  C   UNL     1      24.923  31.203  13.061  0.00  0.00    +0.013 A 
ATOM      3  C   UNL     1      23.621  31.816  12.828  0.00  0.00    +0.019 A 
ATOM     38  C   UNL     1      23.412  32.523  11.573  0.00  0.00    +0.120 A 
ATOM     39  N   UNL     1      24.442  32.599  10.640  0.00  0.00    -0.263 NA
ATOM     40  C   UNL     1      25.699  32.014  10.855  0.00  0.00    +0.111 A 
ENDBRANCH   4   3
ENDBRANCH  10   9
BRANCH  12  13
ATOM     13  N   UNL     1      19.982  30.977  21.207  0.00  0.00    -0.281 N 
ATOM     14  C   UNL     1      19.043  29.960  21.265  0.00  0.00    +0.248 C 
ATOM     30  O   UNL     1      18.017  29.928  20.602  0.00  0.00    -0.270 OA
ATOM     31  H   UNL     1      20.685  30.980  21.946  0.00  0.00    +0.155 HD
BRANCH  14  15
ATOM     15  C   UNL     1      19.269  28.821  22.206  0.00  0.00    +0.037 A 
ATOM     16  C   UNL     1      20.256  27.778  21.914  0.00  0.00    +0.013 A 
ATOM     17  C   UNL     1      20.442  26.682  22.831  0.00  0.00    +0.005 A 
ATOM     18  C   UNL     1      19.640  26.624  24.051  0.00  0.00    -0.033 A 
ATOM     28  C   UNL     1      18.672  27.675  24.318  0.00  0.00    +0.005 A 
ATOM     29  C   UNL     1      18.486  28.750  23.422  0.00  0.00    +0.013 A 
BRANCH  18  19
ATOM     19  C   UNL     1      19.757  25.479  25.075  0.00  0.00    +0.119 C 
BRANCH  19  20
ATOM     20  N   UNL     1      20.975  25.456  25.938  0.00  0.00    -0.302 NA
ATOM     21  C   UNL     1      22.195  24.905  25.195  0.00  0.00    +0.066 C 
ATOM     22  C   UNL     1      23.466  24.909  26.106  0.00  0.00    -0.064 C 
ATOM     23  N   UNL     1      23.187  24.093  27.369  0.00  0.00    +0.379 N 
ATOM     24  C   UNL     1      24.398  24.047  28.201  0.00  0.00    -0.096 C 
ATOM     25  H   UNL     1      22.953  23.050  27.053  0.00  0.00    -0.082 HD
ATOM     26  C   UNL     1      21.973  24.633  28.113  0.00  0.00    -0.064 C 
ATOM     27  C   UNL     1      20.723  24.652  27.190  0.00  0.00    +0.066 C 
ENDBRANCH  19  20
ENDBRANCH  18  19
ENDBRANCH  14  15
ENDBRANCH  12  13
TORSDOF 6
ENDMDL
MODEL 5
REMARK VINA RESULT:      -7.5     23.392     25.727
REMARK  Name = C:\Users\Docking\Desktop\test protocol\1iep_ligandH.pdb
REMARK  8 active torsions:
REMARK  status: ('A' for Active; 'I' for Inactive)
REMARK    1  A    between atoms: _5  and  _11
REMARK    2  A    between atoms: _19  and  _21
REMARK    3  A    between atoms: _22  and  _66
REMARK    4  A    between atoms: _27  and  _30
REMARK    5  A    between atoms: _32  and  _33
REMARK    6  A    between atoms: _38  and  _43
REMARK    7  A    between atoms: _43  and  _46
REMARK    8  A    between atoms: _53  and  _55
REMARK                            x       y       z     vdW  Elec       q    Type
REMARK                         _______ _______ _______ _____ _____    ______ ____
ROOT
ATOM     10  C   UNL     1      44.595  20.324  11.144  0.00  0.00    +0.038 A 
ATOM     11  C   UNL     1      43.614  20.489  10.133  0.00  0.00    +0.047 A 
ATOM     12  C   UNL     1      43.703  19.769   8.872  0.00  0.00    +0.035 A 
ATOM     32  C   UNL     1      44.804  18.885   8.676  0.00  0.00    +0.024 A 
ATOM     33  C   UNL     1      45.811  18.705   9.692  0.00  0.00    +0.007 A 
ATOM     34  C   UNL     1      45.730  19.415  10.936  0.00  0.00    -0.029 A 
ATOM     35  C   UNL     1      46.841  19.188  11.987  0.00  0.00    +0.045 C 
ENDROOT
BRANCH  10   9
ATOM      4  C   UNL     1      45.362  24.209  13.856  0.00  0.00    +0.077 A 
ATOM      5  C   UNL     1      46.118  24.854  12.821  0.00  0.00    +0.048 A 
ATOM      6  C   UNL     1      46.293  24.150  11.609  0.00  0.00    +0.116 A 
ATOM      7  N   UNL     1      45.747  22.894  11.454  0.00  0.00    -0.223 NA
ATOM      8  C   UNL     1      45.025  22.299  12.472  0.00  0.00    +0.220 A 
ATOM      9  N   UNL     1      44.461  21.040  12.335  0.00  0.00    -0.283 N 
ATOM     36  H   UNL     1      43.941  20.633  13.112  0.00  0.00    +0.155 HD
ATOM     37  N   UNL     1      44.845  22.951  13.640  0.00  0.00    -0.214 NA
BRANCH   4   3
ATOM      1  C   UNL     1      43.935  26.497  16.689  0.00  0.00    +0.020 A 
ATOM      2  C   UNL     1      44.164  25.937  15.376  0.00  0.00    +0.013 A 
ATOM      3  C   UNL     1      45.089  24.826  15.192  0.00  0.00    +0.019 A 
ATOM     38  C   UNL     1      45.770  24.299  16.365  0.00  0.00    +0.120 A 
ATOM     39  N   UNL     1      45.531  24.860  17.616  0.00  0.00    -0.263 NA
ATOM     40  C   UNL     1      44.644  25.930  17.805  0.00  0.00    +0.111 A 
ENDBRANCH   4   3
ENDBRANCH  10   9
BRANCH  12  13
ATOM     13  N   UNL     1      42.741  19.903   7.807  0.00  0.00    -0.281 N 
ATOM     14  C   UNL     1      42.146  21.063   7.338  0.00  0.00    +0.248 C 
ATOM     30  O   UNL     1      42.191  22.142   7.909  0.00  0.00    -0.270 OA
ATOM     31  H   UNL     1      42.465  19.038   7.342  0.00  0.00    +0.155 HD
BRANCH  14  15
ATOM     15  C   UNL     1      41.378  21.013   6.056  0.00  0.00    +0.037 A 
ATOM     16  C   UNL     1      41.400  19.822   5.203  0.00  0.00    +0.013 A 
ATOM     17  C   UNL     1      40.664  19.807   3.963  0.00  0.00    +0.005 A 
ATOM     18  C   UNL     1      39.898  20.987   3.571  0.00  0.00    -0.033 A 
ATOM     28  C   UNL     1      39.889  22.153   4.439  0.00  0.00    +0.005 A 
ATOM     29  C   UNL     1      40.610  22.172   5.654  0.00  0.00    +0.013 A 
BRANCH  18  19
ATOM     19  C   UNL     1      39.100  21.067   2.256  0.00  0.00    +0.119 C 
BRANCH  19  20
ATOM     20  N   UNL     1      37.875  20.220   2.147  0.00  0.00    -0.302 NA
ATOM     21  C   UNL     1      37.049  20.562   0.903  0.00  0.00    +0.066 C 
ATOM     22  C   UNL     1      35.783  19.651   0.793  0.00  0.00    -0.064 C 
ATOM     23  N   UNL     1      34.940  19.798   2.061  0.00  0.00    +0.379 N 
ATOM     24  C   UNL     1      33.720  18.988   1.935  0.00  0.00    -0.096 C 
ATOM     25  H   UNL     1      34.630  20.866   2.138  0.00  0.00    -0.082 HD
ATOM     26  C   UNL     1      35.754  19.463   3.302  0.00  0.00    -0.064 C 
ATOM     27  C   UNL     1      37.025  20.353   3.387  0.00  0.00    +0.066 C 
ENDBRANCH  19  20
ENDBRANCH  18  19
ENDBRANCH  14  15
ENDBRANCH  12  13
TORSDOF 6
ENDMDL
