MODEL 1
REMARK VINA RESULT:      -8.9      0.000      0.000
REMARK  Name = C:\Users\Docking\Desktop\test protocol\1iep_ligandH.pdb
REMARK  8 active torsions:
REMARK  status: ('A' for Active; 'I' for Inactive)
REMARK    1  A    between atoms: _5  and  _11
REMARK    2  A    between atoms: _19  and  _21
REMARK    3  A    between atoms: _22  and  _66
REMARK    4  A    between atoms: _27  and  _30
REMARK    5  A    between atoms: _32  and  _33
REMARK    6  A    between atoms: _38  and  _43
REMARK    7  A    between atoms: _43  and  _46
REMARK    8  A    between atoms: _53  and  _55
REMARK                            x       y       z     vdW  Elec       q    Type
REMARK                         _______ _______ _______ _____ _____    ______ ____
ROOT
ATOM     10  C   UNL     1      20.001  29.933  21.872  0.00  0.00    +0.038 A 
ATOM     11  C   UNL     1      20.557  30.078  20.576  0.00  0.00    +0.047 A 
ATOM     12  C   UNL     1      19.965  30.981  19.600  0.00  0.00    +0.035 A 
ATOM     32  C   UNL     1      18.809  31.722  19.980  0.00  0.00    +0.024 A 
ATOM     33  C   UNL     1      18.230  31.586  21.294  0.00  0.00    +0.007 A 
ATOM     34  C   UNL     1      18.807  30.695  22.259  0.00  0.00    -0.029 A 
ATOM     35  C   UNL     1      18.141  30.584  23.650  0.00  0.00    +0.045 C 
ENDROOT
BRANCH  10   9
ATOM      4  C   UNL     1      20.078  25.861  24.413  0.00  0.00    +0.077 A 
ATOM      5  C   UNL     1      18.785  25.468  23.934  0.00  0.00    +0.048 A 
ATOM      6  C   UNL     1      18.129  26.345  23.040  0.00  0.00    +0.116 A 
ATOM      7  N   UNL     1      18.733  27.525  22.661  0.00  0.00    -0.223 NA
ATOM      8  C   UNL     1      19.981  27.875  23.143  0.00  0.00    +0.220 A 
ATOM      9  N   UNL     1      20.610  29.052  22.769  0.00  0.00    -0.283 N 
ATOM     36  H   UNL     1      21.527  29.278  23.153  0.00  0.00    +0.155 HD
ATOM     37  N   UNL     1      20.626  27.055  23.999  0.00  0.00    -0.214 NA
BRANCH   4   3
ATOM      1  C   UNL     1      21.173  23.625  27.430  0.00  0.00    +0.020 A 
ATOM      2  C   UNL     1      20.339  24.409  26.549  0.00  0.00    +0.013 A 
ATOM      3  C   UNL     1      20.897  25.040  25.359  0.00  0.00    +0.019 A 
ATOM     38  C   UNL     1      22.315  24.856  25.088  0.00  0.00    +0.120 A 
ATOM     39  N   UNL     1      23.095  24.097  25.955  0.00  0.00    -0.263 NA
ATOM     40  C   UNL     1      22.568  23.487  27.104  0.00  0.00    +0.111 A 
ENDBRANCH   4   3
ENDBRANCH  10   9
BRANCH  12  13
ATOM     13  N   UNL     1      20.481  31.164  18.266  0.00  0.00    -0.281 N 
ATOM     14  C   UNL     1      20.956  32.330  17.690  0.00  0.00    +0.248 C 
ATOM     30  O   UNL     1      20.811  33.446  18.167  0.00  0.00    -0.270 OA
ATOM     31  H   UNL     1      20.497  30.333  17.675  0.00  0.00    +0.155 HD
BRANCH  14  15
ATOM     15  C   UNL     1      21.686  32.247  16.388  0.00  0.00    +0.037 A 
ATOM     16  C   UNL     1      22.841  33.103  16.108  0.00  0.00    +0.013 A 
ATOM     17  C   UNL     1      23.517  33.014  14.838  0.00  0.00    +0.005 A 
ATOM     18  C   UNL     1      23.038  32.063  13.837  0.00  0.00    -0.033 A 
ATOM     28  C   UNL     1      21.893  31.222  14.143  0.00  0.00    +0.005 A 
ATOM     29  C   UNL     1      21.228  31.307  15.387  0.00  0.00    +0.013 A 
BRANCH  18  19
ATOM     19  C   UNL     1      23.685  31.916  12.447  0.00  0.00    +0.119 C 
BRANCH  19  20
ATOM     20  N   UNL     1      23.392  32.980  11.441  0.00  0.00    -0.302 NA
ATOM     21  C   UNL     1      22.049  32.754  10.741  0.00  0.00    +0.066 C 
ATOM     22  C   UNL     1      21.749  33.889   9.707  0.00  0.00    -0.064 C 
ATOM     23  N   UNL     1      22.886  33.960   8.687  0.00  0.00    +0.379 N 
ATOM     24  C   UNL     1      22.578  34.986   7.680  0.00  0.00    -0.096 C 
ATOM     25  H   UNL     1      22.933  32.976   8.164  0.00  0.00    -0.082 HD
ATOM     26  C   UNL     1      24.226  34.181   9.375  0.00  0.00    -0.064 C 
ATOM     27  C   UNL     1      24.501  33.064  10.421  0.00  0.00    +0.066 C 
ENDBRANCH  19  20
ENDBRANCH  18  19
ENDBRANCH  14  15
ENDBRANCH  12  13
TORSDOF 6
ENDMDL
MODEL 2
REMARK VINA RESULT:      -8.6      5.469      8.381
REMARK  Name = C:\Users\Docking\Desktop\test protocol\1iep_ligandH.pdb
REMARK  8 active torsions:
REMARK  status: ('A' for Active; 'I' for Inactive)
REMARK    1  A    between atoms: _5  and  _11
REMARK    2  A    between atoms: _19  and  _21
REMARK    3  A    between atoms: _22  and  _66
REMARK    4  A    between atoms: _27  and  _30
REMARK    5  A    between atoms: _32  and  _33
REMARK    6  A    between atoms: _38  and  _43
REMARK    7  A    between atoms: _43  and  _46
REMARK    8  A    between atoms: _53  and  _55
REMARK                            x       y       z     vdW  Elec       q    Type
REMARK                         _______ _______ _______ _____ _____    ______ ____
ROOT
ATOM     10  C   UNL     1      21.987  32.166  15.362  0.00  0.00    +0.038 A 
ATOM     11  C   UNL     1      22.287  31.145  14.423  0.00  0.00    +0.047 A 
ATOM     12  C   UNL     1      22.476  31.451  13.014  0.00  0.00    +0.035 A 
ATOM     32  C   UNL     1      22.356  32.808  12.595  0.00  0.00    +0.024 A 
ATOM     33  C   UNL     1      22.050  33.857  13.535  0.00  0.00    +0.007 A 
ATOM     34  C   UNL     1      21.860  33.562  14.926  0.00  0.00    -0.029 A 
ATOM     35  C   UNL     1      21.528  34.726  15.888  0.00  0.00    +0.045 C 
ENDROOT
BRANCH  10   9
ATOM      4  C   UNL     1      19.269  30.721  19.045  0.00  0.00    +0.077 A 
ATOM      5  C   UNL     1      18.085  30.687  18.234  0.00  0.00    +0.048 A 
ATOM      6  C   UNL     1      18.218  31.055  16.877  0.00  0.00    +0.116 A 
ATOM      7  N   UNL     1      19.447  31.428  16.377  0.00  0.00    -0.223 NA
ATOM      8  C   UNL     1      20.568  31.452  17.186  0.00  0.00    +0.220 A 
ATOM      9  N   UNL     1      21.815  31.816  16.703  0.00  0.00    -0.283 N 
ATOM     36  H   UNL     1      22.616  31.828  17.334  0.00  0.00    +0.155 HD
ATOM     37  N   UNL     1      20.467  31.106  18.486  0.00  0.00    -0.214 NA
BRANCH   4   3
ATOM      1  C   UNL     1      20.484  29.678  22.613  0.00  0.00    +0.020 A 
ATOM      2  C   UNL     1      20.517  30.022  21.211  0.00  0.00    +0.013 A 
ATOM      3  C   UNL     1      19.291  30.357  20.497  0.00  0.00    +0.019 A 
ATOM     38  C   UNL     1      18.039  30.335  21.237  0.00  0.00    +0.120 A 
ATOM     39  N   UNL     1      18.037  29.998  22.587  0.00  0.00    -0.263 NA
ATOM     40  C   UNL     1      19.210  29.672  23.284  0.00  0.00    +0.111 A 
ENDBRANCH   4   3
ENDBRANCH  10   9
BRANCH  12  13
ATOM     13  N   UNL     1      22.774  30.455  12.014  0.00  0.00    -0.281 N 
ATOM     14  C   UNL     1      23.984  30.218  11.383  0.00  0.00    +0.248 C 
ATOM     30  O   UNL     1      24.946  30.969  11.428  0.00  0.00    -0.270 OA
ATOM     31  H   UNL     1      21.998  29.853  11.738  0.00  0.00    +0.155 HD
BRANCH  14  15
ATOM     15  C   UNL     1      24.143  28.972  10.573  0.00  0.00    +0.037 A 
ATOM     16  C   UNL     1      23.526  28.841   9.251  0.00  0.00    +0.013 A 
ATOM     17  C   UNL     1      23.681  27.622   8.497  0.00  0.00    +0.005 A 
ATOM     18  C   UNL     1      24.460  26.523   9.065  0.00  0.00    -0.033 A 
ATOM     28  C   UNL     1      25.065  26.682  10.377  0.00  0.00    +0.005 A 
ATOM     29  C   UNL     1      24.914  27.875  11.118  0.00  0.00    +0.013 A 
BRANCH  18  19
ATOM     19  C   UNL     1      24.660  25.179   8.341  0.00  0.00    +0.119 C 
BRANCH  19  20
ATOM     20  N   UNL     1      23.449  24.531   7.755  0.00  0.00    -0.302 NA
ATOM     21  C   UNL     1      22.346  24.324   8.798  0.00  0.00    +0.066 C 
ATOM     22  C   UNL     1      21.079  23.665   8.163  0.00  0.00    -0.064 C 
ATOM     23  N   UNL     1      21.468  22.335   7.515  0.00  0.00    +0.379 N 
ATOM     24  C   UNL     1      20.268  21.686   6.968  0.00  0.00    -0.096 C 
ATOM     25  H   UNL     1      21.874  21.675   8.317  0.00  0.00    -0.082 HD
ATOM     26  C   UNL     1      22.566  22.532   6.479  0.00  0.00    -0.064 C 
ATOM     27  C   UNL     1      23.810  23.213   7.114  0.00  0.00    +0.066 C 
ENDBRANCH  19  20
ENDBRANCH  18  19
ENDBRANCH  14  15
ENDBRANCH  12  13
TORSDOF 6
ENDMDL
MODEL 3
REMARK VINA RESULT:      -8.6      2.167      2.947
REMARK  Name = C:\Users\Docking\Desktop\test protocol\1iep_ligandH.pdb
REMARK  8 active torsions:
REMARK  status: ('A' for Active; 'I' for Inactive)
REMARK    1  A    between atoms: _5  and  _11
REMARK    2  A    between atoms: _19  and  _21
REMARK    3  A    between atoms: _22  and  _66
REMARK    4  A    between atoms: _27  and  _30
REMARK    5  A    between atoms: _32  and  _33
REMARK    6  A    between atoms: _38  and  _43
REMARK    7  A    between atoms: _43  and  _46
REMARK    8  A    between atoms: _53  and  _55
REMARK                            x       y       z     vdW  Elec       q    Type
REMARK                         _______ _______ _______ _____ _____    ______ ____
ROOT
ATOM     10  C   UNL     1      19.964  29.971  21.901  0.00  0.00    +0.038 A 
ATOM     11  C   UNL     1      20.334  29.964  20.531  0.00  0.00    +0.047 A 
ATOM     12  C   UNL     1      19.719  30.877  19.581  0.00  0.00    +0.035 A 
ATOM     32  C   UNL     1      18.733  31.788  20.060  0.00  0.00    +0.024 A 
ATOM     33  C   UNL     1      18.344  31.808  21.449  0.00  0.00    +0.007 A 
ATOM     34  C   UNL     1      18.945  30.907  22.390  0.00  0.00    -0.029 A 
ATOM     35  C   UNL     1      18.484  30.969  23.865  0.00  0.00    +0.045 C 
ENDROOT
BRANCH  10   9
ATOM      4  C   UNL     1      20.028  25.906  24.452  0.00  0.00    +0.077 A 
ATOM      5  C   UNL     1      18.698  25.558  24.041  0.00  0.00    +0.048 A 
ATOM      6  C   UNL     1      18.030  26.455  23.178  0.00  0.00    +0.116 A 
ATOM      7  N   UNL     1      18.654  27.611  22.764  0.00  0.00    -0.223 NA
ATOM      8  C   UNL     1      19.936  27.918  23.180  0.00  0.00    +0.220 A 
ATOM      9  N   UNL     1      20.586  29.072  22.769  0.00  0.00    -0.283 N 
ATOM     36  H   UNL     1      21.529  29.266  23.105  0.00  0.00    +0.155 HD
ATOM     37  N   UNL     1      20.595  27.078  24.005  0.00  0.00    -0.214 NA
BRANCH   4   3
ATOM      1  C   UNL     1      21.168  23.538  27.349  0.00  0.00    +0.020 A 
ATOM      2  C   UNL     1      20.316  24.343  26.505  0.00  0.00    +0.013 A 
ATOM      3  C   UNL     1      20.864  25.059  25.359  0.00  0.00    +0.019 A 
ATOM     38  C   UNL     1      22.290  24.936  25.094  0.00  0.00    +0.120 A 
ATOM     39  N   UNL     1      23.086  24.155  25.925  0.00  0.00    -0.263 NA
ATOM     40  C   UNL     1      22.569  23.463  27.031  0.00  0.00    +0.111 A 
ENDBRANCH   4   3
ENDBRANCH  10   9
BRANCH  12  13
ATOM     13  N   UNL     1      20.049  30.911  18.178  0.00  0.00    -0.281 N 
ATOM     14  C   UNL     1      20.749  31.888  17.490  0.00  0.00    +0.248 C 
ATOM     30  O   UNL     1      21.015  32.993  17.940  0.00  0.00    -0.270 OA
ATOM     31  H   UNL     1      19.727  30.117  17.624  0.00  0.00    +0.155 HD
BRANCH  14  15
ATOM     15  C   UNL     1      21.207  31.603  16.096  0.00  0.00    +0.037 A 
ATOM     16  C   UNL     1      20.516  30.622  15.255  0.00  0.00    +0.013 A 
ATOM     17  C   UNL     1      20.989  30.353  13.920  0.00  0.00    +0.005 A 
ATOM     18  C   UNL     1      22.159  31.069  13.418  0.00  0.00    -0.033 A 
ATOM     28  C   UNL     1      22.822  32.041  14.271  0.00  0.00    +0.005 A 
ATOM     29  C   UNL     1      22.362  32.306  15.581  0.00  0.00    +0.013 A 
BRANCH  18  19
ATOM     19  C   UNL     1      22.746  30.831  12.014  0.00  0.00    +0.119 C 
BRANCH  19  20
ATOM     20  N   UNL     1      23.059  29.421  11.634  0.00  0.00    -0.302 NA
ATOM     21  C   UNL     1      24.541  29.232  11.297  0.00  0.00    +0.066 C 
ATOM     22  C   UNL     1      24.855  27.747  10.924  0.00  0.00    -0.064 C 
ATOM     23  N   UNL     1      23.975  27.323   9.747  0.00  0.00    +0.379 N 
ATOM     24  C   UNL     1      24.308  25.945   9.356  0.00  0.00    -0.096 C 
ATOM     25  H   UNL     1      24.218  27.987   8.886  0.00  0.00    -0.082 HD
ATOM     26  C   UNL     1      22.499  27.510  10.072  0.00  0.00    -0.064 C 
ATOM     27  C   UNL     1      22.204  28.983  10.471  0.00  0.00    +0.066 C 
ENDBRANCH  19  20
ENDBRANCH  18  19
ENDBRANCH  14  15
ENDBRANCH  12  13
TORSDOF 6
ENDMDL
MODEL 4
REMARK VINA RESULT:      -8.4      4.725     13.152
REMARK  Name = C:\Users\Docking\Desktop\test protocol\1iep_ligandH.pdb
REMARK  8 active torsions:
REMARK  status: ('A' for Active; 'I' for Inactive)
REMARK    1  A    between atoms: _5  and  _11
REMARK    2  A    between atoms: _19  and  _21
REMARK    3  A    between atoms: _22  and  _66
REMARK    4  A    between atoms: _27  and  _30
REMARK    5  A    between atoms: _32  and  _33
REMARK    6  A    between atoms: _38  and  _43
REMARK    7  A    between atoms: _43  and  _46
REMARK    8  A    between atoms: _53  and  _55
REMARK                            x       y       z     vdW  Elec       q    Type
REMARK                         _______ _______ _______ _____ _____    ______ ____
ROOT
ATOM     10  C   UNL     1      23.189  30.422  11.112  0.00  0.00    +0.038 A 
ATOM     11  C   UNL     1      22.555  30.242  12.369  0.00  0.00    +0.047 A 
ATOM     12  C   UNL     1      22.728  31.206  13.444  0.00  0.00    +0.035 A 
ATOM     32  C   UNL     1      23.551  32.345  13.204  0.00  0.00    +0.024 A 
ATOM     33  C   UNL     1      24.203  32.543  11.933  0.00  0.00    +0.007 A 
ATOM     34  C   UNL     1      24.038  31.594  10.870  0.00  0.00    -0.029 A 
ATOM     35  C   UNL     1      24.766  31.854   9.531  0.00  0.00    +0.045 C 
ENDROOT
BRANCH  10   9
ATOM      4  C   UNL     1      24.217  26.240   8.992  0.00  0.00    +0.077 A 
ATOM      5  C   UNL     1      25.259  25.951   9.934  0.00  0.00    +0.048 A 
ATOM      6  C   UNL     1      25.504  26.908  10.945  0.00  0.00    +0.116 A 
ATOM      7  N   UNL     1      24.756  28.064  11.000  0.00  0.00    -0.223 NA
ATOM      8  C   UNL     1      23.758  28.312  10.074  0.00  0.00    +0.220 A 
ATOM      9  N   UNL     1      22.988  29.464  10.116  0.00  0.00    -0.283 N 
ATOM     36  H   UNL     1      22.267  29.614   9.410  0.00  0.00    +0.155 HD
ATOM     37  N   UNL     1      23.506  27.415   9.099  0.00  0.00    -0.214 NA
BRANCH   4   3
ATOM      1  C   UNL     1      23.105  24.885   5.495  0.00  0.00    +0.020 A 
ATOM      2  C   UNL     1      23.463  25.810   6.546  0.00  0.00    +0.013 A 
ATOM      3  C   UNL     1      23.836  25.326   7.869  0.00  0.00    +0.019 A 
ATOM     38  C   UNL     1      23.838  23.889   8.098  0.00  0.00    +0.120 A 
ATOM     39  N   UNL     1      23.487  23.022   7.068  0.00  0.00    -0.263 NA
ATOM     40  C   UNL     1      23.124  23.476   5.791  0.00  0.00    +0.111 A 
ENDBRANCH   4   3
ENDBRANCH  10   9
BRANCH  12  13
ATOM     13  N   UNL     1      22.117  31.072  14.743  0.00  0.00    -0.281 N 
ATOM     14  C   UNL     1      21.220  31.932  15.355  0.00  0.00    +0.248 C 
ATOM     30  O   UNL     1      20.971  33.063  14.964  0.00  0.00    -0.270 OA
ATOM     31  H   UNL     1      22.377  30.242  15.275  0.00  0.00    +0.155 HD
BRANCH  14  15
ATOM     15  C   UNL     1      20.509  31.476  16.588  0.00  0.00    +0.037 A 
ATOM     16  C   UNL     1      19.607  30.322  16.562  0.00  0.00    +0.013 A 
ATOM     17  C   UNL     1      18.920  29.914  17.761  0.00  0.00    +0.005 A 
ATOM     18  C   UNL     1      19.135  30.660  18.999  0.00  0.00    -0.033 A 
ATOM     28  C   UNL     1      20.039  31.798  18.998  0.00  0.00    +0.005 A 
ATOM     29  C   UNL     1      20.713  32.202  17.824  0.00  0.00    +0.013 A 
BRANCH  18  19
ATOM     19  C   UNL     1      18.427  30.308  20.321  0.00  0.00    +0.119 C 
BRANCH  19  20
ATOM     20  N   UNL     1      19.183  29.469  21.298  0.00  0.00    -0.302 NA
ATOM     21  C   UNL     1      19.275  28.008  20.850  0.00  0.00    +0.066 C 
ATOM     22  C   UNL     1      20.088  27.149  21.872  0.00  0.00    -0.064 C 
ATOM     23  N   UNL     1      19.436  27.251  23.252  0.00  0.00    +0.379 N 
ATOM     24  C   UNL     1      20.164  26.399  24.203  0.00  0.00    -0.096 C 
ATOM     25  H   UNL     1      18.398  26.853  23.166  0.00  0.00    -0.082 HD
ATOM     26  C   UNL     1      19.338  28.701  23.705  0.00  0.00    -0.064 C 
ATOM     27  C   UNL     1      18.554  29.552  22.667  0.00  0.00    +0.066 C 
ENDBRANCH  19  20
ENDBRANCH  18  19
ENDBRANCH  14  15
ENDBRANCH  12  13
TORSDOF 6
ENDMDL
MODEL 5
REMARK VINA RESULT:      -8.2     10.151     15.489
REMARK  Name = C:\Users\Docking\Desktop\test protocol\1iep_ligandH.pdb
REMARK  8 active torsions:
REMARK  status: ('A' for Active; 'I' for Inactive)
REMARK    1  A    between atoms: _5  and  _11
REMARK    2  A    between atoms: _19  and  _21
REMARK    3  A    between atoms: _22  and  _66
REMARK    4  A    between atoms: _27  and  _30
REMARK    5  A    between atoms: _32  and  _33
REMARK    6  A    between atoms: _38  and  _43
REMARK    7  A    between atoms: _43  and  _46
REMARK    8  A    between atoms: _53  and  _55
REMARK                            x       y       z     vdW  Elec       q    Type
REMARK                         _______ _______ _______ _____ _____    ______ ____
ROOT
ATOM     10  C   UNL     1      23.470  27.866   9.667  0.00  0.00    +0.038 A 
ATOM     11  C   UNL     1      24.134  27.038   8.725  0.00  0.00    +0.047 A 
ATOM     12  C   UNL     1      24.525  25.678   9.062  0.00  0.00    +0.035 A 
ATOM     32  C   UNL     1      24.221  25.192  10.367  0.00  0.00    +0.024 A 
ATOM     33  C   UNL     1      23.548  26.019  11.337  0.00  0.00    +0.007 A 
ATOM     34  C   UNL     1      23.162  27.362  11.011  0.00  0.00    -0.029 A 
ATOM     35  C   UNL     1      22.448  28.207  12.092  0.00  0.00    +0.045 C 
ENDROOT
BRANCH  10   9
ATOM      4  C   UNL     1      24.175  32.613   9.672  0.00  0.00    +0.077 A 
ATOM      5  C   UNL     1      25.327  32.501  10.520  0.00  0.00    +0.048 A 
ATOM      6  C   UNL     1      25.701  31.204  10.938  0.00  0.00    +0.116 A 
ATOM      7  N   UNL     1      24.970  30.108  10.532  0.00  0.00    -0.223 NA
ATOM      8  C   UNL     1      23.863  30.252   9.716  0.00  0.00    +0.220 A 
ATOM      9  N   UNL     1      23.118  29.163   9.290  0.00  0.00    -0.283 N 
ATOM     36  H   UNL     1      22.304  29.312   8.694  0.00  0.00    +0.155 HD
ATOM     37  N   UNL     1      23.485  31.480   9.304  0.00  0.00    -0.214 NA
BRANCH   4   3
ATOM      1  C   UNL     1      23.881  36.382   8.669  0.00  0.00    +0.020 A 
ATOM      2  C   UNL     1      24.427  35.152   9.193  0.00  0.00    +0.013 A 
ATOM      3  C   UNL     1      23.657  33.915   9.145  0.00  0.00    +0.019 A 
ATOM     38  C   UNL     1      22.328  33.958   8.555  0.00  0.00    +0.120 A 
ATOM     39  N   UNL     1      21.827  35.158   8.060  0.00  0.00    -0.263 NA
ATOM     40  C   UNL     1      22.558  36.355   8.102  0.00  0.00    +0.111 A 
ENDBRANCH   4   3
ENDBRANCH  10   9
BRANCH  12  13
ATOM     13  N   UNL     1      25.208  24.795   8.150  0.00  0.00    -0.281 N 
ATOM     14  C   UNL     1      24.656  24.001   7.159  0.00  0.00    +0.248 C 
ATOM     30  O   UNL     1      23.462  23.767   7.046  0.00  0.00    -0.270 OA
ATOM     31  H   UNL     1      26.223  24.749   8.248  0.00  0.00    +0.155 HD
BRANCH  14  15
ATOM     15  C   UNL     1      25.562  23.362   6.156  0.00  0.00    +0.037 A 
ATOM     16  C   UNL     1      26.999  23.651   6.138  0.00  0.00    +0.013 A 
ATOM     17  C   UNL     1      27.848  23.035   5.149  0.00  0.00    +0.005 A 
ATOM     18  C   UNL     1      27.261  22.122   4.171  0.00  0.00    -0.033 A 
ATOM     28  C   UNL     1      25.834  21.849   4.215  0.00  0.00    +0.005 A 
ATOM     29  C   UNL     1      24.999  22.452   5.182  0.00  0.00    +0.013 A 
BRANCH  18  19
ATOM     19  C   UNL     1      28.088  21.436   3.067  0.00  0.00    +0.119 C 
BRANCH  19  20
ATOM     20  N   UNL     1      28.413  22.244   1.854  0.00  0.00    -0.302 NA
ATOM     21  C   UNL     1      29.749  22.979   1.994  0.00  0.00    +0.066 C 
ATOM     22  C   UNL     1      30.084  23.801   0.707  0.00  0.00    -0.064 C 
ATOM     23  N   UNL     1      28.949  24.788   0.427  0.00  0.00    +0.379 N 
ATOM     24  C   UNL     1      29.288  25.603  -0.749  0.00  0.00    -0.096 C 
ATOM     25  H   UNL     1      28.873  25.473   1.303  0.00  0.00    -0.082 HD
ATOM     26  C   UNL     1      27.617  24.066   0.289  0.00  0.00    -0.064 C 
ATOM     27  C   UNL     1      27.307  23.228   1.561  0.00  0.00    +0.066 C 
ENDBRANCH  19  20
ENDBRANCH  18  19
ENDBRANCH  14  15
ENDBRANCH  12  13
TORSDOF 6
ENDMDL
