MODEL 1
REMARK VINA RESULT:      -7.8      0.000      0.000
REMARK  Name = C:\Users\Docking\Desktop\test protocol\1iep_ligandH.pdb
REMARK  8 active torsions:
REMARK  status: ('A' for Active; 'I' for Inactive)
REMARK    1  A    between atoms: _5  and  _11
REMARK    2  A    between atoms: _19  and  _21
REMARK    3  A    between atoms: _22  and  _66
REMARK    4  A    between atoms: _27  and  _30
REMARK    5  A    between atoms: _32  and  _33
REMARK    6  A    between atoms: _38  and  _43
REMARK    7  A    between atoms: _43  and  _46
REMARK    8  A    between atoms: _53  and  _55
REMARK                            x       y       z     vdW  Elec       q    Type
REMARK                         _______ _______ _______ _____ _____    ______ ____
ROOT
ATOM     10  C   UNL     1      22.309  31.425  13.194  0.00  0.00    +0.038 A 
ATOM     11  C   UNL     1      21.968  31.188  14.550  0.00  0.00    +0.047 A 
ATOM     12  C   UNL     1      22.104  32.232  15.554  0.00  0.00    +0.035 A 
ATOM     32  C   UNL     1      22.588  33.507  15.141  0.00  0.00    +0.024 A 
ATOM     33  C   UNL     1      22.941  33.765  13.767  0.00  0.00    +0.007 A 
ATOM     34  C   UNL     1      22.811  32.739  12.773  0.00  0.00    -0.029 A 
ATOM     35  C   UNL     1      23.210  33.070  11.316  0.00  0.00    +0.045 C 
ENDROOT
BRANCH  10   9
ATOM      4  C   UNL     1      23.771  27.338  11.146  0.00  0.00    +0.077 A 
ATOM      5  C   UNL     1      24.949  27.281  11.964  0.00  0.00    +0.048 A 
ATOM      6  C   UNL     1      25.144  28.326  12.894  0.00  0.00    +0.116 A 
ATOM      7  N   UNL     1      24.225  29.347  12.991  0.00  0.00    -0.223 NA
ATOM      8  C   UNL     1      23.101  29.374  12.186  0.00  0.00    +0.220 A 
ATOM      9  N   UNL     1      22.158  30.387  12.272  0.00  0.00    -0.283 N 
ATOM     36  H   UNL     1      21.346  30.374  11.656  0.00  0.00    +0.155 HD
ATOM     37  N   UNL     1      22.891  28.388  11.289  0.00  0.00    -0.214 NA
BRANCH   4   3
ATOM      1  C   UNL     1      23.930  24.942   8.058  0.00  0.00    +0.020 A 
ATOM      2  C   UNL     1      24.314  25.946   9.024  0.00  0.00    +0.013 A 
ATOM      3  C   UNL     1      23.423  26.306  10.119  0.00  0.00    +0.019 A 
ATOM     38  C   UNL     1      22.140  25.625  10.211  0.00  0.00    +0.120 A 
ATOM     39  N   UNL     1      21.797  24.663   9.266  0.00  0.00    -0.263 NA
ATOM     40  C   UNL     1      22.646  24.310   8.207  0.00  0.00    +0.111 A 
ENDBRANCH   4   3
ENDBRANCH  10   9
BRANCH  12  13
ATOM     13  N   UNL     1      21.781  32.047  16.947  0.00  0.00    -0.281 N 
ATOM     14  C   UNL     1      20.703  32.564  17.648  0.00  0.00    +0.248 C 
ATOM     30  O   UNL     1      19.965  33.443  17.229  0.00  0.00    -0.270 OA
ATOM     31  H   UNL     1      22.425  31.465  17.482  0.00  0.00    +0.155 HD
BRANCH  14  15
ATOM     15  C   UNL     1      20.412  32.038  19.016  0.00  0.00    +0.037 A 
ATOM     16  C   UNL     1      20.268  32.939  20.162  0.00  0.00    +0.013 A 
ATOM     17  C   UNL     1      20.004  32.405  21.474  0.00  0.00    +0.005 A 
ATOM     18  C   UNL     1      19.881  30.959  21.647  0.00  0.00    -0.033 A 
ATOM     28  C   UNL     1      20.022  30.088  20.492  0.00  0.00    +0.005 A 
ATOM     29  C   UNL     1      20.282  30.609  19.204  0.00  0.00    +0.013 A 
BRANCH  18  19
ATOM     19  C   UNL     1      19.621  30.299  23.014  0.00  0.00    +0.119 C 
BRANCH  19  20
ATOM     20  N   UNL     1      19.118  28.893  23.010  0.00  0.00    -0.302 NA
ATOM     21  C   UNL     1      17.590  28.829  23.089  0.00  0.00    +0.066 C 
ATOM     22  C   UNL     1      17.080  27.352  23.061  0.00  0.00    -0.064 C 
ATOM     23  N   UNL     1      17.714  26.574  24.215  0.00  0.00    +0.379 N 
ATOM     24  C   UNL     1      17.192  25.200  24.227  0.00  0.00    -0.096 C 
ATOM     25  H   UNL     1      17.399  27.064  25.166  0.00  0.00    -0.082 HD
ATOM     26  C   UNL     1      19.234  26.635  24.146  0.00  0.00    -0.064 C 
ATOM     27  C   UNL     1      19.729  28.108  24.145  0.00  0.00    +0.066 C 
ENDBRANCH  19  20
ENDBRANCH  18  19
ENDBRANCH  14  15
ENDBRANCH  12  13
TORSDOF 6
ENDMDL
MODEL 2
REMARK VINA RESULT:      -7.8      2.333     11.905
REMARK  Name = C:\Users\Docking\Desktop\test protocol\1iep_ligandH.pdb
REMARK  8 active torsions:
REMARK  status: ('A' for Active; 'I' for Inactive)
REMARK    1  A    between atoms: _5  and  _11
REMARK    2  A    between atoms: _19  and  _21
REMARK    3  A    between atoms: _22  and  _66
REMARK    4  A    between atoms: _27  and  _30
REMARK    5  A    between atoms: _32  and  _33
REMARK    6  A    between atoms: _38  and  _43
REMARK    7  A    between atoms: _43  and  _46
REMARK    8  A    between atoms: _53  and  _55
REMARK                            x       y       z     vdW  Elec       q    Type
REMARK                         _______ _______ _______ _____ _____    ______ ____
ROOT
ATOM     10  C   UNL     1      20.113  30.113  22.139  0.00  0.00    +0.038 A 
ATOM     11  C   UNL     1      20.388  30.045  20.749  0.00  0.00    +0.047 A 
ATOM     12  C   UNL     1      19.712  30.921  19.805  0.00  0.00    +0.035 A 
ATOM     32  C   UNL     1      18.764  31.858  20.311  0.00  0.00    +0.024 A 
ATOM     33  C   UNL     1      18.472  31.940  21.721  0.00  0.00    +0.007 A 
ATOM     34  C   UNL     1      19.134  31.077  22.657  0.00  0.00    -0.029 A 
ATOM     35  C   UNL     1      18.777  31.205  24.156  0.00  0.00    +0.045 C 
ENDROOT
BRANCH  10   9
ATOM      4  C   UNL     1      20.393  26.087  24.737  0.00  0.00    +0.077 A 
ATOM      5  C   UNL     1      19.066  25.686  24.367  0.00  0.00    +0.048 A 
ATOM      6  C   UNL     1      18.343  26.548  23.512  0.00  0.00    +0.116 A 
ATOM      7  N   UNL     1      18.913  27.720  23.066  0.00  0.00    -0.223 NA
ATOM      8  C   UNL     1      20.195  28.078  23.444  0.00  0.00    +0.220 A 
ATOM      9  N   UNL     1      20.791  29.248  23.001  0.00  0.00    -0.283 N 
ATOM     36  H   UNL     1      21.736  29.480  23.308  0.00  0.00    +0.155 HD
ATOM     37  N   UNL     1      20.906  27.273  24.260  0.00  0.00    -0.214 NA
BRANCH   4   3
ATOM      1  C   UNL     1      23.520  24.295  26.257  0.00  0.00    +0.020 A 
ATOM      2  C   UNL     1      22.703  25.081  25.362  0.00  0.00    +0.013 A 
ATOM      3  C   UNL     1      21.284  25.282  25.630  0.00  0.00    +0.019 A 
ATOM     38  C   UNL     1      20.719  24.670  26.824  0.00  0.00    +0.120 A 
ATOM     39  N   UNL     1      21.530  23.917  27.667  0.00  0.00    -0.263 NA
ATOM     40  C   UNL     1      22.896  23.715  27.418  0.00  0.00    +0.111 A 
ENDBRANCH   4   3
ENDBRANCH  10   9
BRANCH  12  13
ATOM     13  N   UNL     1      19.944  30.892  18.382  0.00  0.00    -0.281 N 
ATOM     14  C   UNL     1      20.688  31.779  17.622  0.00  0.00    +0.248 C 
ATOM     30  O   UNL     1      21.094  32.860  18.021  0.00  0.00    -0.270 OA
ATOM     31  H   UNL     1      19.506  30.123  17.873  0.00  0.00    +0.155 HD
BRANCH  14  15
ATOM     15  C   UNL     1      21.016  31.420  16.208  0.00  0.00    +0.037 A 
ATOM     16  C   UNL     1      21.894  32.264  15.394  0.00  0.00    +0.013 A 
ATOM     17  C   UNL     1      22.181  31.904  14.028  0.00  0.00    +0.005 A 
ATOM     18  C   UNL     1      21.589  30.691  13.468  0.00  0.00    -0.033 A 
ATOM     28  C   UNL     1      20.725  29.869  14.300  0.00  0.00    +0.005 A 
ATOM     29  C   UNL     1      20.441  30.220  15.639  0.00  0.00    +0.013 A 
BRANCH  18  19
ATOM     19  C   UNL     1      21.823  30.241  12.014  0.00  0.00    +0.119 C 
BRANCH  19  20
ATOM     20  N   UNL     1      22.561  28.960  11.805  0.00  0.00    -0.302 NA
ATOM     21  C   UNL     1      23.610  29.075  10.696  0.00  0.00    +0.066 C 
ATOM     22  C   UNL     1      24.387  27.732  10.506  0.00  0.00    -0.064 C 
ATOM     23  N   UNL     1      23.394  26.610  10.198  0.00  0.00    +0.379 N 
ATOM     24  C   UNL     1      24.127  25.357   9.962  0.00  0.00    -0.096 C 
ATOM     25  H   UNL     1      22.866  26.876   9.253  0.00  0.00    -0.082 HD
ATOM     26  C   UNL     1      22.346  26.490  11.295  0.00  0.00    -0.064 C 
ATOM     27  C   UNL     1      21.599  27.839  11.495  0.00  0.00    +0.066 C 
ENDBRANCH  19  20
ENDBRANCH  18  19
ENDBRANCH  14  15
ENDBRANCH  12  13
TORSDOF 6
ENDMDL
MODEL 3
REMARK VINA RESULT:      -7.8      1.415      1.782
REMARK  Name = C:\Users\Docking\Desktop\test protocol\1iep_ligandH.pdb
REMARK  8 active torsions:
REMARK  status: ('A' for Active; 'I' for Inactive)
REMARK    1  A    between atoms: _5  and  _11
REMARK    2  A    between atoms: _19  and  _21
REMARK    3  A    between atoms: _22  and  _66
REMARK    4  A    between atoms: _27  and  _30
REMARK    5  A    between atoms: _32  and  _33
REMARK    6  A    between atoms: _38  and  _43
REMARK    7  A    between atoms: _43  and  _46
REMARK    8  A    between atoms: _53  and  _55
REMARK                            x       y       z     vdW  Elec       q    Type
REMARK                         _______ _______ _______ _____ _____    ______ ____
ROOT
ATOM     10  C   UNL     1      22.255  31.464  13.367  0.00  0.00    +0.038 A 
ATOM     11  C   UNL     1      21.930  31.236  14.728  0.00  0.00    +0.047 A 
ATOM     12  C   UNL     1      22.093  32.281  15.727  0.00  0.00    +0.035 A 
ATOM     32  C   UNL     1      22.588  33.549  15.303  0.00  0.00    +0.024 A 
ATOM     33  C   UNL     1      22.924  33.798  13.923  0.00  0.00    +0.007 A 
ATOM     34  C   UNL     1      22.768  32.770  12.934  0.00  0.00    -0.029 A 
ATOM     35  C   UNL     1      23.151  33.091  11.471  0.00  0.00    +0.045 C 
ENDROOT
BRANCH  10   9
ATOM      4  C   UNL     1      23.689  27.406  11.242  0.00  0.00    +0.077 A 
ATOM      5  C   UNL     1      24.905  27.368  12.003  0.00  0.00    +0.048 A 
ATOM      6  C   UNL     1      25.126  28.415  12.925  0.00  0.00    +0.116 A 
ATOM      7  N   UNL     1      24.195  29.420  13.068  0.00  0.00    -0.223 NA
ATOM      8  C   UNL     1      23.034  29.428  12.317  0.00  0.00    +0.220 A 
ATOM      9  N   UNL     1      22.079  30.425  12.450  0.00  0.00    -0.283 N 
ATOM     36  H   UNL     1      21.239  30.399  11.873  0.00  0.00    +0.155 HD
ATOM     37  N   UNL     1      22.799  28.440  11.429  0.00  0.00    -0.214 NA
BRANCH   4   3
ATOM      1  C   UNL     1      23.743  25.018   8.145  0.00  0.00    +0.020 A 
ATOM      2  C   UNL     1      24.155  26.027   9.093  0.00  0.00    +0.013 A 
ATOM      3  C   UNL     1      23.310  26.370  10.230  0.00  0.00    +0.019 A 
ATOM     38  C   UNL     1      22.045  25.667  10.381  0.00  0.00    +0.120 A 
ATOM     39  N   UNL     1      21.674  24.701   9.451  0.00  0.00    -0.263 NA
ATOM     40  C   UNL     1      22.478  24.364   8.352  0.00  0.00    +0.111 A 
ENDBRANCH   4   3
ENDBRANCH  10   9
BRANCH  12  13
ATOM     13  N   UNL     1      21.787  32.105  17.124  0.00  0.00    -0.281 N 
ATOM     14  C   UNL     1      20.689  32.581  17.823  0.00  0.00    +0.248 C 
ATOM     30  O   UNL     1      19.907  33.416  17.394  0.00  0.00    -0.270 OA
ATOM     31  H   UNL     1      22.462  31.564  17.665  0.00  0.00    +0.155 HD
BRANCH  14  15
ATOM     15  C   UNL     1      20.431  32.065  19.201  0.00  0.00    +0.037 A 
ATOM     16  C   UNL     1      20.265  32.978  20.335  0.00  0.00    +0.013 A 
ATOM     17  C   UNL     1      20.034  32.453  21.658  0.00  0.00    +0.005 A 
ATOM     18  C   UNL     1      19.967  31.007  21.853  0.00  0.00    -0.033 A 
ATOM     28  C   UNL     1      20.130  30.124  20.710  0.00  0.00    +0.005 A 
ATOM     29  C   UNL     1      20.358  30.635  19.412  0.00  0.00    +0.013 A 
BRANCH  18  19
ATOM     19  C   UNL     1      19.745  30.359  23.233  0.00  0.00    +0.119 C 
BRANCH  19  20
ATOM     20  N   UNL     1      18.370  30.433  23.810  0.00  0.00    -0.302 NA
ATOM     21  C   UNL     1      18.189  31.660  24.708  0.00  0.00    +0.066 C 
ATOM     22  C   UNL     1      16.738  31.734  25.285  0.00  0.00    -0.064 C 
ATOM     23  N   UNL     1      16.433  30.449  26.057  0.00  0.00    +0.379 N 
ATOM     24  C   UNL     1      15.091  30.540  26.650  0.00  0.00    -0.096 C 
ATOM     25  H   UNL     1      17.168  30.374  26.892  0.00  0.00    -0.082 HD
ATOM     26  C   UNL     1      16.613  29.223  25.173  0.00  0.00    -0.064 C 
ATOM     27  C   UNL     1      18.050  29.175  24.580  0.00  0.00    +0.066 C 
ENDBRANCH  19  20
ENDBRANCH  18  19
ENDBRANCH  14  15
ENDBRANCH  12  13
TORSDOF 6
ENDMDL
MODEL 4
REMARK VINA RESULT:      -7.7      7.403     15.204
REMARK  Name = C:\Users\Docking\Desktop\test protocol\1iep_ligandH.pdb
REMARK  8 active torsions:
REMARK  status: ('A' for Active; 'I' for Inactive)
REMARK    1  A    between atoms: _5  and  _11
REMARK    2  A    between atoms: _19  and  _21
REMARK    3  A    between atoms: _22  and  _66
REMARK    4  A    between atoms: _27  and  _30
REMARK    5  A    between atoms: _32  and  _33
REMARK    6  A    between atoms: _38  and  _43
REMARK    7  A    between atoms: _43  and  _46
REMARK    8  A    between atoms: _53  and  _55
REMARK                            x       y       z     vdW  Elec       q    Type
REMARK                         _______ _______ _______ _____ _____    ______ ____
ROOT
ATOM     10  C   UNL     1      23.630  28.407  10.739  0.00  0.00    +0.038 A 
ATOM     11  C   UNL     1      23.879  27.616   9.589  0.00  0.00    +0.047 A 
ATOM     12  C   UNL     1      24.478  26.295   9.699  0.00  0.00    +0.035 A 
ATOM     32  C   UNL     1      24.809  25.810  10.998  0.00  0.00    +0.024 A 
ATOM     33  C   UNL     1      24.564  26.602  12.178  0.00  0.00    +0.007 A 
ATOM     34  C   UNL     1      23.976  27.906  12.075  0.00  0.00    -0.029 A 
ATOM     35  C   UNL     1      23.742  28.714  13.373  0.00  0.00    +0.045 C 
ENDROOT
BRANCH  10   9
ATOM      4  C   UNL     1      23.935  33.178  10.312  0.00  0.00    +0.077 A 
ATOM      5  C   UNL     1      25.362  33.159  10.455  0.00  0.00    +0.048 A 
ATOM      6  C   UNL     1      25.979  31.902  10.645  0.00  0.00    +0.116 A 
ATOM      7  N   UNL     1      25.215  30.756  10.685  0.00  0.00    -0.223 NA
ATOM      8  C   UNL     1      23.840  30.810  10.545  0.00  0.00    +0.220 A 
ATOM      9  N   UNL     1      23.053  29.669  10.574  0.00  0.00    -0.283 N 
ATOM     36  H   UNL     1      22.042  29.751  10.474  0.00  0.00    +0.155 HD
ATOM     37  N   UNL     1      23.227  31.998  10.364  0.00  0.00    -0.214 NA
BRANCH   4   3
ATOM      1  C   UNL     1      22.569  36.529   8.826  0.00  0.00    +0.020 A 
ATOM      2  C   UNL     1      23.367  35.335   8.983  0.00  0.00    +0.013 A 
ATOM      3  C   UNL     1      23.139  34.429  10.102  0.00  0.00    +0.019 A 
ATOM     38  C   UNL     1      22.087  34.762  11.051  0.00  0.00    +0.120 A 
ATOM     39  N   UNL     1      21.336  35.920  10.875  0.00  0.00    -0.263 NA
ATOM     40  C   UNL     1      21.548  36.801   9.803  0.00  0.00    +0.111 A 
ENDBRANCH   4   3
ENDBRANCH  10   9
BRANCH  12  13
ATOM     13  N   UNL     1      24.761  25.449   8.567  0.00  0.00    -0.281 N 
ATOM     14  C   UNL     1      23.859  24.777   7.758  0.00  0.00    +0.248 C 
ATOM     30  O   UNL     1      22.674  24.630   8.019  0.00  0.00    -0.270 OA
ATOM     31  H   UNL     1      25.747  25.331   8.332  0.00  0.00    +0.155 HD
BRANCH  14  15
ATOM     15  C   UNL     1      24.345  24.168   6.483  0.00  0.00    +0.037 A 
ATOM     16  C   UNL     1      25.207  22.983   6.487  0.00  0.00    +0.013 A 
ATOM     17  C   UNL     1      25.676  22.426   5.243  0.00  0.00    +0.005 A 
ATOM     18  C   UNL     1      25.283  23.054   3.984  0.00  0.00    -0.033 A 
ATOM     28  C   UNL     1      24.424  24.226   4.009  0.00  0.00    +0.005 A 
ATOM     29  C   UNL     1      23.962  24.775   5.226  0.00  0.00    +0.013 A 
BRANCH  18  19
ATOM     19  C   UNL     1      25.754  22.540   2.610  0.00  0.00    +0.119 C 
BRANCH  19  20
ATOM     20  N   UNL     1      26.968  23.179   2.021  0.00  0.00    -0.302 NA
ATOM     21  C   UNL     1      26.673  23.837   0.670  0.00  0.00    +0.066 C 
ATOM     22  C   UNL     1      27.949  24.520   0.078  0.00  0.00    -0.064 C 
ATOM     23  N   UNL     1      29.064  23.481  -0.057  0.00  0.00    +0.379 N 
ATOM     24  C   UNL     1      30.246  24.107  -0.667  0.00  0.00    -0.096 C 
ATOM     25  H   UNL     1      28.704  22.688  -0.753  0.00  0.00    -0.082 HD
ATOM     26  C   UNL     1      29.362  22.820   1.281  0.00  0.00    -0.064 C 
ATOM     27  C   UNL     1      28.081  22.170   1.874  0.00  0.00    +0.066 C 
ENDBRANCH  19  20
ENDBRANCH  18  19
ENDBRANCH  14  15
ENDBRANCH  12  13
TORSDOF 6
ENDMDL
MODEL 5
REMARK VINA RESULT:      -7.6      3.467     12.389
REMARK  Name = C:\Users\Docking\Desktop\test protocol\1iep_ligandH.pdb
REMARK  8 active torsions:
REMARK  status: ('A' for Active; 'I' for Inactive)
REMARK    1  A    between atoms: _5  and  _11
REMARK    2  A    between atoms: _19  and  _21
REMARK    3  A    between atoms: _22  and  _66
REMARK    4  A    between atoms: _27  and  _30
REMARK    5  A    between atoms: _32  and  _33
REMARK    6  A    between atoms: _38  and  _43
REMARK    7  A    between atoms: _43  and  _46
REMARK    8  A    between atoms: _53  and  _55
REMARK                            x       y       z     vdW  Elec       q    Type
REMARK                         _______ _______ _______ _____ _____    ______ ____
ROOT
ATOM     10  C   UNL     1      20.384  30.066  21.919  0.00  0.00    +0.038 A 
ATOM     11  C   UNL     1      20.680  29.884  20.544  0.00  0.00    +0.047 A 
ATOM     12  C   UNL     1      20.082  30.734  19.526  0.00  0.00    +0.035 A 
ATOM     32  C   UNL     1      19.189  31.763  19.945  0.00  0.00    +0.024 A 
ATOM     33  C   UNL     1      18.876  31.961  21.339  0.00  0.00    +0.007 A 
ATOM     34  C   UNL     1      19.461  31.124  22.347  0.00  0.00    -0.029 A 
ATOM     35  C   UNL     1      19.085  31.378  23.825  0.00  0.00    +0.045 C 
ENDROOT
BRANCH  10   9
ATOM      4  C   UNL     1      20.402  26.145  24.687  0.00  0.00    +0.077 A 
ATOM      5  C   UNL     1      19.089  25.762  24.255  0.00  0.00    +0.048 A 
ATOM      6  C   UNL     1      18.440  26.605  23.326  0.00  0.00    +0.116 A 
ATOM      7  N   UNL     1      19.067  27.744  22.868  0.00  0.00    -0.223 NA
ATOM      8  C   UNL     1      20.334  28.085  23.306  0.00  0.00    +0.220 A 
ATOM      9  N   UNL     1      20.987  29.221  22.853  0.00  0.00    -0.283 N 
ATOM     36  H   UNL     1      21.918  29.442  23.206  0.00  0.00    +0.155 HD
ATOM     37  N   UNL     1      20.974  27.297  24.195  0.00  0.00    -0.214 NA
BRANCH   4   3
ATOM      1  C   UNL     1      23.408  24.463  26.542  0.00  0.00    +0.020 A 
ATOM      2  C   UNL     1      22.668  25.238  25.572  0.00  0.00    +0.013 A 
ATOM      3  C   UNL     1      21.218  25.356  25.664  0.00  0.00    +0.019 A 
ATOM     38  C   UNL     1      20.542  24.673  26.757  0.00  0.00    +0.120 A 
ATOM     39  N   UNL     1      21.281  23.933  27.675  0.00  0.00    -0.263 NA
ATOM     40  C   UNL     1      22.676  23.811  27.596  0.00  0.00    +0.111 A 
ENDBRANCH   4   3
ENDBRANCH  10   9
BRANCH  12  13
ATOM     13  N   UNL     1      20.338  30.591  18.115  0.00  0.00    -0.281 N 
ATOM     14  C   UNL     1      19.454  30.779  17.065  0.00  0.00    +0.248 C 
ATOM     30  O   UNL     1      18.244  30.891  17.193  0.00  0.00    -0.270 OA
ATOM     31  H   UNL     1      21.287  30.319  17.858  0.00  0.00    +0.155 HD
BRANCH  14  15
ATOM     15  C   UNL     1      19.989  30.835  15.671  0.00  0.00    +0.037 A 
ATOM     16  C   UNL     1      19.180  30.403  14.528  0.00  0.00    +0.013 A 
ATOM     17  C   UNL     1      19.727  30.452  13.195  0.00  0.00    +0.005 A 
ATOM     18  C   UNL     1      21.091  30.937  12.998  0.00  0.00    -0.033 A 
ATOM     28  C   UNL     1      21.870  31.364  14.149  0.00  0.00    +0.005 A 
ATOM     29  C   UNL     1      21.337  31.317  15.457  0.00  0.00    +0.013 A 
BRANCH  18  19
ATOM     19  C   UNL     1      21.763  31.003  11.614  0.00  0.00    +0.119 C 
BRANCH  19  20
ATOM     20  N   UNL     1      22.445  32.280  11.246  0.00  0.00    -0.302 NA
ATOM     21  C   UNL     1      21.458  33.446  11.133  0.00  0.00    +0.066 C 
ATOM     22  C   UNL     1      22.191  34.778  10.769  0.00  0.00    -0.064 C 
ATOM     23  N   UNL     1      22.962  34.592   9.460  0.00  0.00    +0.379 N 
ATOM     24  C   UNL     1      23.604  35.860   9.085  0.00  0.00    -0.096 C 
ATOM     25  H   UNL     1      22.222  34.340   8.666  0.00  0.00    -0.082 HD
ATOM     26  C   UNL     1      23.943  33.433   9.563  0.00  0.00    -0.064 C 
ATOM     27  C   UNL     1      23.209  32.120   9.954  0.00  0.00    +0.066 C 
ENDBRANCH  19  20
ENDBRANCH  18  19
ENDBRANCH  14  15
ENDBRANCH  12  13
TORSDOF 6
ENDMDL
