MODEL 1
REMARK VINA RESULT:      -8.5      0.000      0.000
REMARK  Name = C:\Users\Docking\Desktop\test protocol\1iep_ligandH.pdb
REMARK  8 active torsions:
REMARK  status: ('A' for Active; 'I' for Inactive)
REMARK    1  A    between atoms: _5  and  _11
REMARK    2  A    between atoms: _19  and  _21
REMARK    3  A    between atoms: _22  and  _66
REMARK    4  A    between atoms: _27  and  _30
REMARK    5  A    between atoms: _32  and  _33
REMARK    6  A    between atoms: _38  and  _43
REMARK    7  A    between atoms: _43  and  _46
REMARK    8  A    between atoms: _53  and  _55
REMARK                            x       y       z     vdW  Elec       q    Type
REMARK                         _______ _______ _______ _____ _____    ______ ____
ROOT
ATOM     10  C   UNL     1      11.640 -19.948 -12.613  0.00  0.00    +0.038 A 
ATOM     11  C   UNL     1      10.632 -18.977 -12.846  0.00  0.00    +0.047 A 
ATOM     12  C   UNL     1      10.855 -17.865 -13.757  0.00  0.00    +0.035 A 
ATOM     32  C   UNL     1      12.115 -17.773 -14.416  0.00  0.00    +0.024 A 
ATOM     33  C   UNL     1      13.151 -18.751 -14.191  0.00  0.00    +0.007 A 
ATOM     34  C   UNL     1      12.938 -19.849 -13.292  0.00  0.00    -0.029 A 
ATOM     35  C   UNL     1      14.086 -20.863 -13.083  0.00  0.00    +0.045 C 
ENDROOT
BRANCH  10   9
ATOM      4  C   UNL     1       9.670 -24.194 -11.553  0.00  0.00    +0.077 A 
ATOM      5  C   UNL     1       9.104 -24.326 -12.865  0.00  0.00    +0.048 A 
ATOM      6  C   UNL     1       9.337 -23.275 -13.781  0.00  0.00    +0.116 A 
ATOM      7  N   UNL     1      10.082 -22.180 -13.402  0.00  0.00    -0.223 NA
ATOM      8  C   UNL     1      10.613 -22.084 -12.128  0.00  0.00    +0.220 A 
ATOM      9  N   UNL     1      11.372 -20.995 -11.729  0.00  0.00    -0.283 N 
ATOM     36  H   UNL     1      11.740 -20.958 -10.778  0.00  0.00    +0.155 HD
ATOM     37  N   UNL     1      10.403 -23.073 -11.235  0.00  0.00    -0.214 NA
BRANCH   4   3
ATOM      1  C   UNL     1      10.105 -26.219  -8.235  0.00  0.00    +0.020 A 
ATOM      2  C   UNL     1      10.294 -25.203  -9.244  0.00  0.00    +0.013 A 
ATOM      3  C   UNL     1       9.515 -25.222 -10.476  0.00  0.00    +0.019 A 
ATOM     38  C   UNL     1       8.545 -26.292 -10.656  0.00  0.00    +0.120 A 
ATOM     39  N   UNL     1       8.386 -27.258  -9.668  0.00  0.00    -0.263 NA
ATOM     40  C   UNL     1       9.131 -27.250  -8.479  0.00  0.00    +0.111 A 
ENDBRANCH   4   3
ENDBRANCH  10   9
BRANCH  12  13
ATOM     13  N   UNL     1       9.872 -16.844 -14.026  0.00  0.00    -0.281 N 
ATOM     14  C   UNL     1       8.948 -16.803 -15.057  0.00  0.00    +0.248 C 
ATOM     30  O   UNL     1       8.968 -17.538 -16.033  0.00  0.00    -0.270 OA
ATOM     31  H   UNL     1       9.856 -16.057 -13.378  0.00  0.00    +0.155 HD
BRANCH  14  15
ATOM     15  C   UNL     1       7.850 -15.790 -15.002  0.00  0.00    +0.037 A 
ATOM     16  C   UNL     1       6.710 -15.854 -15.921  0.00  0.00    +0.013 A 
ATOM     17  C   UNL     1       5.674 -14.854 -15.859  0.00  0.00    +0.005 A 
ATOM     18  C   UNL     1       5.773 -13.781 -14.872  0.00  0.00    -0.033 A 
ATOM     28  C   UNL     1       6.911 -13.745 -13.969  0.00  0.00    +0.005 A 
ATOM     29  C   UNL     1       7.930 -14.722 -14.028  0.00  0.00    +0.013 A 
BRANCH  18  19
ATOM     19  C   UNL     1       4.724 -12.660 -14.748  0.00  0.00    +0.119 C 
BRANCH  19  20
ATOM     20  N   UNL     1       4.081 -12.183 -16.009  0.00  0.00    -0.302 NA
ATOM     21  C   UNL     1       3.924 -10.660 -16.032  0.00  0.00    +0.066 C 
ATOM     22  C   UNL     1       3.270 -10.176 -17.368  0.00  0.00    -0.064 C 
ATOM     23  N   UNL     1       1.916 -10.863 -17.548  0.00  0.00    +0.379 N 
ATOM     24  C   UNL     1       1.273 -10.366 -18.773  0.00  0.00    -0.096 C 
ATOM     25  H   UNL     1       1.272 -10.572 -16.686  0.00  0.00    -0.082 HD
ATOM     26  C   UNL     1       2.063 -12.378 -17.523  0.00  0.00    -0.064 C 
ATOM     27  C   UNL     1       2.740 -12.846 -16.205  0.00  0.00    +0.066 C 
ENDBRANCH  19  20
ENDBRANCH  18  19
ENDBRANCH  14  15
ENDBRANCH  12  13
TORSDOF 6
ENDMDL
MODEL 2
REMARK VINA RESULT:      -8.5      1.125      1.766
REMARK  Name = C:\Users\Docking\Desktop\test protocol\1iep_ligandH.pdb
REMARK  8 active torsions:
REMARK  status: ('A' for Active; 'I' for Inactive)
REMARK    1  A    between atoms: _5  and  _11
REMARK    2  A    between atoms: _19  and  _21
REMARK    3  A    between atoms: _22  and  _66
REMARK    4  A    between atoms: _27  and  _30
REMARK    5  A    between atoms: _32  and  _33
REMARK    6  A    between atoms: _38  and  _43
REMARK    7  A    between atoms: _43  and  _46
REMARK    8  A    between atoms: _53  and  _55
REMARK                            x       y       z     vdW  Elec       q    Type
REMARK                         _______ _______ _______ _____ _____    ______ ____
ROOT
ATOM     10  C   UNL     1      11.782 -19.999 -12.671  0.00  0.00    +0.038 A 
ATOM     11  C   UNL     1      10.786 -19.006 -12.854  0.00  0.00    +0.047 A 
ATOM     12  C   UNL     1      11.002 -17.880 -13.749  0.00  0.00    +0.035 A 
ATOM     32  C   UNL     1      12.244 -17.798 -14.445  0.00  0.00    +0.024 A 
ATOM     33  C   UNL     1      13.267 -18.799 -14.270  0.00  0.00    +0.007 A 
ATOM     34  C   UNL     1      13.061 -19.910 -13.386  0.00  0.00    -0.029 A 
ATOM     35  C   UNL     1      14.196 -20.949 -13.232  0.00  0.00    +0.045 C 
ENDROOT
BRANCH  10   9
ATOM      4  C   UNL     1       9.705 -24.194 -11.610  0.00  0.00    +0.077 A 
ATOM      5  C   UNL     1       9.064 -24.268 -12.891  0.00  0.00    +0.048 A 
ATOM      6  C   UNL     1       9.288 -23.203 -13.791  0.00  0.00    +0.116 A 
ATOM      7  N   UNL     1      10.096 -22.147 -13.427  0.00  0.00    -0.223 NA
ATOM      8  C   UNL     1      10.698 -22.106 -12.183  0.00  0.00    +0.220 A 
ATOM      9  N   UNL     1      11.521 -21.059 -11.799  0.00  0.00    -0.283 N 
ATOM     36  H   UNL     1      11.941 -21.062 -10.870  0.00  0.00    +0.155 HD
ATOM     37  N   UNL     1      10.499 -23.111 -11.305  0.00  0.00    -0.214 NA
BRANCH   4   3
ATOM      1  C   UNL     1       8.509 -27.320  -9.585  0.00  0.00    +0.020 A 
ATOM      2  C   UNL     1       8.601 -26.331 -10.635  0.00  0.00    +0.013 A 
ATOM      3  C   UNL     1       9.568 -25.244 -10.551  0.00  0.00    +0.019 A 
ATOM     38  C   UNL     1      10.435 -25.186  -9.384  0.00  0.00    +0.120 A 
ATOM     39  N   UNL     1      10.322 -26.151  -8.388  0.00  0.00    -0.263 NA
ATOM     40  C   UNL     1       9.395 -27.201  -8.457  0.00  0.00    +0.111 A 
ENDBRANCH   4   3
ENDBRANCH  10   9
BRANCH  12  13
ATOM     13  N   UNL     1      10.031 -16.837 -13.969  0.00  0.00    -0.281 N 
ATOM     14  C   UNL     1       9.415 -16.484 -15.158  0.00  0.00    +0.248 C 
ATOM     30  O   UNL     1       9.766 -16.876 -16.262  0.00  0.00    -0.270 OA
ATOM     31  H   UNL     1       9.767 -16.292 -13.148  0.00  0.00    +0.155 HD
BRANCH  14  15
ATOM     15  C   UNL     1       8.248 -15.550 -15.118  0.00  0.00    +0.037 A 
ATOM     16  C   UNL     1       8.007 -14.685 -13.960  0.00  0.00    +0.013 A 
ATOM     17  C   UNL     1       6.865 -13.806 -13.940  0.00  0.00    +0.005 A 
ATOM     18  C   UNL     1       5.956 -13.787 -15.083  0.00  0.00    -0.033 A 
ATOM     28  C   UNL     1       6.221 -14.652 -16.220  0.00  0.00    +0.005 A 
ATOM     29  C   UNL     1       7.339 -15.515 -16.244  0.00  0.00    +0.013 A 
BRANCH  18  19
ATOM     19  C   UNL     1       4.700 -12.896 -15.138  0.00  0.00    +0.119 C 
BRANCH  19  20
ATOM     20  N   UNL     1       3.552 -13.382 -15.960  0.00  0.00    -0.302 NA
ATOM     21  C   UNL     1       2.570 -12.257 -16.297  0.00  0.00    +0.066 C 
ATOM     22  C   UNL     1       1.387 -12.779 -17.176  0.00  0.00    -0.064 C 
ATOM     23  N   UNL     1       0.675 -13.918 -16.444  0.00  0.00    +0.379 N 
ATOM     24  C   UNL     1      -0.473 -14.372 -17.242  0.00  0.00    -0.096 C 
ATOM     25  H   UNL     1       0.280 -13.509 -15.485  0.00  0.00    -0.082 HD
ATOM     26  C   UNL     1       1.645 -15.040 -16.102  0.00  0.00    -0.064 C 
ATOM     27  C   UNL     1       2.832 -14.505 -15.254  0.00  0.00    +0.066 C 
ENDBRANCH  19  20
ENDBRANCH  18  19
ENDBRANCH  14  15
ENDBRANCH  12  13
TORSDOF 6
ENDMDL
MODEL 3
REMARK VINA RESULT:      -8.5      7.137     13.249
REMARK  Name = C:\Users\Docking\Desktop\test protocol\1iep_ligandH.pdb
REMARK  8 active torsions:
REMARK  status: ('A' for Active; 'I' for Inactive)
REMARK    1  A    between atoms: _5  and  _11
REMARK    2  A    between atoms: _19  and  _21
REMARK    3  A    between atoms: _22  and  _66
REMARK    4  A    between atoms: _27  and  _30
REMARK    5  A    between atoms: _32  and  _33
REMARK    6  A    between atoms: _38  and  _43
REMARK    7  A    between atoms: _43  and  _46
REMARK    8  A    between atoms: _53  and  _55
REMARK                            x       y       z     vdW  Elec       q    Type
REMARK                         _______ _______ _______ _____ _____    ______ ____
ROOT
ATOM     10  C   UNL     1      13.023 -19.691 -13.828  0.00  0.00    +0.038 A 
ATOM     11  C   UNL     1      14.192 -19.516 -14.612  0.00  0.00    +0.047 A 
ATOM     12  C   UNL     1      15.179 -20.577 -14.738  0.00  0.00    +0.035 A 
ATOM     32  C   UNL     1      14.942 -21.806 -14.055  0.00  0.00    +0.024 A 
ATOM     33  C   UNL     1      13.759 -22.000 -13.253  0.00  0.00    +0.007 A 
ATOM     34  C   UNL     1      12.784 -20.956 -13.123  0.00  0.00    -0.029 A 
ATOM     35  C   UNL     1      11.538 -21.218 -12.245  0.00  0.00    +0.045 C 
ENDROOT
BRANCH  10   9
ATOM      4  C   UNL     1       9.301 -17.169 -15.507  0.00  0.00    +0.077 A 
ATOM      5  C   UNL     1       9.184 -18.003 -16.669  0.00  0.00    +0.048 A 
ATOM      6  C   UNL     1      10.106 -19.065 -16.800  0.00  0.00    +0.116 A 
ATOM      7  N   UNL     1      11.068 -19.270 -15.835  0.00  0.00    -0.223 NA
ATOM      8  C   UNL     1      11.154 -18.447 -14.728  0.00  0.00    +0.220 A 
ATOM      9  N   UNL     1      12.109 -18.639 -13.741  0.00  0.00    -0.283 N 
ATOM     36  H   UNL     1      12.144 -18.005 -12.943  0.00  0.00    +0.155 HD
ATOM     37  N   UNL     1      10.286 -17.424 -14.580  0.00  0.00    -0.214 NA
BRANCH   4   3
ATOM      1  C   UNL     1       7.526 -14.164 -13.742  0.00  0.00    +0.020 A 
ATOM      2  C   UNL     1       8.418 -15.278 -13.964  0.00  0.00    +0.013 A 
ATOM      3  C   UNL     1       8.398 -16.009 -15.224  0.00  0.00    +0.019 A 
ATOM     38  C   UNL     1       7.456 -15.583 -16.249  0.00  0.00    +0.120 A 
ATOM     39  N   UNL     1       6.608 -14.507 -16.006  0.00  0.00    -0.263 NA
ATOM     40  C   UNL     1       6.617 -13.797 -14.796  0.00  0.00    +0.111 A 
ENDBRANCH   4   3
ENDBRANCH  10   9
BRANCH  12  13
ATOM     13  N   UNL     1      16.389 -20.455 -15.513  0.00  0.00    -0.281 N 
ATOM     14  C   UNL     1      16.509 -20.185 -16.867  0.00  0.00    +0.248 C 
ATOM     30  O   UNL     1      15.584 -20.219 -17.663  0.00  0.00    -0.270 OA
ATOM     31  H   UNL     1      17.262 -20.582 -15.002  0.00  0.00    +0.155 HD
BRANCH  14  15
ATOM     15  C   UNL     1      17.856 -19.841 -17.417  0.00  0.00    +0.037 A 
ATOM     16  C   UNL     1      18.097 -18.563 -18.092  0.00  0.00    +0.013 A 
ATOM     17  C   UNL     1      19.401 -18.263 -18.629  0.00  0.00    +0.005 A 
ATOM     18  C   UNL     1      20.475 -19.244 -18.491  0.00  0.00    -0.033 A 
ATOM     28  C   UNL     1      20.209 -20.502 -17.813  0.00  0.00    +0.005 A 
ATOM     29  C   UNL     1      18.932 -20.800 -17.286  0.00  0.00    +0.013 A 
BRANCH  18  19
ATOM     19  C   UNL     1      21.891 -19.018 -19.052  0.00  0.00    +0.119 C 
BRANCH  19  20
ATOM     20  N   UNL     1      22.073 -19.163 -20.528  0.00  0.00    -0.302 NA
ATOM     21  C   UNL     1      23.227 -20.108 -20.874  0.00  0.00    +0.066 C 
ATOM     22  C   UNL     1      23.389 -20.265 -22.421  0.00  0.00    -0.064 C 
ATOM     23  N   UNL     1      23.610 -18.889 -23.050  0.00  0.00    +0.379 N 
ATOM     24  C   UNL     1      23.820 -19.039 -24.498  0.00  0.00    -0.096 C 
ATOM     25  H   UNL     1      24.544 -18.464 -22.615  0.00  0.00    -0.082 HD
ATOM     26  C   UNL     1      22.469 -17.941 -22.708  0.00  0.00    -0.064 C 
ATOM     27  C   UNL     1      22.297 -17.815 -21.169  0.00  0.00    +0.066 C 
ENDBRANCH  19  20
ENDBRANCH  18  19
ENDBRANCH  14  15
ENDBRANCH  12  13
TORSDOF 6
ENDMDL
MODEL 4
REMARK VINA RESULT:      -8.3      5.842     11.766
REMARK  Name = C:\Users\Docking\Desktop\test protocol\1iep_ligandH.pdb
REMARK  8 active torsions:
REMARK  status: ('A' for Active; 'I' for Inactive)
REMARK    1  A    between atoms: _5  and  _11
REMARK    2  A    between atoms: _19  and  _21
REMARK    3  A    between atoms: _22  and  _66
REMARK    4  A    between atoms: _27  and  _30
REMARK    5  A    between atoms: _32  and  _33
REMARK    6  A    between atoms: _38  and  _43
REMARK    7  A    between atoms: _43  and  _46
REMARK    8  A    between atoms: _53  and  _55
REMARK                            x       y       z     vdW  Elec       q    Type
REMARK                         _______ _______ _______ _____ _____    ______ ____
ROOT
ATOM     10  C   UNL     1      11.729 -18.485 -13.451  0.00  0.00    +0.038 A 
ATOM     11  C   UNL     1      12.748 -18.460 -14.438  0.00  0.00    +0.047 A 
ATOM     12  C   UNL     1      13.778 -19.486 -14.482  0.00  0.00    +0.035 A 
ATOM     32  C   UNL     1      13.739 -20.524 -13.506  0.00  0.00    +0.024 A 
ATOM     33  C   UNL     1      12.712 -20.564 -12.495  0.00  0.00    +0.007 A 
ATOM     34  C   UNL     1      11.695 -19.553 -12.445  0.00  0.00    -0.029 A 
ATOM     35  C   UNL     1      10.622 -19.642 -11.335  0.00  0.00    +0.045 C 
ENDROOT
BRANCH  10   9
ATOM      4  C   UNL     1       7.864 -16.332 -15.312  0.00  0.00    +0.077 A 
ATOM      5  C   UNL     1       7.774 -17.285 -16.380  0.00  0.00    +0.048 A 
ATOM      6  C   UNL     1       8.747 -18.310 -16.419  0.00  0.00    +0.116 A 
ATOM      7  N   UNL     1       9.730 -18.367 -15.456  0.00  0.00    -0.223 NA
ATOM      8  C   UNL     1       9.789 -17.431 -14.440  0.00  0.00    +0.220 A 
ATOM      9  N   UNL     1      10.765 -17.474 -13.456  0.00  0.00    -0.283 N 
ATOM     36  H   UNL     1      10.779 -16.761 -12.728  0.00  0.00    +0.155 HD
ATOM     37  N   UNL     1       8.873 -16.442 -14.382  0.00  0.00    -0.214 NA
BRANCH   4   3
ATOM      1  C   UNL     1       4.753 -13.983 -15.638  0.00  0.00    +0.020 A 
ATOM      2  C   UNL     1       5.640 -15.104 -15.846  0.00  0.00    +0.013 A 
ATOM      3  C   UNL     1       6.908 -15.193 -15.134  0.00  0.00    +0.019 A 
ATOM     38  C   UNL     1       7.251 -14.124 -14.208  0.00  0.00    +0.120 A 
ATOM     39  N   UNL     1       6.377 -13.056 -14.029  0.00  0.00    -0.263 NA
ATOM     40  C   UNL     1       5.155 -12.958 -14.710  0.00  0.00    +0.111 A 
ENDBRANCH   4   3
ENDBRANCH  10   9
BRANCH  12  13
ATOM     13  N   UNL     1      14.842 -19.509 -15.455  0.00  0.00    -0.281 N 
ATOM     14  C   UNL     1      14.862 -20.158 -16.679  0.00  0.00    +0.248 C 
ATOM     30  O   UNL     1      14.047 -20.998 -17.030  0.00  0.00    -0.270 OA
ATOM     31  H   UNL     1      15.681 -18.982 -15.213  0.00  0.00    +0.155 HD
BRANCH  14  15
ATOM     15  C   UNL     1      15.955 -19.838 -17.647  0.00  0.00    +0.037 A 
ATOM     16  C   UNL     1      17.365 -19.926 -17.258  0.00  0.00    +0.013 A 
ATOM     17  C   UNL     1      18.399 -19.596 -18.207  0.00  0.00    +0.005 A 
ATOM     18  C   UNL     1      18.026 -19.176 -19.555  0.00  0.00    -0.033 A 
ATOM     28  C   UNL     1      16.620 -19.103 -19.916  0.00  0.00    +0.005 A 
ATOM     29  C   UNL     1      15.604 -19.425 -18.989  0.00  0.00    +0.013 A 
BRANCH  18  19
ATOM     19  C   UNL     1      19.062 -18.784 -20.626  0.00  0.00    +0.119 C 
BRANCH  19  20
ATOM     20  N   UNL     1      19.078 -17.359 -21.073  0.00  0.00    -0.302 NA
ATOM     21  C   UNL     1      20.185 -17.091 -22.096  0.00  0.00    +0.066 C 
ATOM     22  C   UNL     1      20.174 -15.601 -22.569  0.00  0.00    -0.064 C 
ATOM     23  N   UNL     1      20.324 -14.682 -21.356  0.00  0.00    +0.379 N 
ATOM     24  C   UNL     1      20.371 -13.282 -21.803  0.00  0.00    -0.096 C 
ATOM     25  H   UNL     1      21.301 -14.917 -20.873  0.00  0.00    -0.082 HD
ATOM     26  C   UNL     1      19.228 -14.944 -20.332  0.00  0.00    -0.064 C 
ATOM     27  C   UNL     1      19.230 -16.434 -19.890  0.00  0.00    +0.066 C 
ENDBRANCH  19  20
ENDBRANCH  18  19
ENDBRANCH  14  15
ENDBRANCH  12  13
TORSDOF 6
ENDMDL
MODEL 5
REMARK VINA RESULT:      -8.1      5.231     11.653
REMARK  Name = C:\Users\Docking\Desktop\test protocol\1iep_ligandH.pdb
REMARK  8 active torsions:
REMARK  status: ('A' for Active; 'I' for Inactive)
REMARK    1  A    between atoms: _5  and  _11
REMARK    2  A    between atoms: _19  and  _21
REMARK    3  A    between atoms: _22  and  _66
REMARK    4  A    between atoms: _27  and  _30
REMARK    5  A    between atoms: _32  and  _33
REMARK    6  A    between atoms: _38  and  _43
REMARK    7  A    between atoms: _43  and  _46
REMARK    8  A    between atoms: _53  and  _55
REMARK                            x       y       z     vdW  Elec       q    Type
REMARK                         _______ _______ _______ _____ _____    ______ ____
ROOT
ATOM     10  C   UNL     1       9.483 -20.336 -14.446  0.00  0.00    +0.038 A 
ATOM     11  C   UNL     1      10.722 -20.153 -15.113  0.00  0.00    +0.047 A 
ATOM     12  C   UNL     1      11.843 -21.049 -14.876  0.00  0.00    +0.035 A 
ATOM     32  C   UNL     1      11.667 -22.124 -13.957  0.00  0.00    +0.024 A 
ATOM     33  C   UNL     1      10.415 -22.324 -13.270  0.00  0.00    +0.007 A 
ATOM     34  C   UNL     1       9.306 -21.442 -13.497  0.00  0.00    -0.029 A 
ATOM     35  C   UNL     1       7.990 -21.701 -12.728  0.00  0.00    +0.045 C 
ENDROOT
BRANCH  10   9
ATOM      4  C   UNL     1       7.677 -15.899 -14.738  0.00  0.00    +0.077 A 
ATOM      5  C   UNL     1       8.907 -15.306 -14.301  0.00  0.00    +0.048 A 
ATOM      6  C   UNL     1       9.979 -16.178 -14.004  0.00  0.00    +0.116 A 
ATOM      7  N   UNL     1       9.820 -17.540 -14.139  0.00  0.00    -0.223 NA
ATOM      8  C   UNL     1       8.619 -18.080 -14.561  0.00  0.00    +0.220 A 
ATOM      9  N   UNL     1       8.440 -19.446 -14.711  0.00  0.00    -0.283 N 
ATOM     36  H   UNL     1       7.536 -19.805 -15.018  0.00  0.00    +0.155 HD
ATOM     37  N   UNL     1       7.581 -17.268 -14.849  0.00  0.00    -0.214 NA
BRANCH   4   3
ATOM      1  C   UNL     1       5.067 -13.003 -15.063  0.00  0.00    +0.020 A 
ATOM      2  C   UNL     1       6.266 -13.721 -14.694  0.00  0.00    +0.013 A 
ATOM      3  C   UNL     1       6.455 -15.110 -15.093  0.00  0.00    +0.019 A 
ATOM     38  C   UNL     1       5.404 -15.748 -15.871  0.00  0.00    +0.120 A 
ATOM     39  N   UNL     1       4.260 -15.033 -16.210  0.00  0.00    -0.263 NA
ATOM     40  C   UNL     1       4.066 -13.696 -15.831  0.00  0.00    +0.111 A 
ENDBRANCH   4   3
ENDBRANCH  10   9
BRANCH  12  13
ATOM     13  N   UNL     1      13.127 -20.908 -15.518  0.00  0.00    -0.281 N 
ATOM     14  C   UNL     1      13.401 -20.869 -16.875  0.00  0.00    +0.248 C 
ATOM     30  O   UNL     1      12.602 -21.165 -17.750  0.00  0.00    -0.270 OA
ATOM     31  H   UNL     1      13.931 -20.827 -14.895  0.00  0.00    +0.155 HD
BRANCH  14  15
ATOM     15  C   UNL     1      14.765 -20.454 -17.324  0.00  0.00    +0.037 A 
ATOM     16  C   UNL     1      15.039 -20.137 -18.728  0.00  0.00    +0.013 A 
ATOM     17  C   UNL     1      16.367 -19.756 -19.137  0.00  0.00    +0.005 A 
ATOM     18  C   UNL     1      17.433 -19.689 -18.140  0.00  0.00    -0.033 A 
ATOM     28  C   UNL     1      17.132 -20.004 -16.753  0.00  0.00    +0.005 A 
ATOM     29  C   UNL     1      15.831 -20.379 -16.348  0.00  0.00    +0.013 A 
BRANCH  18  19
ATOM     19  C   UNL     1      18.884 -19.313 -18.491  0.00  0.00    +0.119 C 
BRANCH  19  20
ATOM     20  N   UNL     1      19.088 -18.134 -19.384  0.00  0.00    -0.302 NA
ATOM     21  C   UNL     1      20.571 -17.882 -19.674  0.00  0.00    +0.066 C 
ATOM     22  C   UNL     1      20.765 -16.659 -20.628  0.00  0.00    -0.064 C 
ATOM     23  N   UNL     1      20.116 -15.421 -20.005  0.00  0.00    +0.379 N 
ATOM     24  C   UNL     1      20.347 -14.257 -20.873  0.00  0.00    -0.096 C 
ATOM     25  H   UNL     1      20.626 -15.226 -19.034  0.00  0.00    -0.082 HD
ATOM     26  C   UNL     1      18.643 -15.664 -19.712  0.00  0.00    -0.064 C 
ATOM     27  C   UNL     1      18.459 -16.900 -18.786  0.00  0.00    +0.066 C 
ENDBRANCH  19  20
ENDBRANCH  18  19
ENDBRANCH  14  15
ENDBRANCH  12  13
TORSDOF 6
ENDMDL
