MODEL 1
REMARK VINA RESULT:      -9.7      0.000      0.000
REMARK  Name = C:\Users\Docking\Desktop\test protocol\1iep_ligandH.pdb
REMARK  8 active torsions:
REMARK  status: ('A' for Active; 'I' for Inactive)
REMARK    1  A    between atoms: _5  and  _11
REMARK    2  A    between atoms: _19  and  _21
REMARK    3  A    between atoms: _22  and  _66
REMARK    4  A    between atoms: _27  and  _30
REMARK    5  A    between atoms: _32  and  _33
REMARK    6  A    between atoms: _38  and  _43
REMARK    7  A    between atoms: _43  and  _46
REMARK    8  A    between atoms: _53  and  _55
REMARK                            x       y       z     vdW  Elec       q    Type
REMARK                         _______ _______ _______ _____ _____    ______ ____
ROOT
ATOM     10  C   UNL     1       0.212   8.440  30.188  0.00  0.00    +0.038 A 
ATOM     11  C   UNL     1       0.017   8.215  28.802  0.00  0.00    +0.047 A 
ATOM     12  C   UNL     1      -1.267   7.767  28.285  0.00  0.00    +0.035 A 
ATOM     32  C   UNL     1      -2.332   7.560  29.209  0.00  0.00    +0.024 A 
ATOM     33  C   UNL     1      -2.151   7.783  30.622  0.00  0.00    +0.007 A 
ATOM     34  C   UNL     1      -0.886   8.223  31.138  0.00  0.00    -0.029 A 
ATOM     35  C   UNL     1      -0.747   8.439  32.663  0.00  0.00    +0.045 C 
ENDROOT
BRANCH  10   9
ATOM      4  C   UNL     1       4.772   7.613  31.439  0.00  0.00    +0.077 A 
ATOM      5  C   UNL     1       4.637   6.201  31.220  0.00  0.00    +0.048 A 
ATOM      6  C   UNL     1       3.377   5.728  30.793  0.00  0.00    +0.116 A 
ATOM      7  N   UNL     1       2.335   6.609  30.602  0.00  0.00    -0.223 NA
ATOM      8  C   UNL     1       2.497   7.964  30.823  0.00  0.00    +0.220 A 
ATOM      9  N   UNL     1       1.466   8.870  30.629  0.00  0.00    -0.283 N 
ATOM     36  H   UNL     1       1.624   9.861  30.811  0.00  0.00    +0.155 HD
ATOM     37  N   UNL     1       3.691   8.441  31.233  0.00  0.00    -0.214 NA
BRANCH   4   3
ATOM      1  C   UNL     1       7.336   9.889  33.321  0.00  0.00    +0.020 A 
ATOM      2  C   UNL     1       6.083   9.290  32.924  0.00  0.00    +0.013 A 
ATOM      3  C   UNL     1       6.042   8.266  31.888  0.00  0.00    +0.019 A 
ATOM     38  C   UNL     1       7.297   7.866  31.269  0.00  0.00    +0.120 A 
ATOM     39  N   UNL     1       8.489   8.461  31.671  0.00  0.00    -0.263 NA
ATOM     40  C   UNL     1       8.540   9.449  32.666  0.00  0.00    +0.111 A 
ENDBRANCH   4   3
ENDBRANCH  10   9
BRANCH  12  13
ATOM     13  N   UNL     1      -1.521   7.515  26.888  0.00  0.00    -0.281 N 
ATOM     14  C   UNL     1      -2.492   8.087  26.083  0.00  0.00    +0.248 C 
ATOM     30  O   UNL     1      -3.431   8.751  26.497  0.00  0.00    -0.270 OA
ATOM     31  H   UNL     1      -0.912   6.830  26.439  0.00  0.00    +0.155 HD
BRANCH  14  15
ATOM     15  C   UNL     1      -2.416   7.881  24.604  0.00  0.00    +0.037 A 
ATOM     16  C   UNL     1      -2.997   8.850  23.671  0.00  0.00    +0.013 A 
ATOM     17  C   UNL     1      -2.925   8.619  22.250  0.00  0.00    +0.005 A 
ATOM     18  C   UNL     1      -2.268   7.413  21.753  0.00  0.00    -0.033 A 
ATOM     28  C   UNL     1      -1.695   6.471  22.701  0.00  0.00    +0.005 A 
ATOM     29  C   UNL     1      -1.765   6.694  24.094  0.00  0.00    +0.013 A 
BRANCH  18  19
ATOM     19  C   UNL     1      -2.163   7.074  20.255  0.00  0.00    +0.119 C 
BRANCH  19  20
ATOM     20  N   UNL     1      -2.124   8.219  19.296  0.00  0.00    -0.302 NA
ATOM     21  C   UNL     1      -3.258   8.148  18.270  0.00  0.00    +0.066 C 
ATOM     22  C   UNL     1      -3.214   9.365  17.289  0.00  0.00    -0.064 C 
ATOM     23  N   UNL     1      -1.854   9.406  16.591  0.00  0.00    +0.379 N 
ATOM     24  C   UNL     1      -1.831  10.515  15.626  0.00  0.00    -0.096 C 
ATOM     25  H   UNL     1      -1.739   8.457  16.019  0.00  0.00    -0.082 HD
ATOM     26  C   UNL     1      -0.720   9.474  17.605  0.00  0.00    -0.064 C 
ATOM     27  C   UNL     1      -0.790   8.276  18.592  0.00  0.00    +0.066 C 
ENDBRANCH  19  20
ENDBRANCH  18  19
ENDBRANCH  14  15
ENDBRANCH  12  13
TORSDOF 6
ENDMDL
MODEL 2
REMARK VINA RESULT:      -9.3      1.951      2.745
REMARK  Name = C:\Users\Docking\Desktop\test protocol\1iep_ligandH.pdb
REMARK  8 active torsions:
REMARK  status: ('A' for Active; 'I' for Inactive)
REMARK    1  A    between atoms: _5  and  _11
REMARK    2  A    between atoms: _19  and  _21
REMARK    3  A    between atoms: _22  and  _66
REMARK    4  A    between atoms: _27  and  _30
REMARK    5  A    between atoms: _32  and  _33
REMARK    6  A    between atoms: _38  and  _43
REMARK    7  A    between atoms: _43  and  _46
REMARK    8  A    between atoms: _53  and  _55
REMARK                            x       y       z     vdW  Elec       q    Type
REMARK                         _______ _______ _______ _____ _____    ______ ____
ROOT
ATOM     10  C   UNL     1       0.106   6.232  30.277  0.00  0.00    +0.038 A 
ATOM     11  C   UNL     1      -0.086   6.586  28.917  0.00  0.00    +0.047 A 
ATOM     12  C   UNL     1      -1.289   7.279  28.483  0.00  0.00    +0.035 A 
ATOM     32  C   UNL     1      -2.275   7.598  29.461  0.00  0.00    +0.024 A 
ATOM     33  C   UNL     1      -2.097   7.245  30.848  0.00  0.00    +0.007 A 
ATOM     34  C   UNL     1      -0.913   6.559  31.281  0.00  0.00    -0.029 A 
ATOM     35  C   UNL     1      -0.777   6.199  32.779  0.00  0.00    +0.045 C 
ENDROOT
BRANCH  10   9
ATOM      4  C   UNL     1       4.818   6.158  31.189  0.00  0.00    +0.077 A 
ATOM      5  C   UNL     1       4.957   7.555  30.894  0.00  0.00    +0.048 A 
ATOM      6  C   UNL     1       3.793   8.255  30.505  0.00  0.00    +0.116 A 
ATOM      7  N   UNL     1       2.585   7.597  30.420  0.00  0.00    -0.223 NA
ATOM      8  C   UNL     1       2.486   6.248  30.709  0.00  0.00    +0.220 A 
ATOM      9  N   UNL     1       1.281   5.568  30.638  0.00  0.00    -0.283 N 
ATOM     36  H   UNL     1       1.251   4.571  30.852  0.00  0.00    +0.155 HD
ATOM     37  N   UNL     1       3.584   5.557  31.082  0.00  0.00    -0.214 NA
BRANCH   4   3
ATOM      1  C   UNL     1       8.413   4.769  31.855  0.00  0.00    +0.020 A 
ATOM      2  C   UNL     1       7.353   5.649  31.423  0.00  0.00    +0.013 A 
ATOM      3  C   UNL     1       5.955   5.283  31.616  0.00  0.00    +0.019 A 
ATOM     38  C   UNL     1       5.663   4.010  32.256  0.00  0.00    +0.120 A 
ATOM     39  N   UNL     1       6.705   3.181  32.660  0.00  0.00    -0.263 NA
ATOM     40  C   UNL     1       8.054   3.522  32.478  0.00  0.00    +0.111 A 
ENDBRANCH   4   3
ENDBRANCH  10   9
BRANCH  12  13
ATOM     13  N   UNL     1      -1.544   7.656  27.115  0.00  0.00    -0.281 N 
ATOM     14  C   UNL     1      -1.729   6.825  26.022  0.00  0.00    +0.248 C 
ATOM     30  O   UNL     1      -1.490   5.627  26.017  0.00  0.00    -0.270 OA
ATOM     31  H   UNL     1      -1.593   8.658  26.929  0.00  0.00    +0.155 HD
BRANCH  14  15
ATOM     15  C   UNL     1      -2.239   7.413  24.746  0.00  0.00    +0.037 A 
ATOM     16  C   UNL     1      -1.819   6.885  23.445  0.00  0.00    +0.013 A 
ATOM     17  C   UNL     1      -2.313   7.481  22.229  0.00  0.00    +0.005 A 
ATOM     18  C   UNL     1      -3.234   8.613  22.309  0.00  0.00    -0.033 A 
ATOM     28  C   UNL     1      -3.638   9.113  23.613  0.00  0.00    +0.005 A 
ATOM     29  C   UNL     1      -3.155   8.532  24.807  0.00  0.00    +0.013 A 
BRANCH  18  19
ATOM     19  C   UNL     1      -3.794   9.324  21.063  0.00  0.00    +0.119 C 
BRANCH  19  20
ATOM     20  N   UNL     1      -3.005   9.215  19.800  0.00  0.00    -0.302 NA
ATOM     21  C   UNL     1      -1.899  10.270  19.721  0.00  0.00    +0.066 C 
ATOM     22  C   UNL     1      -1.069  10.126  18.404  0.00  0.00    -0.064 C 
ATOM     23  N   UNL     1      -2.006  10.233  17.200  0.00  0.00    +0.379 N 
ATOM     24  C   UNL     1      -1.221  10.157  15.959  0.00  0.00    -0.096 C 
ATOM     25  H   UNL     1      -2.487  11.238  17.234  0.00  0.00    -0.082 HD
ATOM     26  C   UNL     1      -3.111   9.189  17.272  0.00  0.00    -0.064 C 
ATOM     27  C   UNL     1      -3.911   9.322  18.598  0.00  0.00    +0.066 C 
ENDBRANCH  19  20
ENDBRANCH  18  19
ENDBRANCH  14  15
ENDBRANCH  12  13
TORSDOF 6
ENDMDL
MODEL 3
REMARK VINA RESULT:      -9.3      3.811      5.530
REMARK  Name = C:\Users\Docking\Desktop\test protocol\1iep_ligandH.pdb
REMARK  8 active torsions:
REMARK  status: ('A' for Active; 'I' for Inactive)
REMARK    1  A    between atoms: _5  and  _11
REMARK    2  A    between atoms: _19  and  _21
REMARK    3  A    between atoms: _22  and  _66
REMARK    4  A    between atoms: _27  and  _30
REMARK    5  A    between atoms: _32  and  _33
REMARK    6  A    between atoms: _38  and  _43
REMARK    7  A    between atoms: _43  and  _46
REMARK    8  A    between atoms: _53  and  _55
REMARK                            x       y       z     vdW  Elec       q    Type
REMARK                         _______ _______ _______ _____ _____    ______ ____
ROOT
ATOM     10  C   UNL     1      -0.239   4.799  30.266  0.00  0.00    +0.038 A 
ATOM     11  C   UNL     1      -0.509   5.216  28.937  0.00  0.00    +0.047 A 
ATOM     12  C   UNL     1      -0.839   6.600  28.635  0.00  0.00    +0.035 A 
ATOM     32  C   UNL     1      -0.882   7.535  29.711  0.00  0.00    +0.024 A 
ATOM     33  C   UNL     1      -0.612   7.128  31.067  0.00  0.00    +0.007 A 
ATOM     34  C   UNL     1      -0.288   5.763  31.372  0.00  0.00    -0.029 A 
ATOM     35  C   UNL     1      -0.013   5.382  32.845  0.00  0.00    +0.045 C 
ENDROOT
BRANCH  10   9
ATOM      4  C   UNL     1       2.911   1.219  30.812  0.00  0.00    +0.077 A 
ATOM      5  C   UNL     1       4.029   2.090  30.588  0.00  0.00    +0.048 A 
ATOM      6  C   UNL     1       3.750   3.450  30.329  0.00  0.00    +0.116 A 
ATOM      7  N   UNL     1       2.447   3.896  30.298  0.00  0.00    -0.223 NA
ATOM      8  C   UNL     1       1.392   3.030  30.517  0.00  0.00    +0.220 A 
ATOM      9  N   UNL     1       0.073   3.458  30.499  0.00  0.00    -0.283 N 
ATOM     36  H   UNL     1      -0.677   2.786  30.657  0.00  0.00    +0.155 HD
ATOM     37  N   UNL     1       1.631   1.725  30.765  0.00  0.00    -0.214 NA
BRANCH   4   3
ATOM      1  C   UNL     1       3.421  -2.637  30.400  0.00  0.00    +0.020 A 
ATOM      2  C   UNL     1       3.301  -1.237  30.066  0.00  0.00    +0.013 A 
ATOM      3  C   UNL     1       3.043  -0.244  31.102  0.00  0.00    +0.019 A 
ATOM     38  C   UNL     1       2.912  -0.705  32.476  0.00  0.00    +0.120 A 
ATOM     39  N   UNL     1       3.031  -2.060  32.767  0.00  0.00    -0.263 NA
ATOM     40  C   UNL     1       3.277  -3.025  31.778  0.00  0.00    +0.111 A 
ENDBRANCH   4   3
ENDBRANCH  10   9
BRANCH  12  13
ATOM     13  N   UNL     1      -1.130   7.080  27.307  0.00  0.00    -0.281 N 
ATOM     14  C   UNL     1      -1.372   6.333  26.166  0.00  0.00    +0.248 C 
ATOM     30  O   UNL     1      -1.163   5.133  26.068  0.00  0.00    -0.270 OA
ATOM     31  H   UNL     1      -1.162   8.094  27.195  0.00  0.00    +0.155 HD
BRANCH  14  15
ATOM     15  C   UNL     1      -1.911   7.022  24.953  0.00  0.00    +0.037 A 
ATOM     16  C   UNL     1      -1.638   6.513  23.607  0.00  0.00    +0.013 A 
ATOM     17  C   UNL     1      -2.155   7.206  22.453  0.00  0.00    +0.005 A 
ATOM     18  C   UNL     1      -2.954   8.415  22.643  0.00  0.00    -0.033 A 
ATOM     28  C   UNL     1      -3.214   8.894  23.990  0.00  0.00    +0.005 A 
ATOM     29  C   UNL     1      -2.707   8.218  25.123  0.00  0.00    +0.013 A 
BRANCH  18  19
ATOM     19  C   UNL     1      -3.528   9.230  21.469  0.00  0.00    +0.119 C 
BRANCH  19  20
ATOM     20  N   UNL     1      -2.881   9.057  20.134  0.00  0.00    -0.302 NA
ATOM     21  C   UNL     1      -1.869  10.168  19.838  0.00  0.00    +0.066 C 
ATOM     22  C   UNL     1      -1.185   9.959  18.448  0.00  0.00    -0.064 C 
ATOM     23  N   UNL     1      -2.257   9.898  17.359  0.00  0.00    +0.379 N 
ATOM     24  C   UNL     1      -1.613   9.760  16.044  0.00  0.00    -0.096 C 
ATOM     25  H   UNL     1      -2.803  10.870  17.368  0.00  0.00    -0.082 HD
ATOM     26  C   UNL     1      -3.268   8.798  17.647  0.00  0.00    -0.064 C 
ATOM     27  C   UNL     1      -3.921   8.999  19.043  0.00  0.00    +0.066 C 
ENDBRANCH  19  20
ENDBRANCH  18  19
ENDBRANCH  14  15
ENDBRANCH  12  13
TORSDOF 6
ENDMDL
MODEL 4
REMARK VINA RESULT:      -9.0      3.740      4.663
REMARK  Name = C:\Users\Docking\Desktop\test protocol\1iep_ligandH.pdb
REMARK  8 active torsions:
REMARK  status: ('A' for Active; 'I' for Inactive)
REMARK    1  A    between atoms: _5  and  _11
REMARK    2  A    between atoms: _19  and  _21
REMARK    3  A    between atoms: _22  and  _66
REMARK    4  A    between atoms: _27  and  _30
REMARK    5  A    between atoms: _32  and  _33
REMARK    6  A    between atoms: _38  and  _43
REMARK    7  A    between atoms: _43  and  _46
REMARK    8  A    between atoms: _53  and  _55
REMARK                            x       y       z     vdW  Elec       q    Type
REMARK                         _______ _______ _______ _____ _____    ______ ____
ROOT
ATOM     10  C   UNL     1      -0.012   6.128  31.121  0.00  0.00    +0.038 A 
ATOM     11  C   UNL     1      -0.114   6.430  29.739  0.00  0.00    +0.047 A 
ATOM     12  C   UNL     1      -1.175   7.287  29.233  0.00  0.00    +0.035 A 
ATOM     32  C   UNL     1      -2.113   7.823  30.163  0.00  0.00    +0.024 A 
ATOM     33  C   UNL     1      -2.024   7.526  31.571  0.00  0.00    +0.007 A 
ATOM     34  C   UNL     1      -0.981   6.679  32.076  0.00  0.00    -0.029 A 
ATOM     35  C   UNL     1      -0.938   6.390  33.595  0.00  0.00    +0.045 C 
ENDROOT
BRANCH  10   9
ATOM      4  C   UNL     1       1.800   1.809  32.169  0.00  0.00    +0.077 A 
ATOM      5  C   UNL     1       0.565   1.150  31.856  0.00  0.00    +0.048 A 
ATOM      6  C   UNL     1      -0.515   1.959  31.436  0.00  0.00    +0.116 A 
ATOM      7  N   UNL     1      -0.359   3.325  31.339  0.00  0.00    -0.223 NA
ATOM      8  C   UNL     1       0.845   3.929  31.650  0.00  0.00    +0.220 A 
ATOM      9  N   UNL     1       1.027   5.300  31.553  0.00  0.00    -0.283 N 
ATOM     36  H   UNL     1       1.928   5.708  31.799  0.00  0.00    +0.155 HD
ATOM     37  N   UNL     1       1.891   3.178  32.056  0.00  0.00    -0.214 NA
BRANCH   4   3
ATOM      1  C   UNL     1       4.392  -1.002  32.993  0.00  0.00    +0.020 A 
ATOM      2  C   UNL     1       3.181  -0.358  32.541  0.00  0.00    +0.013 A 
ATOM      3  C   UNL     1       3.032   1.090  32.624  0.00  0.00    +0.019 A 
ATOM     38  C   UNL     1       4.136   1.862  33.174  0.00  0.00    +0.120 A 
ATOM     39  N   UNL     1       5.289   1.213  33.603  0.00  0.00    -0.263 NA
ATOM     40  C   UNL     1       5.443  -0.179  33.529  0.00  0.00    +0.111 A 
ENDBRANCH   4   3
ENDBRANCH  10   9
BRANCH  12  13
ATOM     13  N   UNL     1      -1.334   7.621  27.839  0.00  0.00    -0.281 N 
ATOM     14  C   UNL     1      -1.512   6.757  26.771  0.00  0.00    +0.248 C 
ATOM     30  O   UNL     1      -1.347   5.547  26.826  0.00  0.00    -0.270 OA
ATOM     31  H   UNL     1      -1.313   8.615  27.612  0.00  0.00    +0.155 HD
BRANCH  14  15
ATOM     15  C   UNL     1      -1.918   7.319  25.447  0.00  0.00    +0.037 A 
ATOM     16  C   UNL     1      -2.715   8.545  25.355  0.00  0.00    +0.013 A 
ATOM     17  C   UNL     1      -3.108   9.057  24.066  0.00  0.00    +0.005 A 
ATOM     18  C   UNL     1      -2.703   8.343  22.858  0.00  0.00    -0.033 A 
ATOM     28  C   UNL     1      -1.908   7.132  22.978  0.00  0.00    +0.005 A 
ATOM     29  C   UNL     1      -1.522   6.627  24.240  0.00  0.00    +0.013 A 
BRANCH  18  19
ATOM     19  C   UNL     1      -3.095   8.804  21.442  0.00  0.00    +0.119 C 
BRANCH  19  20
ATOM     20  N   UNL     1      -2.175   8.437  20.324  0.00  0.00    -0.302 NA
ATOM     21  C   UNL     1      -1.884   9.628  19.405  0.00  0.00    +0.066 C 
ATOM     22  C   UNL     1      -0.902   9.232  18.254  0.00  0.00    -0.064 C 
ATOM     23  N   UNL     1      -1.496   8.067  17.460  0.00  0.00    +0.379 N 
ATOM     24  C   UNL     1      -0.603   7.730  16.342  0.00  0.00    -0.096 C 
ATOM     25  H   UNL     1      -2.464   8.412  17.028  0.00  0.00    -0.082 HD
ATOM     26  C   UNL     1      -1.791   6.880  18.366  0.00  0.00    -0.064 C 
ATOM     27  C   UNL     1      -2.744   7.292  19.523  0.00  0.00    +0.066 C 
ENDBRANCH  19  20
ENDBRANCH  18  19
ENDBRANCH  14  15
ENDBRANCH  12  13
TORSDOF 6
ENDMDL
MODEL 5
REMARK VINA RESULT:      -8.8      5.056     11.306
REMARK  Name = C:\Users\Docking\Desktop\test protocol\1iep_ligandH.pdb
REMARK  8 active torsions:
REMARK  status: ('A' for Active; 'I' for Inactive)
REMARK    1  A    between atoms: _5  and  _11
REMARK    2  A    between atoms: _19  and  _21
REMARK    3  A    between atoms: _22  and  _66
REMARK    4  A    between atoms: _27  and  _30
REMARK    5  A    between atoms: _32  and  _33
REMARK    6  A    between atoms: _38  and  _43
REMARK    7  A    between atoms: _43  and  _46
REMARK    8  A    between atoms: _53  and  _55
REMARK                            x       y       z     vdW  Elec       q    Type
REMARK                         _______ _______ _______ _____ _____    ______ ____
ROOT
ATOM     10  C   UNL     1      -1.260   6.378  28.268  0.00  0.00    +0.038 A 
ATOM     11  C   UNL     1      -1.860   7.501  28.893  0.00  0.00    +0.047 A 
ATOM     12  C   UNL     1      -2.111   7.520  30.326  0.00  0.00    +0.035 A 
ATOM     32  C   UNL     1      -1.734   6.379  31.092  0.00  0.00    +0.024 A 
ATOM     33  C   UNL     1      -1.124   5.229  30.473  0.00  0.00    +0.007 A 
ATOM     34  C   UNL     1      -0.877   5.203  29.060  0.00  0.00    -0.029 A 
ATOM     35  C   UNL     1      -0.226   3.941  28.449  0.00  0.00    +0.045 C 
ENDROOT
BRANCH  10   9
ATOM      4  C   UNL     1      -2.319   7.942  23.855  0.00  0.00    +0.077 A 
ATOM      5  C   UNL     1      -3.414   8.735  24.335  0.00  0.00    +0.048 A 
ATOM      6  C   UNL     1      -3.677   8.707  25.723  0.00  0.00    +0.116 A 
ATOM      7  N   UNL     1      -2.895   7.940  26.560  0.00  0.00    -0.223 NA
ATOM      8  C   UNL     1      -1.847   7.186  26.064  0.00  0.00    +0.220 A 
ATOM      9  N   UNL     1      -1.043   6.414  26.888  0.00  0.00    -0.283 N 
ATOM     36  H   UNL     1      -0.285   5.866  26.483  0.00  0.00    +0.155 HD
ATOM     37  N   UNL     1      -1.577   7.194  24.742  0.00  0.00    -0.214 NA
BRANCH   4   3
ATOM      1  C   UNL     1      -0.760   6.753  20.470  0.00  0.00    +0.020 A 
ATOM      2  C   UNL     1      -1.123   6.775  21.869  0.00  0.00    +0.013 A 
ATOM      3  C   UNL     1      -1.915   7.870  22.415  0.00  0.00    +0.019 A 
ATOM     38  C   UNL     1      -2.328   8.934  21.513  0.00  0.00    +0.120 A 
ATOM     39  N   UNL     1      -1.962   8.887  20.171  0.00  0.00    -0.263 NA
ATOM     40  C   UNL     1      -1.199   7.840  19.635  0.00  0.00    +0.111 A 
ENDBRANCH   4   3
ENDBRANCH  10   9
BRANCH  12  13
ATOM     13  N   UNL     1      -2.724   8.628  31.014  0.00  0.00    -0.281 N 
ATOM     14  C   UNL     1      -2.163   9.446  31.982  0.00  0.00    +0.248 C 
ATOM     30  O   UNL     1      -1.111   9.213  32.558  0.00  0.00    -0.270 OA
ATOM     31  H   UNL     1      -3.690   8.835  30.758  0.00  0.00    +0.155 HD
BRANCH  14  15
ATOM     15  C   UNL     1      -2.881  10.696  32.376  0.00  0.00    +0.037 A 
ATOM     16  C   UNL     1      -4.264  10.658  32.857  0.00  0.00    +0.013 A 
ATOM     17  C   UNL     1      -4.939  11.881  33.214  0.00  0.00    +0.005 A 
ATOM     18  C   UNL     1      -4.231  13.152  33.093  0.00  0.00    -0.033 A 
ATOM     28  C   UNL     1      -2.857  13.160  32.617  0.00  0.00    +0.005 A 
ATOM     29  C   UNL     1      -2.192  11.964  32.265  0.00  0.00    +0.013 A 
BRANCH  18  19
ATOM     19  C   UNL     1      -4.879  14.507  33.431  0.00  0.00    +0.119 C 
BRANCH  19  20
ATOM     20  N   UNL     1      -5.984  14.977  32.543  0.00  0.00    -0.302 NA
ATOM     21  C   UNL     1      -7.337  14.980  33.261  0.00  0.00    +0.066 C 
ATOM     22  C   UNL     1      -8.477  15.496  32.324  0.00  0.00    -0.064 C 
ATOM     23  N   UNL     1      -8.533  14.626  31.067  0.00  0.00    +0.379 N 
ATOM     24  C   UNL     1      -9.642  15.073  30.211  0.00  0.00    -0.096 C 
ATOM     25  H   UNL     1      -8.753  13.582  31.388  0.00  0.00    -0.082 HD
ATOM     26  C   UNL     1      -7.191  14.616  30.348  0.00  0.00    -0.064 C 
ATOM     27  C   UNL     1      -6.060  14.130  31.297  0.00  0.00    +0.066 C 
ENDBRANCH  19  20
ENDBRANCH  18  19
ENDBRANCH  14  15
ENDBRANCH  12  13
TORSDOF 6
ENDMDL
