MODEL 1
REMARK VINA RESULT:      -8.6      0.000      0.000
REMARK  Name = C:\Users\Docking\Desktop\test protocol\1iep_ligandH.pdb
REMARK  8 active torsions:
REMARK  status: ('A' for Active; 'I' for Inactive)
REMARK    1  A    between atoms: _5  and  _11
REMARK    2  A    between atoms: _19  and  _21
REMARK    3  A    between atoms: _22  and  _66
REMARK    4  A    between atoms: _27  and  _30
REMARK    5  A    between atoms: _32  and  _33
REMARK    6  A    between atoms: _38  and  _43
REMARK    7  A    between atoms: _43  and  _46
REMARK    8  A    between atoms: _53  and  _55
REMARK                            x       y       z     vdW  Elec       q    Type
REMARK                         _______ _______ _______ _____ _____    ______ ____
ROOT
ATOM     10  C   UNL     1      52.718 -57.246 -13.104  0.00  0.00    +0.038 A 
ATOM     11  C   UNL     1      54.135 -57.225 -13.039  0.00  0.00    +0.047 A 
ATOM     12  C   UNL     1      54.926 -58.365 -13.476  0.00  0.00    +0.035 A 
ATOM     32  C   UNL     1      54.240 -59.510 -13.977  0.00  0.00    +0.024 A 
ATOM     33  C   UNL     1      52.801 -59.549 -14.049  0.00  0.00    +0.007 A 
ATOM     34  C   UNL     1      52.016 -58.429 -13.617  0.00  0.00    -0.029 A 
ATOM     35  C   UNL     1      50.475 -58.529 -13.711  0.00  0.00    +0.045 C 
ENDROOT
BRANCH  10   9
ATOM      4  C   UNL     1      50.621 -53.002 -13.891  0.00  0.00    +0.077 A 
ATOM      5  C   UNL     1      50.992 -53.008 -15.276  0.00  0.00    +0.048 A 
ATOM      6  C   UNL     1      51.729 -54.119 -15.745  0.00  0.00    +0.116 A 
ATOM      7  N   UNL     1      52.063 -55.141 -14.884  0.00  0.00    -0.223 NA
ATOM      8  C   UNL     1      51.691 -55.103 -13.553  0.00  0.00    +0.220 A 
ATOM      9  N   UNL     1      52.009 -56.124 -12.671  0.00  0.00    -0.283 N 
ATOM     36  H   UNL     1      51.722 -56.055 -11.695  0.00  0.00    +0.155 HD
ATOM     37  N   UNL     1      50.988 -54.053 -13.080  0.00  0.00    -0.214 NA
BRANCH   4   3
ATOM      1  C   UNL     1      49.653 -49.639 -12.143  0.00  0.00    +0.020 A 
ATOM      2  C   UNL     1      50.454 -50.673 -12.757  0.00  0.00    +0.013 A 
ATOM      3  C   UNL     1      49.838 -51.900 -13.247  0.00  0.00    +0.019 A 
ATOM     38  C   UNL     1      48.398 -52.050 -13.100  0.00  0.00    +0.120 A 
ATOM     39  N   UNL     1      47.653 -51.038 -12.503  0.00  0.00    -0.263 NA
ATOM     40  C   UNL     1      48.234 -49.854 -12.027  0.00  0.00    +0.111 A 
ENDBRANCH   4   3
ENDBRANCH  10   9
BRANCH  12  13
ATOM     13  N   UNL     1      56.366 -58.404 -13.426  0.00  0.00    -0.281 N 
ATOM     14  C   UNL     1      57.265 -57.768 -14.267  0.00  0.00    +0.248 C 
ATOM     30  O   UNL     1      56.964 -57.238 -15.326  0.00  0.00    -0.270 OA
ATOM     31  H   UNL     1      56.773 -58.969 -12.680  0.00  0.00    +0.155 HD
BRANCH  14  15
ATOM     15  C   UNL     1      58.709 -57.728 -13.883  0.00  0.00    +0.037 A 
ATOM     16  C   UNL     1      59.686 -56.978 -14.676  0.00  0.00    +0.013 A 
ATOM     17  C   UNL     1      61.076 -56.970 -14.293  0.00  0.00    +0.005 A 
ATOM     18  C   UNL     1      61.496 -57.714 -13.108  0.00  0.00    -0.033 A 
ATOM     28  C   UNL     1      60.505 -58.446 -12.336  0.00  0.00    +0.005 A 
ATOM     29  C   UNL     1      59.142 -58.457 -12.710  0.00  0.00    +0.013 A 
BRANCH  18  19
ATOM     19  C   UNL     1      62.961 -57.779 -12.637  0.00  0.00    +0.119 C 
BRANCH  19  20
ATOM     20  N   UNL     1      63.584 -59.131 -12.525  0.00  0.00    -0.302 NA
ATOM     21  C   UNL     1      64.992 -59.067 -11.927  0.00  0.00    +0.066 C 
ATOM     22  C   UNL     1      65.621 -60.493 -11.796  0.00  0.00    -0.064 C 
ATOM     23  N   UNL     1      65.646 -61.164 -13.170  0.00  0.00    +0.379 N 
ATOM     24  C   UNL     1      66.289 -62.482 -13.060  0.00  0.00    -0.096 C 
ATOM     25  H   UNL     1      66.275 -60.536 -13.842  0.00  0.00    -0.082 HD
ATOM     26  C   UNL     1      64.250 -61.230 -13.773  0.00  0.00    -0.064 C 
ATOM     27  C   UNL     1      63.623 -59.811 -13.872  0.00  0.00    +0.066 C 
ENDBRANCH  19  20
ENDBRANCH  18  19
ENDBRANCH  14  15
ENDBRANCH  12  13
TORSDOF 6
ENDMDL
MODEL 2
REMARK VINA RESULT:      -8.5      1.764      2.622
REMARK  Name = C:\Users\Docking\Desktop\test protocol\1iep_ligandH.pdb
REMARK  8 active torsions:
REMARK  status: ('A' for Active; 'I' for Inactive)
REMARK    1  A    between atoms: _5  and  _11
REMARK    2  A    between atoms: _19  and  _21
REMARK    3  A    between atoms: _22  and  _66
REMARK    4  A    between atoms: _27  and  _30
REMARK    5  A    between atoms: _32  and  _33
REMARK    6  A    between atoms: _38  and  _43
REMARK    7  A    between atoms: _43  and  _46
REMARK    8  A    between atoms: _53  and  _55
REMARK                            x       y       z     vdW  Elec       q    Type
REMARK                         _______ _______ _______ _____ _____    ______ ____
ROOT
ATOM     10  C   UNL     1      52.767 -57.181 -12.773  0.00  0.00    +0.038 A 
ATOM     11  C   UNL     1      54.179 -57.105 -12.668  0.00  0.00    +0.047 A 
ATOM     12  C   UNL     1      55.023 -58.229 -13.043  0.00  0.00    +0.035 A 
ATOM     32  C   UNL     1      54.395 -59.415 -13.523  0.00  0.00    +0.024 A 
ATOM     33  C   UNL     1      52.960 -59.510 -13.636  0.00  0.00    +0.007 A 
ATOM     34  C   UNL     1      52.123 -58.405 -13.265  0.00  0.00    -0.029 A 
ATOM     35  C   UNL     1      50.590 -58.565 -13.400  0.00  0.00    +0.045 C 
ENDROOT
BRANCH  10   9
ATOM      4  C   UNL     1      50.507 -53.066 -13.774  0.00  0.00    +0.077 A 
ATOM      5  C   UNL     1      50.900 -53.118 -15.153  0.00  0.00    +0.048 A 
ATOM      6  C   UNL     1      51.689 -54.216 -15.562  0.00  0.00    +0.116 A 
ATOM      7  N   UNL     1      52.052 -55.185 -14.653  0.00  0.00    -0.223 NA
ATOM      8  C   UNL     1      51.658 -55.104 -13.330  0.00  0.00    +0.220 A 
ATOM      9  N   UNL     1      52.005 -56.072 -12.399  0.00  0.00    -0.283 N 
ATOM     36  H   UNL     1      51.701 -55.972 -11.431  0.00  0.00    +0.155 HD
ATOM     37  N   UNL     1      50.905 -54.065 -12.913  0.00  0.00    -0.214 NA
BRANCH   4   3
ATOM      1  C   UNL     1      49.384 -49.709 -12.111  0.00  0.00    +0.020 A 
ATOM      2  C   UNL     1      50.237 -50.736 -12.664  0.00  0.00    +0.013 A 
ATOM      3  C   UNL     1      49.670 -51.971 -13.190  0.00  0.00    +0.019 A 
ATOM     38  C   UNL     1      48.225 -52.138 -13.141  0.00  0.00    +0.120 A 
ATOM     39  N   UNL     1      47.429 -51.133 -12.601  0.00  0.00    -0.263 NA
ATOM     40  C   UNL     1      47.963 -49.940 -12.091  0.00  0.00    +0.111 A 
ENDBRANCH   4   3
ENDBRANCH  10   9
BRANCH  12  13
ATOM     13  N   UNL     1      56.462 -58.213 -12.950  0.00  0.00    -0.281 N 
ATOM     14  C   UNL     1      57.374 -57.839 -13.923  0.00  0.00    +0.248 C 
ATOM     30  O   UNL     1      57.095 -57.662 -15.100  0.00  0.00    -0.270 OA
ATOM     31  H   UNL     1      56.856 -58.515 -12.059  0.00  0.00    +0.155 HD
BRANCH  14  15
ATOM     15  C   UNL     1      58.805 -57.646 -13.536  0.00  0.00    +0.037 A 
ATOM     16  C   UNL     1      59.282 -57.994 -12.195  0.00  0.00    +0.013 A 
ATOM     17  C   UNL     1      60.664 -57.783 -11.842  0.00  0.00    +0.005 A 
ATOM     18  C   UNL     1      61.578 -57.221 -12.834  0.00  0.00    -0.033 A 
ATOM     28  C   UNL     1      61.079 -56.890 -14.158  0.00  0.00    +0.005 A 
ATOM     29  C   UNL     1      59.725 -57.095 -14.507  0.00  0.00    +0.013 A 
BRANCH  18  19
ATOM     19  C   UNL     1      63.064 -56.942 -12.538  0.00  0.00    +0.119 C 
BRANCH  19  20
ATOM     20  N   UNL     1      63.484 -56.924 -11.105  0.00  0.00    -0.302 NA
ATOM     21  C   UNL     1      63.449 -55.512 -10.513  0.00  0.00    +0.066 C 
ATOM     22  C   UNL     1      63.870 -55.516  -9.007  0.00  0.00    -0.064 C 
ATOM     23  N   UNL     1      65.266 -56.125  -8.872  0.00  0.00    +0.379 N 
ATOM     24  C   UNL     1      65.689 -56.077  -7.465  0.00  0.00    -0.096 C 
ATOM     25  H   UNL     1      65.970 -55.490  -9.459  0.00  0.00    -0.082 HD
ATOM     26  C   UNL     1      65.311 -57.528  -9.461  0.00  0.00    -0.064 C 
ATOM     27  C   UNL     1      64.863 -57.518 -10.949  0.00  0.00    +0.066 C 
ENDBRANCH  19  20
ENDBRANCH  18  19
ENDBRANCH  14  15
ENDBRANCH  12  13
TORSDOF 6
ENDMDL
MODEL 3
REMARK VINA RESULT:      -8.5     30.421     32.664
REMARK  Name = C:\Users\Docking\Desktop\test protocol\1iep_ligandH.pdb
REMARK  8 active torsions:
REMARK  status: ('A' for Active; 'I' for Inactive)
REMARK    1  A    between atoms: _5  and  _11
REMARK    2  A    between atoms: _19  and  _21
REMARK    3  A    between atoms: _22  and  _66
REMARK    4  A    between atoms: _27  and  _30
REMARK    5  A    between atoms: _32  and  _33
REMARK    6  A    between atoms: _38  and  _43
REMARK    7  A    between atoms: _43  and  _46
REMARK    8  A    between atoms: _53  and  _55
REMARK                            x       y       z     vdW  Elec       q    Type
REMARK                         _______ _______ _______ _____ _____    ______ ____
ROOT
ATOM     10  C   UNL     1      70.166 -33.514  -7.488  0.00  0.00    +0.038 A 
ATOM     11  C   UNL     1      70.832 -32.346  -7.036  0.00  0.00    +0.047 A 
ATOM     12  C   UNL     1      71.246 -32.205  -5.649  0.00  0.00    +0.035 A 
ATOM     32  C   UNL     1      70.968 -33.275  -4.749  0.00  0.00    +0.024 A 
ATOM     33  C   UNL     1      70.290 -34.468  -5.191  0.00  0.00    +0.007 A 
ATOM     34  C   UNL     1      69.877 -34.612  -6.558  0.00  0.00    -0.029 A 
ATOM     35  C   UNL     1      69.149 -35.911  -6.975  0.00  0.00    +0.045 C 
ENDROOT
BRANCH  10   9
ATOM      4  C   UNL     1      67.818 -31.864 -11.336  0.00  0.00    +0.077 A 
ATOM      5  C   UNL     1      67.271 -30.760 -10.602  0.00  0.00    +0.048 A 
ATOM      6  C   UNL     1      67.612 -30.656  -9.235  0.00  0.00    +0.116 A 
ATOM      7  N   UNL     1      68.440 -31.593  -8.655  0.00  0.00    -0.223 NA
ATOM      8  C   UNL     1      68.950 -32.647  -9.391  0.00  0.00    +0.220 A 
ATOM      9  N   UNL     1      69.791 -33.596  -8.831  0.00  0.00    -0.283 N 
ATOM     36  H   UNL     1      70.140 -34.363  -9.406  0.00  0.00    +0.155 HD
ATOM     37  N   UNL     1      68.638 -32.769 -10.698  0.00  0.00    -0.214 NA
BRANCH   4   3
ATOM      1  C   UNL     1      66.066 -32.073 -14.827  0.00  0.00    +0.020 A 
ATOM      2  C   UNL     1      66.270 -31.820 -13.419  0.00  0.00    +0.013 A 
ATOM      3  C   UNL     1      67.553 -32.108 -12.789  0.00  0.00    +0.019 A 
ATOM     38  C   UNL     1      68.616 -32.655 -13.618  0.00  0.00    +0.120 A 
ATOM     39  N   UNL     1      68.390 -32.890 -14.971  0.00  0.00    -0.263 NA
ATOM     40  C   UNL     1      67.159 -32.618 -15.588  0.00  0.00    +0.111 A 
ENDBRANCH   4   3
ENDBRANCH  10   9
BRANCH  12  13
ATOM     13  N   UNL     1      71.919 -31.040  -5.131  0.00  0.00    -0.281 N 
ATOM     14  C   UNL     1      71.482 -29.725  -5.152  0.00  0.00    +0.248 C 
ATOM     30  O   UNL     1      70.538 -29.321  -5.813  0.00  0.00    -0.270 OA
ATOM     31  H   UNL     1      72.827 -31.204  -4.696  0.00  0.00    +0.155 HD
BRANCH  14  15
ATOM     15  C   UNL     1      72.209 -28.710  -4.330  0.00  0.00    +0.037 A 
ATOM     16  C   UNL     1      72.686 -27.456  -4.918  0.00  0.00    +0.013 A 
ATOM     17  C   UNL     1      73.399 -26.501  -4.107  0.00  0.00    +0.005 A 
ATOM     18  C   UNL     1      73.638 -26.798  -2.696  0.00  0.00    -0.033 A 
ATOM     28  C   UNL     1      73.149 -28.047  -2.137  0.00  0.00    +0.005 A 
ATOM     29  C   UNL     1      72.451 -28.985  -2.929  0.00  0.00    +0.013 A 
BRANCH  18  19
ATOM     19  C   UNL     1      74.408 -25.847  -1.761  0.00  0.00    +0.119 C 
BRANCH  19  20
ATOM     20  N   UNL     1      74.003 -24.410  -1.762  0.00  0.00    -0.302 NA
ATOM     21  C   UNL     1      74.959 -23.542  -0.938  0.00  0.00    +0.066 C 
ATOM     22  C   UNL     1      74.533 -22.038  -0.969  0.00  0.00    -0.064 C 
ATOM     23  N   UNL     1      73.100 -21.907  -0.451  0.00  0.00    +0.379 N 
ATOM     24  C   UNL     1      72.716 -20.487  -0.424  0.00  0.00    -0.096 C 
ATOM     25  H   UNL     1      73.084 -22.281   0.598  0.00  0.00    -0.082 HD
ATOM     26  C   UNL     1      72.143 -22.768  -1.263  0.00  0.00    -0.064 C 
ATOM     27  C   UNL     1      72.592 -24.256  -1.251  0.00  0.00    +0.066 C 
ENDBRANCH  19  20
ENDBRANCH  18  19
ENDBRANCH  14  15
ENDBRANCH  12  13
TORSDOF 6
ENDMDL
MODEL 4
REMARK VINA RESULT:      -8.4      9.939     11.284
REMARK  Name = C:\Users\Docking\Desktop\test protocol\1iep_ligandH.pdb
REMARK  8 active torsions:
REMARK  status: ('A' for Active; 'I' for Inactive)
REMARK    1  A    between atoms: _5  and  _11
REMARK    2  A    between atoms: _19  and  _21
REMARK    3  A    between atoms: _22  and  _66
REMARK    4  A    between atoms: _27  and  _30
REMARK    5  A    between atoms: _32  and  _33
REMARK    6  A    between atoms: _38  and  _43
REMARK    7  A    between atoms: _43  and  _46
REMARK    8  A    between atoms: _53  and  _55
REMARK                            x       y       z     vdW  Elec       q    Type
REMARK                         _______ _______ _______ _____ _____    ______ ____
ROOT
ATOM     10  C   UNL     1      49.004 -51.575 -14.417  0.00  0.00    +0.038 A 
ATOM     11  C   UNL     1      49.789 -51.284 -15.561  0.00  0.00    +0.047 A 
ATOM     12  C   UNL     1      50.564 -50.056 -15.649  0.00  0.00    +0.035 A 
ATOM     32  C   UNL     1      50.517 -49.147 -14.552  0.00  0.00    +0.024 A 
ATOM     33  C   UNL     1      49.723 -49.427 -13.382  0.00  0.00    +0.007 A 
ATOM     34  C   UNL     1      48.955 -50.636 -13.290  0.00  0.00    -0.029 A 
ATOM     35  C   UNL     1      48.117 -50.880 -12.014  0.00  0.00    +0.045 C 
ENDROOT
BRANCH  10   9
ATOM      4  C   UNL     1      44.976 -54.102 -15.071  0.00  0.00    +0.077 A 
ATOM      5  C   UNL     1      44.244 -52.940 -15.486  0.00  0.00    +0.048 A 
ATOM      6  C   UNL     1      44.939 -51.710 -15.511  0.00  0.00    +0.116 A 
ATOM      7  N   UNL     1      46.267 -51.658 -15.146  0.00  0.00    -0.223 NA
ATOM      8  C   UNL     1      46.943 -52.797 -14.749  0.00  0.00    +0.220 A 
ATOM      9  N   UNL     1      48.280 -52.769 -14.385  0.00  0.00    -0.283 N 
ATOM     36  H   UNL     1      48.741 -53.630 -14.091  0.00  0.00    +0.155 HD
ATOM     37  N   UNL     1      46.301 -53.984 -14.716  0.00  0.00    -0.214 NA
BRANCH   4   3
ATOM      1  C   UNL     1      43.201 -57.458 -16.015  0.00  0.00    +0.020 A 
ATOM      2  C   UNL     1      43.760 -56.131 -16.140  0.00  0.00    +0.013 A 
ATOM      3  C   UNL     1      44.381 -55.474 -14.997  0.00  0.00    +0.019 A 
ATOM     38  C   UNL     1      44.422 -56.192 -13.732  0.00  0.00    +0.120 A 
ATOM     39  N   UNL     1      43.874 -57.468 -13.641  0.00  0.00    -0.263 NA
ATOM     40  C   UNL     1      43.272 -58.110 -14.733  0.00  0.00    +0.111 A 
ENDBRANCH   4   3
ENDBRANCH  10   9
BRANCH  12  13
ATOM     13  N   UNL     1      51.373 -49.702 -16.789  0.00  0.00    -0.281 N 
ATOM     14  C   UNL     1      52.756 -49.676 -16.877  0.00  0.00    +0.248 C 
ATOM     30  O   UNL     1      53.510 -49.747 -15.918  0.00  0.00    -0.270 OA
ATOM     31  H   UNL     1      50.866 -49.440 -17.634  0.00  0.00    +0.155 HD
BRANCH  14  15
ATOM     15  C   UNL     1      53.391 -49.536 -18.222  0.00  0.00    +0.037 A 
ATOM     16  C   UNL     1      53.926 -48.251 -18.680  0.00  0.00    +0.013 A 
ATOM     17  C   UNL     1      54.519 -48.140 -19.989  0.00  0.00    +0.005 A 
ATOM     18  C   UNL     1      54.581 -49.318 -20.850  0.00  0.00    -0.033 A 
ATOM     28  C   UNL     1      54.048 -50.582 -20.368  0.00  0.00    +0.005 A 
ATOM     29  C   UNL     1      53.465 -50.695 -19.086  0.00  0.00    +0.013 A 
BRANCH  18  19
ATOM     19  C   UNL     1      55.177 -49.287 -22.270  0.00  0.00    +0.119 C 
BRANCH  19  20
ATOM     20  N   UNL     1      55.330 -50.593 -22.976  0.00  0.00    -0.302 NA
ATOM     21  C   UNL     1      56.763 -50.817 -23.467  0.00  0.00    +0.066 C 
ATOM     22  C   UNL     1      56.911 -52.198 -24.184  0.00  0.00    -0.064 C 
ATOM     23  N   UNL     1      55.922 -52.273 -25.348  0.00  0.00    +0.379 N 
ATOM     24  C   UNL     1      56.098 -53.548 -26.060  0.00  0.00    -0.096 C 
ATOM     25  H   UNL     1      56.173 -51.452 -26.059  0.00  0.00    -0.082 HD
ATOM     26  C   UNL     1      54.494 -52.050 -24.870  0.00  0.00    -0.064 C 
ATOM     27  C   UNL     1      54.366 -50.687 -24.133  0.00  0.00    +0.066 C 
ENDBRANCH  19  20
ENDBRANCH  18  19
ENDBRANCH  14  15
ENDBRANCH  12  13
TORSDOF 6
ENDMDL
MODEL 5
REMARK VINA RESULT:      -8.2      1.663      2.136
REMARK  Name = C:\Users\Docking\Desktop\test protocol\1iep_ligandH.pdb
REMARK  8 active torsions:
REMARK  status: ('A' for Active; 'I' for Inactive)
REMARK    1  A    between atoms: _5  and  _11
REMARK    2  A    between atoms: _19  and  _21
REMARK    3  A    between atoms: _22  and  _66
REMARK    4  A    between atoms: _27  and  _30
REMARK    5  A    between atoms: _32  and  _33
REMARK    6  A    between atoms: _38  and  _43
REMARK    7  A    between atoms: _43  and  _46
REMARK    8  A    between atoms: _53  and  _55
REMARK                            x       y       z     vdW  Elec       q    Type
REMARK                         _______ _______ _______ _____ _____    ______ ____
ROOT
ATOM     10  C   UNL     1      52.534 -57.531 -14.398  0.00  0.00    +0.038 A 
ATOM     11  C   UNL     1      53.927 -57.270 -14.451  0.00  0.00    +0.047 A 
ATOM     12  C   UNL     1      54.881 -58.130 -13.768  0.00  0.00    +0.035 A 
ATOM     32  C   UNL     1      54.380 -59.249 -13.041  0.00  0.00    +0.024 A 
ATOM     33  C   UNL     1      52.968 -59.529 -12.975  0.00  0.00    +0.007 A 
ATOM     34  C   UNL     1      52.022 -58.683 -13.645  0.00  0.00    -0.029 A 
ATOM     35  C   UNL     1      50.518 -59.027 -13.535  0.00  0.00    +0.045 C 
ENDROOT
BRANCH  10   9
ATOM      4  C   UNL     1      49.747 -53.628 -14.598  0.00  0.00    +0.077 A 
ATOM      5  C   UNL     1      50.028 -53.285 -13.234  0.00  0.00    +0.048 A 
ATOM      6  C   UNL     1      50.889 -54.143 -12.513  0.00  0.00    +0.116 A 
ATOM      7  N   UNL     1      51.424 -55.258 -13.122  0.00  0.00    -0.223 NA
ATOM      8  C   UNL     1      51.131 -55.561 -14.439  0.00  0.00    +0.220 A 
ATOM      9  N   UNL     1      51.663 -56.673 -15.073  0.00  0.00    -0.283 N 
ATOM     36  H   UNL     1      51.417 -56.866 -16.044  0.00  0.00    +0.155 HD
ATOM     37  N   UNL     1      50.310 -54.759 -15.148  0.00  0.00    -0.214 NA
BRANCH   4   3
ATOM      1  C   UNL     1      48.440 -51.382 -17.522  0.00  0.00    +0.020 A 
ATOM      2  C   UNL     1      49.340 -52.151 -16.694  0.00  0.00    +0.013 A 
ATOM      3  C   UNL     1      48.858 -52.819 -15.491  0.00  0.00    +0.019 A 
ATOM     38  C   UNL     1      47.449 -52.689 -15.153  0.00  0.00    +0.120 A 
ATOM     39  N   UNL     1      46.606 -51.941 -15.969  0.00  0.00    -0.263 NA
ATOM     40  C   UNL     1      47.059 -51.292 -17.127  0.00  0.00    +0.111 A 
ENDBRANCH   4   3
ENDBRANCH  10   9
BRANCH  12  13
ATOM     13  N   UNL     1      56.305 -57.910 -13.780  0.00  0.00    -0.281 N 
ATOM     14  C   UNL     1      57.091 -57.360 -12.780  0.00  0.00    +0.248 C 
ATOM     30  O   UNL     1      56.653 -56.775 -11.800  0.00  0.00    -0.270 OA
ATOM     31  H   UNL     1      56.795 -58.194 -14.629  0.00  0.00    +0.155 HD
BRANCH  14  15
ATOM     15  C   UNL     1      58.578 -57.463 -12.890  0.00  0.00    +0.037 A 
ATOM     16  C   UNL     1      59.316 -56.727 -13.920  0.00  0.00    +0.013 A 
ATOM     17  C   UNL     1      60.748 -56.858 -14.015  0.00  0.00    +0.005 A 
ATOM     18  C   UNL     1      61.452 -57.728 -13.077  0.00  0.00    -0.033 A 
ATOM     28  C   UNL     1      60.696 -58.443 -12.062  0.00  0.00    +0.005 A 
ATOM     29  C   UNL     1      59.292 -58.318 -11.966  0.00  0.00    +0.013 A 
BRANCH  18  19
ATOM     19  C   UNL     1      62.977 -57.944 -13.118  0.00  0.00    +0.119 C 
BRANCH  19  20
ATOM     20  N   UNL     1      63.474 -59.341 -12.948  0.00  0.00    -0.302 NA
ATOM     21  C   UNL     1      64.737 -59.400 -12.084  0.00  0.00    +0.066 C 
ATOM     22  C   UNL     1      65.231 -60.871 -11.897  0.00  0.00    -0.064 C 
ATOM     23  N   UNL     1      65.484 -61.500 -13.268  0.00  0.00    +0.379 N 
ATOM     24  C   UNL     1      66.004 -62.864 -13.094  0.00  0.00    -0.096 C 
ATOM     25  H   UNL     1      66.274 -60.898 -13.775  0.00  0.00    -0.082 HD
ATOM     26  C   UNL     1      64.234 -61.443 -14.135  0.00  0.00    -0.064 C 
ATOM     27  C   UNL     1      63.735 -59.980 -14.290  0.00  0.00    +0.066 C 
ENDBRANCH  19  20
ENDBRANCH  18  19
ENDBRANCH  14  15
ENDBRANCH  12  13
TORSDOF 6
ENDMDL
