MODEL 1
REMARK VINA RESULT:      -8.9      0.000      0.000
REMARK  Name = C:\Users\Docking\Desktop\test protocol\1iep_ligandH.pdb
REMARK  8 active torsions:
REMARK  status: ('A' for Active; 'I' for Inactive)
REMARK    1  A    between atoms: _5  and  _11
REMARK    2  A    between atoms: _19  and  _21
REMARK    3  A    between atoms: _22  and  _66
REMARK    4  A    between atoms: _27  and  _30
REMARK    5  A    between atoms: _32  and  _33
REMARK    6  A    between atoms: _38  and  _43
REMARK    7  A    between atoms: _43  and  _46
REMARK    8  A    between atoms: _53  and  _55
REMARK                            x       y       z     vdW  Elec       q    Type
REMARK                         _______ _______ _______ _____ _____    ______ ____
ROOT
ATOM     10  C   UNL     1      -6.159 -17.017   3.836  0.00  0.00    +0.038 A 
ATOM     11  C   UNL     1      -4.951 -16.320   4.092  0.00  0.00    +0.047 A 
ATOM     12  C   UNL     1      -3.841 -16.368   3.153  0.00  0.00    +0.035 A 
ATOM     32  C   UNL     1      -3.997 -17.135   1.961  0.00  0.00    +0.024 A 
ATOM     33  C   UNL     1      -5.218 -17.851   1.686  0.00  0.00    +0.007 A 
ATOM     34  C   UNL     1      -6.315 -17.809   2.610  0.00  0.00    -0.029 A 
ATOM     35  C   UNL     1      -7.598 -18.602   2.267  0.00  0.00    +0.045 C 
ENDROOT
BRANCH  10   9
ATOM      4  C   UNL     1      -8.496 -18.619   7.710  0.00  0.00    +0.077 A 
ATOM      5  C   UNL     1      -7.599 -19.727   7.867  0.00  0.00    +0.048 A 
ATOM      6  C   UNL     1      -6.553 -19.853   6.925  0.00  0.00    +0.116 A 
ATOM      7  N   UNL     1      -6.424 -18.933   5.907  0.00  0.00    -0.223 NA
ATOM      8  C   UNL     1      -7.308 -17.877   5.784  0.00  0.00    +0.220 A 
ATOM      9  N   UNL     1      -7.192 -16.936   4.773  0.00  0.00    -0.283 N 
ATOM     36  H   UNL     1      -7.869 -16.176   4.711  0.00  0.00    +0.155 HD
ATOM     37  N   UNL     1      -8.316 -17.736   6.670  0.00  0.00    -0.214 NA
BRANCH   4   3
ATOM      1  C   UNL     1     -11.126 -16.804   9.966  0.00  0.00    +0.020 A 
ATOM      2  C   UNL     1     -10.003 -17.011   9.081  0.00  0.00    +0.013 A 
ATOM      3  C   UNL     1      -9.649 -18.349   8.627  0.00  0.00    +0.019 A 
ATOM     38  C   UNL     1     -10.458 -19.467   9.090  0.00  0.00    +0.120 A 
ATOM     39  N   UNL     1     -11.533 -19.238   9.943  0.00  0.00    -0.263 NA
ATOM     40  C   UNL     1     -11.883 -17.954  10.388  0.00  0.00    +0.111 A 
ENDBRANCH   4   3
ENDBRANCH  10   9
BRANCH  12  13
ATOM     13  N   UNL     1      -2.588 -15.687   3.362  0.00  0.00    -0.281 N 
ATOM     14  C   UNL     1      -1.411 -16.207   3.877  0.00  0.00    +0.248 C 
ATOM     30  O   UNL     1      -1.321 -17.289   4.437  0.00  0.00    -0.270 OA
ATOM     31  H   UNL     1      -2.565 -14.701   3.099  0.00  0.00    +0.155 HD
BRANCH  14  15
ATOM     15  C   UNL     1      -0.157 -15.402   3.766  0.00  0.00    +0.037 A 
ATOM     16  C   UNL     1       1.032 -15.735   4.555  0.00  0.00    +0.013 A 
ATOM     17  C   UNL     1       2.224 -14.932   4.442  0.00  0.00    +0.005 A 
ATOM     18  C   UNL     1       2.233 -13.788   3.533  0.00  0.00    -0.033 A 
ATOM     28  C   UNL     1       1.042 -13.484   2.758  0.00  0.00    +0.005 A 
ATOM     29  C   UNL     1      -0.129 -14.268   2.867  0.00  0.00    +0.013 A 
BRANCH  18  19
ATOM     19  C   UNL     1       3.453 -12.864   3.364  0.00  0.00    +0.119 C 
BRANCH  19  20
ATOM     20  N   UNL     1       3.365 -11.799   2.321  0.00  0.00    -0.302 NA
ATOM     21  C   UNL     1       4.094 -12.193   1.034  0.00  0.00    +0.066 C 
ATOM     22  C   UNL     1       3.972 -11.077  -0.054  0.00  0.00    -0.064 C 
ATOM     23  N   UNL     1       4.527  -9.765   0.502  0.00  0.00    +0.379 N 
ATOM     24  C   UNL     1       4.468  -8.727  -0.538  0.00  0.00    -0.096 C 
ATOM     25  H   UNL     1       5.600  -9.931   0.753  0.00  0.00    -0.082 HD
ATOM     26  C   UNL     1       3.810  -9.366   1.784  0.00  0.00    -0.064 C 
ATOM     27  C   UNL     1       3.911 -10.495   2.848  0.00  0.00    +0.066 C 
ENDBRANCH  19  20
ENDBRANCH  18  19
ENDBRANCH  14  15
ENDBRANCH  12  13
TORSDOF 6
ENDMDL
MODEL 2
REMARK VINA RESULT:      -8.7      6.780     12.370
REMARK  Name = C:\Users\Docking\Desktop\test protocol\1iep_ligandH.pdb
REMARK  8 active torsions:
REMARK  status: ('A' for Active; 'I' for Inactive)
REMARK    1  A    between atoms: _5  and  _11
REMARK    2  A    between atoms: _19  and  _21
REMARK    3  A    between atoms: _22  and  _66
REMARK    4  A    between atoms: _27  and  _30
REMARK    5  A    between atoms: _32  and  _33
REMARK    6  A    between atoms: _38  and  _43
REMARK    7  A    between atoms: _43  and  _46
REMARK    8  A    between atoms: _53  and  _55
REMARK                            x       y       z     vdW  Elec       q    Type
REMARK                         _______ _______ _______ _____ _____    ______ ____
ROOT
ATOM     10  C   UNL     1     -13.186 -15.518  13.302  0.00  0.00    +0.038 A 
ATOM     11  C   UNL     1     -12.179 -16.270  12.645  0.00  0.00    +0.047 A 
ATOM     12  C   UNL     1     -12.122 -16.343  11.193  0.00  0.00    +0.035 A 
ATOM     32  C   UNL     1     -13.105 -15.635  10.442  0.00  0.00    +0.024 A 
ATOM     33  C   UNL     1     -14.135 -14.867  11.094  0.00  0.00    +0.007 A 
ATOM     34  C   UNL     1     -14.199 -14.793  12.526  0.00  0.00    -0.029 A 
ATOM     35  C   UNL     1     -15.330 -13.959  13.171  0.00  0.00    +0.045 C 
ENDROOT
BRANCH  10   9
ATOM      4  C   UNL     1     -11.697 -13.728  17.499  0.00  0.00    +0.077 A 
ATOM      5  C   UNL     1     -10.808 -12.803  16.856  0.00  0.00    +0.048 A 
ATOM      6  C   UNL     1     -10.758 -12.825  15.445  0.00  0.00    +0.116 A 
ATOM      7  N   UNL     1     -11.544 -13.710  14.738  0.00  0.00    -0.223 NA
ATOM      8  C   UNL     1     -12.389 -14.590  15.389  0.00  0.00    +0.220 A 
ATOM      9  N   UNL     1     -13.194 -15.483  14.699  0.00  0.00    -0.283 N 
ATOM     36  H   UNL     1     -13.798 -16.121  15.216  0.00  0.00    +0.155 HD
ATOM     37  N   UNL     1     -12.453 -14.589  16.737  0.00  0.00    -0.214 NA
BRANCH   4   3
ATOM      1  C   UNL     1     -12.815 -14.888  21.063  0.00  0.00    +0.020 A 
ATOM      2  C   UNL     1     -12.688 -14.839  19.625  0.00  0.00    +0.013 A 
ATOM      3  C   UNL     1     -11.863 -13.823  18.984  0.00  0.00    +0.019 A 
ATOM     38  C   UNL     1     -11.174 -12.864  19.834  0.00  0.00    +0.120 A 
ATOM     39  N   UNL     1     -11.316 -12.934  21.216  0.00  0.00    -0.263 NA
ATOM     40  C   UNL     1     -12.108 -13.907  21.844  0.00  0.00    +0.111 A 
ENDBRANCH   4   3
ENDBRANCH  10   9
BRANCH  12  13
ATOM     13  N   UNL     1     -11.128 -17.098  10.470  0.00  0.00    -0.281 N 
ATOM     14  C   UNL     1     -11.165 -18.437  10.117  0.00  0.00    +0.248 C 
ATOM     30  O   UNL     1     -11.968 -19.245  10.558  0.00  0.00    -0.270 OA
ATOM     31  H   UNL     1     -10.296 -16.582  10.184  0.00  0.00    +0.155 HD
BRANCH  14  15
ATOM     15  C   UNL     1     -10.156 -18.955   9.145  0.00  0.00    +0.037 A 
ATOM     16  C   UNL     1     -10.523 -19.933   8.117  0.00  0.00    +0.013 A 
ATOM     17  C   UNL     1      -9.526 -20.430   7.202  0.00  0.00    +0.005 A 
ATOM     18  C   UNL     1      -8.151 -19.948   7.311  0.00  0.00    -0.033 A 
ATOM     28  C   UNL     1      -7.815 -18.975   8.336  0.00  0.00    +0.005 A 
ATOM     29  C   UNL     1      -8.790 -18.486   9.235  0.00  0.00    +0.013 A 
BRANCH  18  19
ATOM     19  C   UNL     1      -7.018 -20.439   6.391  0.00  0.00    +0.119 C 
BRANCH  19  20
ATOM     20  N   UNL     1      -6.499 -19.479   5.372  0.00  0.00    -0.302 NA
ATOM     21  C   UNL     1      -7.529 -19.193   4.275  0.00  0.00    +0.066 C 
ATOM     22  C   UNL     1      -6.978 -18.169   3.230  0.00  0.00    -0.064 C 
ATOM     23  N   UNL     1      -5.680 -18.709   2.627  0.00  0.00    +0.379 N 
ATOM     24  C   UNL     1      -5.191 -17.775   1.602  0.00  0.00    -0.096 C 
ATOM     25  H   UNL     1      -5.919 -19.673   2.120  0.00  0.00    -0.082 HD
ATOM     26  C   UNL     1      -4.652 -18.998   3.710  0.00  0.00    -0.064 C 
ATOM     27  C   UNL     1      -5.220 -19.994   4.760  0.00  0.00    +0.066 C 
ENDBRANCH  19  20
ENDBRANCH  18  19
ENDBRANCH  14  15
ENDBRANCH  12  13
TORSDOF 6
ENDMDL
MODEL 3
REMARK VINA RESULT:      -8.6      2.688     14.498
REMARK  Name = C:\Users\Docking\Desktop\test protocol\1iep_ligandH.pdb
REMARK  8 active torsions:
REMARK  status: ('A' for Active; 'I' for Inactive)
REMARK    1  A    between atoms: _5  and  _11
REMARK    2  A    between atoms: _19  and  _21
REMARK    3  A    between atoms: _22  and  _66
REMARK    4  A    between atoms: _27  and  _30
REMARK    5  A    between atoms: _32  and  _33
REMARK    6  A    between atoms: _38  and  _43
REMARK    7  A    between atoms: _43  and  _46
REMARK    8  A    between atoms: _53  and  _55
REMARK                            x       y       z     vdW  Elec       q    Type
REMARK                         _______ _______ _______ _____ _____    ______ ____
ROOT
ATOM     10  C   UNL     1       2.957 -11.386   1.579  0.00  0.00    +0.038 A 
ATOM     11  C   UNL     1       2.181 -12.572   1.531  0.00  0.00    +0.047 A 
ATOM     12  C   UNL     1       1.031 -12.754   2.403  0.00  0.00    +0.035 A 
ATOM     32  C   UNL     1       0.698 -11.707   3.310  0.00  0.00    +0.024 A 
ATOM     33  C   UNL     1       1.476 -10.495   3.373  0.00  0.00    +0.007 A 
ATOM     34  C   UNL     1       2.613 -10.310   2.517  0.00  0.00    -0.029 A 
ATOM     35  C   UNL     1       3.416  -8.993   2.632  0.00  0.00    +0.045 C 
ENDROOT
BRANCH  10   9
ATOM      4  C   UNL     1       4.909 -10.207  -2.645  0.00  0.00    +0.077 A 
ATOM      5  C   UNL     1       3.639  -9.828  -3.193  0.00  0.00    +0.048 A 
ATOM      6  C   UNL     1       2.507  -9.958  -2.358  0.00  0.00    +0.116 A 
ATOM      7  N   UNL     1       2.646 -10.433  -1.072  0.00  0.00    -0.223 NA
ATOM      8  C   UNL     1       3.886 -10.791  -0.574  0.00  0.00    +0.220 A 
ATOM      9  N   UNL     1       4.051 -11.263   0.719  0.00  0.00    -0.283 N 
ATOM     36  H   UNL     1       4.980 -11.524   1.045  0.00  0.00    +0.155 HD
ATOM     37  N   UNL     1       4.982 -10.678  -1.353  0.00  0.00    -0.214 NA
BRANCH   4   3
ATOM      1  C   UNL     1       7.609  -9.322  -5.334  0.00  0.00    +0.020 A 
ATOM      2  C   UNL     1       6.341  -9.371  -4.642  0.00  0.00    +0.013 A 
ATOM      3  C   UNL     1       6.198 -10.124  -3.402  0.00  0.00    +0.019 A 
ATOM     38  C   UNL     1       7.366 -10.821  -2.885  0.00  0.00    +0.120 A 
ATOM     39  N   UNL     1       8.573 -10.757  -3.574  0.00  0.00    -0.263 NA
ATOM     40  C   UNL     1       8.722 -10.037  -4.769  0.00  0.00    +0.111 A 
ENDBRANCH   4   3
ENDBRANCH  10   9
BRANCH  12  13
ATOM     13  N   UNL     1       0.210 -13.940   2.405  0.00  0.00    -0.281 N 
ATOM     14  C   UNL     1      -0.049 -14.795   3.464  0.00  0.00    +0.248 C 
ATOM     30  O   UNL     1       0.561 -14.787   4.523  0.00  0.00    -0.270 OA
ATOM     31  H   UNL     1      -0.233 -14.179   1.517  0.00  0.00    +0.155 HD
BRANCH  14  15
ATOM     15  C   UNL     1      -1.132 -15.814   3.320  0.00  0.00    +0.037 A 
ATOM     16  C   UNL     1      -1.164 -17.013   4.162  0.00  0.00    +0.013 A 
ATOM     17  C   UNL     1      -2.211 -17.989   3.991  0.00  0.00    +0.005 A 
ATOM     18  C   UNL     1      -3.236 -17.769   2.974  0.00  0.00    -0.033 A 
ATOM     28  C   UNL     1      -3.184 -16.568   2.157  0.00  0.00    +0.005 A 
ATOM     29  C   UNL     1      -2.159 -15.610   2.321  0.00  0.00    +0.013 A 
BRANCH  18  19
ATOM     19  C   UNL     1      -4.379 -18.767   2.709  0.00  0.00    +0.119 C 
BRANCH  19  20
ATOM     20  N   UNL     1      -5.424 -18.908   3.766  0.00  0.00    -0.302 NA
ATOM     21  C   UNL     1      -5.637 -17.604   4.540  0.00  0.00    +0.066 C 
ATOM     22  C   UNL     1      -6.749 -17.762   5.627  0.00  0.00    -0.064 C 
ATOM     23  N   UNL     1      -6.373 -18.901   6.576  0.00  0.00    +0.379 N 
ATOM     24  C   UNL     1      -7.388 -19.015   7.634  0.00  0.00    -0.096 C 
ATOM     25  H   UNL     1      -5.407 -18.630   7.063  0.00  0.00    -0.082 HD
ATOM     26  C   UNL     1      -6.157 -20.201   5.814  0.00  0.00    -0.064 C 
ATOM     27  C   UNL     1      -5.070 -20.024   4.717  0.00  0.00    +0.066 C 
ENDBRANCH  19  20
ENDBRANCH  18  19
ENDBRANCH  14  15
ENDBRANCH  12  13
TORSDOF 6
ENDMDL
MODEL 4
REMARK VINA RESULT:      -8.0      2.888     14.347
REMARK  Name = C:\Users\Docking\Desktop\test protocol\1iep_ligandH.pdb
REMARK  8 active torsions:
REMARK  status: ('A' for Active; 'I' for Inactive)
REMARK    1  A    between atoms: _5  and  _11
REMARK    2  A    between atoms: _19  and  _21
REMARK    3  A    between atoms: _22  and  _66
REMARK    4  A    between atoms: _27  and  _30
REMARK    5  A    between atoms: _32  and  _33
REMARK    6  A    between atoms: _38  and  _43
REMARK    7  A    between atoms: _43  and  _46
REMARK    8  A    between atoms: _53  and  _55
REMARK                            x       y       z     vdW  Elec       q    Type
REMARK                         _______ _______ _______ _____ _____    ______ ____
ROOT
ATOM     10  C   UNL     1       2.870 -10.895   1.092  0.00  0.00    +0.038 A 
ATOM     11  C   UNL     1       1.937 -11.957   1.215  0.00  0.00    +0.047 A 
ATOM     12  C   UNL     1       2.066 -12.952   2.268  0.00  0.00    +0.035 A 
ATOM     32  C   UNL     1       3.156 -12.835   3.180  0.00  0.00    +0.024 A 
ATOM     33  C   UNL     1       4.113 -11.763   3.068  0.00  0.00    +0.007 A 
ATOM     34  C   UNL     1       3.993 -10.779   2.030  0.00  0.00    -0.029 A 
ATOM     35  C   UNL     1       5.052  -9.655   1.954  0.00  0.00    +0.045 C 
ENDROOT
BRANCH  10   9
ATOM      4  C   UNL     1       4.001  -9.084  -3.207  0.00  0.00    +0.077 A 
ATOM      5  C   UNL     1       5.041 -10.053  -3.407  0.00  0.00    +0.048 A 
ATOM      6  C   UNL     1       5.257 -10.995  -2.377  0.00  0.00    +0.116 A 
ATOM      7  N   UNL     1       4.485 -10.962  -1.236  0.00  0.00    -0.223 NA
ATOM      8  C   UNL     1       3.492 -10.014  -1.074  0.00  0.00    +0.220 A 
ATOM      9  N   UNL     1       2.698  -9.967   0.062  0.00  0.00    -0.283 N 
ATOM     36  H   UNL     1       1.981  -9.247   0.147  0.00  0.00    +0.155 HD
ATOM     37  N   UNL     1       3.267  -9.102  -2.042  0.00  0.00    -0.214 NA
BRANCH   4   3
ATOM      1  C   UNL     1       1.999  -6.739  -5.613  0.00  0.00    +0.020 A 
ATOM      2  C   UNL     1       2.284  -7.774  -4.646  0.00  0.00    +0.013 A 
ATOM      3  C   UNL     1       3.650  -8.025  -4.206  0.00  0.00    +0.019 A 
ATOM     38  C   UNL     1       4.713  -7.205  -4.766  0.00  0.00    +0.120 A 
ATOM     39  N   UNL     1       4.409  -6.216  -5.697  0.00  0.00    -0.263 NA
ATOM     40  C   UNL     1       3.098  -5.966  -6.129  0.00  0.00    +0.111 A 
ENDBRANCH   4   3
ENDBRANCH  10   9
BRANCH  12  13
ATOM     13  N   UNL     1       1.155 -14.057   2.438  0.00  0.00    -0.281 N 
ATOM     14  C   UNL     1       0.082 -14.149   3.309  0.00  0.00    +0.248 C 
ATOM     30  O   UNL     1      -0.130 -13.374   4.230  0.00  0.00    -0.270 OA
ATOM     31  H   UNL     1       1.322 -14.870   1.845  0.00  0.00    +0.155 HD
BRANCH  14  15
ATOM     15  C   UNL     1      -0.890 -15.273   3.141  0.00  0.00    +0.037 A 
ATOM     16  C   UNL     1      -0.837 -16.457   4.002  0.00  0.00    +0.013 A 
ATOM     17  C   UNL     1      -1.775 -17.535   3.808  0.00  0.00    +0.005 A 
ATOM     18  C   UNL     1      -2.775 -17.431   2.748  0.00  0.00    -0.033 A 
ATOM     28  C   UNL     1      -2.809 -16.242   1.913  0.00  0.00    +0.005 A 
ATOM     29  C   UNL     1      -1.890 -15.185   2.099  0.00  0.00    +0.013 A 
BRANCH  18  19
ATOM     19  C   UNL     1      -3.802 -18.541   2.456  0.00  0.00    +0.119 C 
BRANCH  19  20
ATOM     20  N   UNL     1      -4.929 -18.702   3.423  0.00  0.00    -0.302 NA
ATOM     21  C   UNL     1      -5.285 -17.384   4.115  0.00  0.00    +0.066 C 
ATOM     22  C   UNL     1      -6.480 -17.566   5.106  0.00  0.00    -0.064 C 
ATOM     23  N   UNL     1      -6.126 -18.640   6.136  0.00  0.00    +0.379 N 
ATOM     24  C   UNL     1      -7.225 -18.772   7.104  0.00  0.00    -0.096 C 
ATOM     25  H   UNL     1      -5.225 -18.290   6.692  0.00  0.00    -0.082 HD
ATOM     26  C   UNL     1      -5.768 -19.954   5.456  0.00  0.00    -0.064 C 
ATOM     27  C   UNL     1      -4.598 -19.755   4.452  0.00  0.00    +0.066 C 
ENDBRANCH  19  20
ENDBRANCH  18  19
ENDBRANCH  14  15
ENDBRANCH  12  13
TORSDOF 6
ENDMDL
MODEL 5
REMARK VINA RESULT:      -7.9      5.124     10.577
REMARK  Name = C:\Users\Docking\Desktop\test protocol\1iep_ligandH.pdb
REMARK  8 active torsions:
REMARK  status: ('A' for Active; 'I' for Inactive)
REMARK    1  A    between atoms: _5  and  _11
REMARK    2  A    between atoms: _19  and  _21
REMARK    3  A    between atoms: _22  and  _66
REMARK    4  A    between atoms: _27  and  _30
REMARK    5  A    between atoms: _32  and  _33
REMARK    6  A    between atoms: _38  and  _43
REMARK    7  A    between atoms: _43  and  _46
REMARK    8  A    between atoms: _53  and  _55
REMARK                            x       y       z     vdW  Elec       q    Type
REMARK                         _______ _______ _______ _____ _____    ______ ____
ROOT
ATOM     10  C   UNL     1     -12.751 -15.962  11.565  0.00  0.00    +0.038 A 
ATOM     11  C   UNL     1     -11.638 -16.608  10.970  0.00  0.00    +0.047 A 
ATOM     12  C   UNL     1     -11.368 -16.484   9.546  0.00  0.00    +0.035 A 
ATOM     32  C   UNL     1     -12.253 -15.691   8.758  0.00  0.00    +0.024 A 
ATOM     33  C   UNL     1     -13.390 -15.028   9.346  0.00  0.00    +0.007 A 
ATOM     34  C   UNL     1     -13.662 -15.149  10.750  0.00  0.00    -0.029 A 
ATOM     35  C   UNL     1     -14.899 -14.422  11.326  0.00  0.00    +0.045 C 
ENDROOT
BRANCH  10   9
ATOM      4  C   UNL     1     -12.255 -14.508  16.112  0.00  0.00    +0.077 A 
ATOM      5  C   UNL     1     -11.488 -13.360  15.724  0.00  0.00    +0.048 A 
ATOM      6  C   UNL     1     -11.237 -13.184  14.345  0.00  0.00    +0.116 A 
ATOM      7  N   UNL     1     -11.722 -14.094  13.431  0.00  0.00    -0.223 NA
ATOM      8  C   UNL     1     -12.458 -15.192  13.839  0.00  0.00    +0.220 A 
ATOM      9  N   UNL     1     -12.962 -16.115  12.937  0.00  0.00    -0.283 N 
ATOM     36  H   UNL     1     -13.494 -16.916  13.279  0.00  0.00    +0.155 HD
ATOM     37  N   UNL     1     -12.710 -15.383  15.151  0.00  0.00    -0.214 NA
BRANCH   4   3
ATOM      1  C   UNL     1     -12.418 -14.461  20.020  0.00  0.00    +0.020 A 
ATOM      2  C   UNL     1     -12.046 -14.111  18.669  0.00  0.00    +0.013 A 
ATOM      3  C   UNL     1     -12.607 -14.830  17.532  0.00  0.00    +0.019 A 
ATOM     38  C   UNL     1     -13.550 -15.905  17.798  0.00  0.00    +0.120 A 
ATOM     39  N   UNL     1     -13.889 -16.220  19.110  0.00  0.00    -0.263 NA
ATOM     40  C   UNL     1     -13.355 -15.537  20.213  0.00  0.00    +0.111 A 
ENDBRANCH   4   3
ENDBRANCH  10   9
BRANCH  12  13
ATOM     13  N   UNL     1     -10.258 -17.123   8.884  0.00  0.00    -0.281 N 
ATOM     14  C   UNL     1     -10.172 -18.432   8.438  0.00  0.00    +0.248 C 
ATOM     30  O   UNL     1     -10.962 -19.316   8.732  0.00  0.00    -0.270 OA
ATOM     31  H   UNL     1      -9.436 -16.541   8.726  0.00  0.00    +0.155 HD
BRANCH  14  15
ATOM     15  C   UNL     1      -9.035 -18.817   7.547  0.00  0.00    +0.037 A 
ATOM     16  C   UNL     1      -7.891 -19.574   8.059  0.00  0.00    +0.013 A 
ATOM     17  C   UNL     1      -6.800 -19.918   7.182  0.00  0.00    +0.005 A 
ATOM     18  C   UNL     1      -6.849 -19.506   5.782  0.00  0.00    -0.033 A 
ATOM     28  C   UNL     1      -7.999 -18.760   5.298  0.00  0.00    +0.005 A 
ATOM     29  C   UNL     1      -9.070 -18.420   6.155  0.00  0.00    +0.013 A 
BRANCH  18  19
ATOM     19  C   UNL     1      -5.720 -19.811   4.780  0.00  0.00    +0.119 C 
BRANCH  19  20
ATOM     20  N   UNL     1      -4.914 -18.655   4.285  0.00  0.00    -0.302 NA
ATOM     21  C   UNL     1      -5.597 -17.937   3.117  0.00  0.00    +0.066 C 
ATOM     22  C   UNL     1      -4.751 -16.717   2.627  0.00  0.00    -0.064 C 
ATOM     23  N   UNL     1      -3.355 -17.196   2.226  0.00  0.00    +0.379 N 
ATOM     24  C   UNL     1      -2.576 -16.061   1.710  0.00  0.00    -0.096 C 
ATOM     25  H   UNL     1      -3.475 -17.930   1.396  0.00  0.00    -0.082 HD
ATOM     26  C   UNL     1      -2.670 -17.913   3.381  0.00  0.00    -0.064 C 
ATOM     27  C   UNL     1      -3.533 -19.106   3.880  0.00  0.00    +0.066 C 
ENDBRANCH  19  20
ENDBRANCH  18  19
ENDBRANCH  14  15
ENDBRANCH  12  13
TORSDOF 6
ENDMDL
