MODEL 1
REMARK VINA RESULT:      -7.2      0.000      0.000
REMARK  Name = C:\Users\Docking\Desktop\test protocol\1iep_ligandH.pdb
REMARK  8 active torsions:
REMARK  status: ('A' for Active; 'I' for Inactive)
REMARK    1  A    between atoms: _5  and  _11
REMARK    2  A    between atoms: _19  and  _21
REMARK    3  A    between atoms: _22  and  _66
REMARK    4  A    between atoms: _27  and  _30
REMARK    5  A    between atoms: _32  and  _33
REMARK    6  A    between atoms: _38  and  _43
REMARK    7  A    between atoms: _43  and  _46
REMARK    8  A    between atoms: _53  and  _55
REMARK                            x       y       z     vdW  Elec       q    Type
REMARK                         _______ _______ _______ _____ _____    ______ ____
ROOT
ATOM     10  C   UNL     1      54.332  88.987  31.780  0.00  0.00    +0.038 A 
ATOM     11  C   UNL     1      54.696  87.617  31.830  0.00  0.00    +0.047 A 
ATOM     12  C   UNL     1      55.309  87.045  33.019  0.00  0.00    +0.035 A 
ATOM     32  C   UNL     1      55.534  87.896  34.139  0.00  0.00    +0.024 A 
ATOM     33  C   UNL     1      55.171  89.291  34.105  0.00  0.00    +0.007 A 
ATOM     34  C   UNL     1      54.569  89.862  32.935  0.00  0.00    -0.029 A 
ATOM     35  C   UNL     1      54.206  91.365  32.951  0.00  0.00    +0.045 C 
ENDROOT
BRANCH  10   9
ATOM      4  C   UNL     1      50.539  90.517  29.267  0.00  0.00    +0.077 A 
ATOM      5  C   UNL     1      49.644  90.281  30.363  0.00  0.00    +0.048 A 
ATOM      6  C   UNL     1      50.198  89.759  31.553  0.00  0.00    +0.116 A 
ATOM      7  N   UNL     1      51.549  89.496  31.631  0.00  0.00    -0.223 NA
ATOM      8  C   UNL     1      52.384  89.733  30.555  0.00  0.00    +0.220 A 
ATOM      9  N   UNL     1      53.747  89.484  30.613  0.00  0.00    -0.283 N 
ATOM     36  H   UNL     1      54.328  89.665  29.795  0.00  0.00    +0.155 HD
ATOM     37  N   UNL     1      51.879  90.231  29.406  0.00  0.00    -0.214 NA
BRANCH   4   3
ATOM      1  C   UNL     1      48.417  92.166  26.426  0.00  0.00    +0.020 A 
ATOM      2  C   UNL     1      48.786  91.646  27.722  0.00  0.00    +0.013 A 
ATOM      3  C   UNL     1      50.106  91.069  27.945  0.00  0.00    +0.019 A 
ATOM     38  C   UNL     1      51.036  91.034  26.827  0.00  0.00    +0.120 A 
ATOM     39  N   UNL     1      50.652  91.541  25.589  0.00  0.00    -0.263 NA
ATOM     40  C   UNL     1      49.384  92.097  25.362  0.00  0.00    +0.111 A 
ENDBRANCH   4   3
ENDBRANCH  10   9
BRANCH  12  13
ATOM     13  N   UNL     1      55.707  85.663  33.125  0.00  0.00    -0.281 N 
ATOM     14  C   UNL     1      54.900  84.558  33.342  0.00  0.00    +0.248 C 
ATOM     30  O   UNL     1      53.731  84.615  33.693  0.00  0.00    -0.270 OA
ATOM     31  H   UNL     1      56.706  85.477  33.028  0.00  0.00    +0.155 HD
BRANCH  14  15
ATOM     15  C   UNL     1      55.480  83.193  33.157  0.00  0.00    +0.037 A 
ATOM     16  C   UNL     1      56.480  82.660  34.085  0.00  0.00    +0.013 A 
ATOM     17  C   UNL     1      57.036  81.347  33.874  0.00  0.00    +0.005 A 
ATOM     18  C   UNL     1      56.590  80.556  32.729  0.00  0.00    -0.033 A 
ATOM     28  C   UNL     1      55.592  81.107  31.827  0.00  0.00    +0.005 A 
ATOM     29  C   UNL     1      55.046  82.394  32.031  0.00  0.00    +0.013 A 
BRANCH  18  19
ATOM     19  C   UNL     1      57.144  79.154  32.415  0.00  0.00    +0.119 C 
BRANCH  19  20
ATOM     20  N   UNL     1      56.223  77.995  32.613  0.00  0.00    -0.302 NA
ATOM     21  C   UNL     1      56.647  77.120  33.795  0.00  0.00    +0.066 C 
ATOM     22  C   UNL     1      55.660  75.925  34.002  0.00  0.00    -0.064 C 
ATOM     23  N   UNL     1      55.587  75.099  32.716  0.00  0.00    +0.379 N 
ATOM     24  C   UNL     1      54.705  73.942  32.926  0.00  0.00    -0.096 C 
ATOM     25  H   UNL     1      56.611  74.711  32.505  0.00  0.00    -0.082 HD
ATOM     26  C   UNL     1      55.169  75.962  31.534  0.00  0.00    -0.064 C 
ATOM     27  C   UNL     1      56.139  77.163  31.356  0.00  0.00    +0.066 C 
ENDBRANCH  19  20
ENDBRANCH  18  19
ENDBRANCH  14  15
ENDBRANCH  12  13
TORSDOF 6
ENDMDL
MODEL 2
REMARK VINA RESULT:      -7.2     17.843     22.688
REMARK  Name = C:\Users\Docking\Desktop\test protocol\1iep_ligandH.pdb
REMARK  8 active torsions:
REMARK  status: ('A' for Active; 'I' for Inactive)
REMARK    1  A    between atoms: _5  and  _11
REMARK    2  A    between atoms: _19  and  _21
REMARK    3  A    between atoms: _22  and  _66
REMARK    4  A    between atoms: _27  and  _30
REMARK    5  A    between atoms: _32  and  _33
REMARK    6  A    between atoms: _38  and  _43
REMARK    7  A    between atoms: _43  and  _46
REMARK    8  A    between atoms: _53  and  _55
REMARK                            x       y       z     vdW  Elec       q    Type
REMARK                         _______ _______ _______ _____ _____    ______ ____
ROOT
ATOM     10  C   UNL     1      57.180  64.961  28.827  0.00  0.00    +0.038 A 
ATOM     11  C   UNL     1      57.662  64.497  30.077  0.00  0.00    +0.047 A 
ATOM     12  C   UNL     1      58.689  63.469  30.153  0.00  0.00    +0.035 A 
ATOM     32  C   UNL     1      59.205  62.939  28.935  0.00  0.00    +0.024 A 
ATOM     33  C   UNL     1      58.726  63.399  27.655  0.00  0.00    +0.007 A 
ATOM     34  C   UNL     1      57.711  64.410  27.574  0.00  0.00    -0.029 A 
ATOM     35  C   UNL     1      57.230  64.861  26.175  0.00  0.00    +0.045 C 
ENDROOT
BRANCH  10   9
ATOM      4  C   UNL     1      52.592  66.360  28.649  0.00  0.00    +0.077 A 
ATOM      5  C   UNL     1      52.123  65.008  28.548  0.00  0.00    +0.048 A 
ATOM      6  C   UNL     1      53.094  63.982  28.538  0.00  0.00    +0.116 A 
ATOM      7  N   UNL     1      54.433  64.297  28.623  0.00  0.00    -0.223 NA
ATOM      8  C   UNL     1      54.853  65.611  28.718  0.00  0.00    +0.220 A 
ATOM      9  N   UNL     1      56.194  65.950  28.813  0.00  0.00    -0.283 N 
ATOM     36  H   UNL     1      56.462  66.932  28.874  0.00  0.00    +0.155 HD
ATOM     37  N   UNL     1      53.944  66.609  28.728  0.00  0.00    -0.214 NA
BRANCH   4   3
ATOM      1  C   UNL     1      50.781  69.648  29.747  0.00  0.00    +0.020 A 
ATOM      2  C   UNL     1      51.674  68.512  29.771  0.00  0.00    +0.013 A 
ATOM      3  C   UNL     1      51.688  67.552  28.675  0.00  0.00    +0.019 A 
ATOM     38  C   UNL     1      50.779  67.773  27.560  0.00  0.00    +0.120 A 
ATOM     39  N   UNL     1      49.929  68.874  27.565  0.00  0.00    -0.263 NA
ATOM     40  C   UNL     1      49.906  69.804  28.615  0.00  0.00    +0.111 A 
ENDBRANCH   4   3
ENDBRANCH  10   9
BRANCH  12  13
ATOM     13  N   UNL     1      59.212  62.952  31.393  0.00  0.00    -0.281 N 
ATOM     14  C   UNL     1      58.668  61.969  32.203  0.00  0.00    +0.248 C 
ATOM     30  O   UNL     1      57.532  61.531  32.090  0.00  0.00    -0.270 OA
ATOM     31  H   UNL     1      60.090  63.361  31.714  0.00  0.00    +0.155 HD
BRANCH  14  15
ATOM     15  C   UNL     1      59.500  61.398  33.305  0.00  0.00    +0.037 A 
ATOM     16  C   UNL     1      58.958  61.225  34.655  0.00  0.00    +0.013 A 
ATOM     17  C   UNL     1      59.788  60.688  35.705  0.00  0.00    +0.005 A 
ATOM     18  C   UNL     1      61.169  60.319  35.407  0.00  0.00    -0.033 A 
ATOM     28  C   UNL     1      61.680  60.497  34.058  0.00  0.00    +0.005 A 
ATOM     29  C   UNL     1      60.870  61.024  33.027  0.00  0.00    +0.013 A 
BRANCH  18  19
ATOM     19  C   UNL     1      62.133  59.759  36.470  0.00  0.00    +0.119 C 
BRANCH  19  20
ATOM     20  N   UNL     1      62.413  60.617  37.660  0.00  0.00    -0.302 NA
ATOM     21  C   UNL     1      62.740  62.060  37.263  0.00  0.00    +0.066 C 
ATOM     22  C   UNL     1      63.007  62.949  38.521  0.00  0.00    -0.064 C 
ATOM     23  N   UNL     1      64.148  62.340  39.339  0.00  0.00    +0.379 N 
ATOM     24  C   UNL     1      64.440  63.205  40.491  0.00  0.00    -0.096 C 
ATOM     25  H   UNL     1      65.055  62.321  38.691  0.00  0.00    -0.082 HD
ATOM     26  C   UNL     1      63.832  60.905  39.735  0.00  0.00    -0.064 C 
ATOM     27  C   UNL     1      63.539  60.037  38.480  0.00  0.00    +0.066 C 
ENDBRANCH  19  20
ENDBRANCH  18  19
ENDBRANCH  14  15
ENDBRANCH  12  13
TORSDOF 6
ENDMDL
MODEL 3
REMARK VINA RESULT:      -6.9     29.494     34.197
REMARK  Name = C:\Users\Docking\Desktop\test protocol\1iep_ligandH.pdb
REMARK  8 active torsions:
REMARK  status: ('A' for Active; 'I' for Inactive)
REMARK    1  A    between atoms: _5  and  _11
REMARK    2  A    between atoms: _19  and  _21
REMARK    3  A    between atoms: _22  and  _66
REMARK    4  A    between atoms: _27  and  _30
REMARK    5  A    between atoms: _32  and  _33
REMARK    6  A    between atoms: _38  and  _43
REMARK    7  A    between atoms: _43  and  _46
REMARK    8  A    between atoms: _53  and  _55
REMARK                            x       y       z     vdW  Elec       q    Type
REMARK                         _______ _______ _______ _____ _____    ______ ____
ROOT
ATOM     10  C   UNL     1      75.442  60.611  34.355  0.00  0.00    +0.038 A 
ATOM     11  C   UNL     1      76.245  61.676  33.876  0.00  0.00    +0.047 A 
ATOM     12  C   UNL     1      77.684  61.688  34.089  0.00  0.00    +0.035 A 
ATOM     32  C   UNL     1      78.272  60.597  34.792  0.00  0.00    +0.024 A 
ATOM     33  C   UNL     1      77.470  59.506  35.288  0.00  0.00    +0.007 A 
ATOM     34  C   UNL     1      76.050  59.490  35.082  0.00  0.00    -0.029 A 
ATOM     35  C   UNL     1      75.238  58.298  35.641  0.00  0.00    +0.045 C 
ENDROOT
BRANCH  10   9
ATOM      4  C   UNL     1      71.579  59.714  31.651  0.00  0.00    +0.077 A 
ATOM      5  C   UNL     1      72.373  59.142  30.602  0.00  0.00    +0.048 A 
ATOM      6  C   UNL     1      73.772  59.104  30.794  0.00  0.00    +0.116 A 
ATOM      7  N   UNL     1      74.325  59.603  31.954  0.00  0.00    -0.223 NA
ATOM      8  C   UNL     1      73.531  60.150  32.945  0.00  0.00    +0.220 A 
ATOM      9  N   UNL     1      74.065  60.650  34.122  0.00  0.00    -0.283 N 
ATOM     36  H   UNL     1      73.446  61.052  34.826  0.00  0.00    +0.155 HD
ATOM     37  N   UNL     1      72.192  60.199  32.785  0.00  0.00    -0.214 NA
BRANCH   4   3
ATOM      1  C   UNL     1      67.773  59.284  32.449  0.00  0.00    +0.020 A 
ATOM      2  C   UNL     1      69.208  59.146  32.544  0.00  0.00    +0.013 A 
ATOM      3  C   UNL     1      70.087  59.822  31.597  0.00  0.00    +0.019 A 
ATOM     38  C   UNL     1      69.476  60.637  30.558  0.00  0.00    +0.120 A 
ATOM     39  N   UNL     1      68.091  60.750  30.489  0.00  0.00    -0.263 NA
ATOM     40  C   UNL     1      67.236  60.103  31.394  0.00  0.00    +0.111 A 
ENDBRANCH   4   3
ENDBRANCH  10   9
BRANCH  12  13
ATOM     13  N   UNL     1      78.550  62.747  33.632  0.00  0.00    -0.281 N 
ATOM     14  C   UNL     1      78.800  63.966  34.242  0.00  0.00    +0.248 C 
ATOM     30  O   UNL     1      78.148  64.420  35.170  0.00  0.00    -0.270 OA
ATOM     31  H   UNL     1      79.038  62.578  32.753  0.00  0.00    +0.155 HD
BRANCH  14  15
ATOM     15  C   UNL     1      79.928  64.807  33.739  0.00  0.00    +0.037 A 
ATOM     16  C   UNL     1      79.847  66.270  33.747  0.00  0.00    +0.013 A 
ATOM     17  C   UNL     1      80.943  67.058  33.240  0.00  0.00    +0.005 A 
ATOM     18  C   UNL     1      82.130  66.383  32.721  0.00  0.00    -0.033 A 
ATOM     28  C   UNL     1      82.186  64.931  32.729  0.00  0.00    +0.005 A 
ATOM     29  C   UNL     1      81.113  64.155  33.224  0.00  0.00    +0.013 A 
BRANCH  18  19
ATOM     19  C   UNL     1      83.337  67.143  32.141  0.00  0.00    +0.119 C 
BRANCH  19  20
ATOM     20  N   UNL     1      84.528  67.313  33.026  0.00  0.00    -0.302 NA
ATOM     21  C   UNL     1      84.266  68.313  34.155  0.00  0.00    +0.066 C 
ATOM     22  C   UNL     1      85.514  68.461  35.085  0.00  0.00    -0.064 C 
ATOM     23  N   UNL     1      86.721  68.893  34.249  0.00  0.00    +0.379 N 
ATOM     24  C   UNL     1      87.882  69.089  35.129  0.00  0.00    -0.096 C 
ATOM     25  H   UNL     1      86.477  69.877  33.786  0.00  0.00    -0.082 HD
ATOM     26  C   UNL     1      86.987  67.905  33.122  0.00  0.00    -0.064 C 
ATOM     27  C   UNL     1      85.730  67.743  32.221  0.00  0.00    +0.066 C 
ENDBRANCH  19  20
ENDBRANCH  18  19
ENDBRANCH  14  15
ENDBRANCH  12  13
TORSDOF 6
ENDMDL
MODEL 4
REMARK VINA RESULT:      -6.9     28.709     33.043
REMARK  Name = C:\Users\Docking\Desktop\test protocol\1iep_ligandH.pdb
REMARK  8 active torsions:
REMARK  status: ('A' for Active; 'I' for Inactive)
REMARK    1  A    between atoms: _5  and  _11
REMARK    2  A    between atoms: _19  and  _21
REMARK    3  A    between atoms: _22  and  _66
REMARK    4  A    between atoms: _27  and  _30
REMARK    5  A    between atoms: _32  and  _33
REMARK    6  A    between atoms: _38  and  _43
REMARK    7  A    between atoms: _43  and  _46
REMARK    8  A    between atoms: _53  and  _55
REMARK                            x       y       z     vdW  Elec       q    Type
REMARK                         _______ _______ _______ _____ _____    ______ ____
ROOT
ATOM     10  C   UNL     1      78.620  62.410  34.619  0.00  0.00    +0.038 A 
ATOM     11  C   UNL     1      77.671  62.105  33.610  0.00  0.00    +0.047 A 
ATOM     12  C   UNL     1      76.482  61.322  33.907  0.00  0.00    +0.035 A 
ATOM     32  C   UNL     1      76.290  60.867  35.244  0.00  0.00    +0.024 A 
ATOM     33  C   UNL     1      77.245  61.166  36.282  0.00  0.00    +0.007 A 
ATOM     34  C   UNL     1      78.421  61.937  35.994  0.00  0.00    -0.029 A 
ATOM     35  C   UNL     1      79.415  62.223  37.144  0.00  0.00    +0.045 C 
ENDROOT
BRANCH  10   9
ATOM      4  C   UNL     1      80.766  66.582  33.604  0.00  0.00    +0.077 A 
ATOM      5  C   UNL     1      79.539  67.313  33.738  0.00  0.00    +0.048 A 
ATOM      6  C   UNL     1      78.377  66.578  34.063  0.00  0.00    +0.116 A 
ATOM      7  N   UNL     1      78.449  65.213  34.237  0.00  0.00    -0.223 NA
ATOM      8  C   UNL     1      79.648  64.538  34.098  0.00  0.00    +0.220 A 
ATOM      9  N   UNL     1      79.744  63.166  34.277  0.00  0.00    -0.283 N 
ATOM     36  H   UNL     1      80.645  62.704  34.158  0.00  0.00    +0.155 HD
ATOM     37  N   UNL     1      80.771  65.217  33.787  0.00  0.00    -0.214 NA
BRANCH   4   3
ATOM      1  C   UNL     1      84.148  67.458  31.844  0.00  0.00    +0.020 A 
ATOM      2  C   UNL     1      82.888  66.810  32.125  0.00  0.00    +0.013 A 
ATOM      3  C   UNL     1      82.079  67.218  33.267  0.00  0.00    +0.019 A 
ATOM     38  C   UNL     1      82.578  68.294  34.111  0.00  0.00    +0.120 A 
ATOM     39  N   UNL     1      83.796  68.898  33.817  0.00  0.00    -0.263 NA
ATOM     40  C   UNL     1      84.584  68.512  32.722  0.00  0.00    +0.111 A 
ENDBRANCH   4   3
ENDBRANCH  10   9
BRANCH  12  13
ATOM     13  N   UNL     1      75.488  60.974  32.922  0.00  0.00    -0.281 N 
ATOM     14  C   UNL     1      74.895  59.740  32.710  0.00  0.00    +0.248 C 
ATOM     30  O   UNL     1      75.288  58.691  33.198  0.00  0.00    -0.270 OA
ATOM     31  H   UNL     1      75.185  61.729  32.307  0.00  0.00    +0.155 HD
BRANCH  14  15
ATOM     15  C   UNL     1      73.701  59.658  31.814  0.00  0.00    +0.037 A 
ATOM     16  C   UNL     1      73.842  59.361  30.386  0.00  0.00    +0.013 A 
ATOM     17  C   UNL     1      72.676  59.304  29.541  0.00  0.00    +0.005 A 
ATOM     18  C   UNL     1      71.357  59.543  30.123  0.00  0.00    -0.033 A 
ATOM     28  C   UNL     1      71.246  59.830  31.544  0.00  0.00    +0.005 A 
ATOM     29  C   UNL     1      72.387  59.888  32.375  0.00  0.00    +0.013 A 
BRANCH  18  19
ATOM     19  C   UNL     1      70.060  59.523  29.293  0.00  0.00    +0.119 C 
BRANCH  19  20
ATOM     20  N   UNL     1      68.768  59.560  30.041  0.00  0.00    -0.302 NA
ATOM     21  C   UNL     1      67.798  58.474  29.567  0.00  0.00    +0.066 C 
ATOM     22  C   UNL     1      66.461  58.513  30.376  0.00  0.00    -0.064 C 
ATOM     23  N   UNL     1      65.828  59.900  30.244  0.00  0.00    +0.379 N 
ATOM     24  C   UNL     1      64.542  59.922  30.955  0.00  0.00    -0.096 C 
ATOM     25  H   UNL     1      65.620  60.074  29.163  0.00  0.00    -0.082 HD
ATOM     26  C   UNL     1      66.787  60.986  30.710  0.00  0.00    -0.064 C 
ATOM     27  C   UNL     1      68.124  60.920  29.920  0.00  0.00    +0.066 C 
ENDBRANCH  19  20
ENDBRANCH  18  19
ENDBRANCH  14  15
ENDBRANCH  12  13
TORSDOF 6
ENDMDL
MODEL 5
REMARK VINA RESULT:      -6.8     18.922     23.341
REMARK  Name = C:\Users\Docking\Desktop\test protocol\1iep_ligandH.pdb
REMARK  8 active torsions:
REMARK  status: ('A' for Active; 'I' for Inactive)
REMARK    1  A    between atoms: _5  and  _11
REMARK    2  A    between atoms: _19  and  _21
REMARK    3  A    between atoms: _22  and  _66
REMARK    4  A    between atoms: _27  and  _30
REMARK    5  A    between atoms: _32  and  _33
REMARK    6  A    between atoms: _38  and  _43
REMARK    7  A    between atoms: _43  and  _46
REMARK    8  A    between atoms: _53  and  _55
REMARK                            x       y       z     vdW  Elec       q    Type
REMARK                         _______ _______ _______ _____ _____    ______ ____
ROOT
ATOM     10  C   UNL     1      48.734  78.408  15.307  0.00  0.00    +0.038 A 
ATOM     11  C   UNL     1      49.883  78.511  14.481  0.00  0.00    +0.047 A 
ATOM     12  C   UNL     1      50.054  79.629  13.566  0.00  0.00    +0.035 A 
ATOM     32  C   UNL     1      49.036  80.626  13.520  0.00  0.00    +0.024 A 
ATOM     33  C   UNL     1      47.862  80.537  14.352  0.00  0.00    +0.007 A 
ATOM     34  C   UNL     1      47.687  79.435  15.255  0.00  0.00    -0.029 A 
ATOM     35  C   UNL     1      46.405  79.387  16.119  0.00  0.00    +0.045 C 
ENDROOT
BRANCH  10   9
ATOM      4  C   UNL     1      47.446  73.882  16.251  0.00  0.00    +0.077 A 
ATOM      5  C   UNL     1      46.928  73.691  14.927  0.00  0.00    +0.048 A 
ATOM      6  C   UNL     1      47.007  74.784  14.035  0.00  0.00    +0.116 A 
ATOM      7  N   UNL     1      47.563  75.975  14.448  0.00  0.00    -0.223 NA
ATOM      8  C   UNL     1      48.051  76.127  15.733  0.00  0.00    +0.220 A 
ATOM      9  N   UNL     1      48.622  77.313  16.167  0.00  0.00    -0.283 N 
ATOM     36  H   UNL     1      48.964  77.388  17.125  0.00  0.00    +0.155 HD
ATOM     37  N   UNL     1      47.987  75.098  16.604  0.00  0.00    -0.214 NA
BRANCH   4   3
ATOM      1  C   UNL     1      47.588  72.049  19.704  0.00  0.00    +0.020 A 
ATOM      2  C   UNL     1      47.604  73.111  18.725  0.00  0.00    +0.013 A 
ATOM      3  C   UNL     1      47.438  72.820  17.306  0.00  0.00    +0.019 A 
ATOM     38  C   UNL     1      47.255  71.432  16.909  0.00  0.00    +0.120 A 
ATOM     39  N   UNL     1      47.246  70.430  17.874  0.00  0.00    -0.263 NA
ATOM     40  C   UNL     1      47.407  70.698  19.241  0.00  0.00    +0.111 A 
ENDBRANCH   4   3
ENDBRANCH  10   9
BRANCH  12  13
ATOM     13  N   UNL     1      51.194  79.783  12.697  0.00  0.00    -0.281 N 
ATOM     14  C   UNL     1      51.496  79.063  11.553  0.00  0.00    +0.248 C 
ATOM     30  O   UNL     1      50.937  78.029  11.219  0.00  0.00    -0.270 OA
ATOM     31  H   UNL     1      51.860  80.511  12.958  0.00  0.00    +0.155 HD
BRANCH  14  15
ATOM     15  C   UNL     1      52.586  79.555  10.657  0.00  0.00    +0.037 A 
ATOM     16  C   UNL     1      53.750  80.265  11.195  0.00  0.00    +0.013 A 
ATOM     17  C   UNL     1      54.779  80.744  10.306  0.00  0.00    +0.005 A 
ATOM     18  C   UNL     1      54.649  80.514   8.870  0.00  0.00    -0.033 A 
ATOM     28  C   UNL     1      53.487  79.802   8.363  0.00  0.00    +0.005 A 
ATOM     29  C   UNL     1      52.476  79.332   9.231  0.00  0.00    +0.013 A 
BRANCH  18  19
ATOM     19  C   UNL     1      55.688  81.008   7.846  0.00  0.00    +0.119 C 
BRANCH  19  20
ATOM     20  N   UNL     1      55.485  82.371   7.269  0.00  0.00    -0.302 NA
ATOM     21  C   UNL     1      55.636  82.378   5.745  0.00  0.00    +0.066 C 
ATOM     22  C   UNL     1      55.398  83.807   5.157  0.00  0.00    -0.064 C 
ATOM     23  N   UNL     1      56.375  84.790   5.802  0.00  0.00    +0.379 N 
ATOM     24  C   UNL     1      56.193  86.123   5.209  0.00  0.00    -0.096 C 
ATOM     25  H   UNL     1      57.408  84.450   5.559  0.00  0.00    -0.082 HD
ATOM     26  C   UNL     1      56.233  84.788   7.318  0.00  0.00    -0.064 C 
ATOM     27  C   UNL     1      56.443  83.358   7.890  0.00  0.00    +0.066 C 
ENDBRANCH  19  20
ENDBRANCH  18  19
ENDBRANCH  14  15
ENDBRANCH  12  13
TORSDOF 6
ENDMDL
