MODEL 1
REMARK VINA RESULT:      -7.8      0.000      0.000
REMARK  Name = C:\Users\Docking\Desktop\test protocol\1iep_ligandH.pdb
REMARK  8 active torsions:
REMARK  status: ('A' for Active; 'I' for Inactive)
REMARK    1  A    between atoms: _5  and  _11
REMARK    2  A    between atoms: _19  and  _21
REMARK    3  A    between atoms: _22  and  _66
REMARK    4  A    between atoms: _27  and  _30
REMARK    5  A    between atoms: _32  and  _33
REMARK    6  A    between atoms: _38  and  _43
REMARK    7  A    between atoms: _43  and  _46
REMARK    8  A    between atoms: _53  and  _55
REMARK                            x       y       z     vdW  Elec       q    Type
REMARK                         _______ _______ _______ _____ _____    ______ ____
ROOT
ATOM     10  C   UNL     1      61.029  58.904  12.491  0.00  0.00    +0.038 A 
ATOM     11  C   UNL     1      61.283  59.981  11.605  0.00  0.00    +0.047 A 
ATOM     12  C   UNL     1      60.466  60.190  10.420  0.00  0.00    +0.035 A 
ATOM     32  C   UNL     1      59.395  59.283  10.170  0.00  0.00    +0.024 A 
ATOM     33  C   UNL     1      59.124  58.181  11.059  0.00  0.00    +0.007 A 
ATOM     34  C   UNL     1      59.928  57.969  12.228  0.00  0.00    -0.029 A 
ATOM     35  C   UNL     1      59.596  56.768  13.144  0.00  0.00    +0.045 C 
ENDROOT
BRANCH  10   9
ATOM      4  C   UNL     1      64.837  57.027  14.731  0.00  0.00    +0.077 A 
ATOM      5  C   UNL     1      65.216  56.267  13.576  0.00  0.00    +0.048 A 
ATOM      6  C   UNL     1      64.401  56.381  12.428  0.00  0.00    +0.116 A 
ATOM      7  N   UNL     1      63.291  57.198  12.445  0.00  0.00    -0.223 NA
ATOM      8  C   UNL     1      62.953  57.917  13.576  0.00  0.00    +0.220 A 
ATOM      9  N   UNL     1      61.846  58.751  13.614  0.00  0.00    -0.283 N 
ATOM     36  H   UNL     1      61.626  59.259  14.470  0.00  0.00    +0.155 HD
ATOM     37  N   UNL     1      63.715  57.824  14.686  0.00  0.00    -0.214 NA
BRANCH   4   3
ATOM      1  C   UNL     1      67.743  57.021  17.349  0.00  0.00    +0.020 A 
ATOM      2  C   UNL     1      67.056  57.034  16.079  0.00  0.00    +0.013 A 
ATOM      3  C   UNL     1      65.599  57.015  16.020  0.00  0.00    +0.019 A 
ATOM     38  C   UNL     1      64.863  56.984  17.274  0.00  0.00    +0.120 A 
ATOM     39  N   UNL     1      65.552  56.971  18.483  0.00  0.00    -0.263 NA
ATOM     40  C   UNL     1      66.954  56.987  18.552  0.00  0.00    +0.111 A 
ENDBRANCH   4   3
ENDBRANCH  10   9
BRANCH  12  13
ATOM     13  N   UNL     1      60.681  61.262   9.479  0.00  0.00    -0.281 N 
ATOM     14  C   UNL     1      60.081  62.510   9.459  0.00  0.00    +0.248 C 
ATOM     30  O   UNL     1      59.105  62.819  10.127  0.00  0.00    -0.270 OA
ATOM     31  H   UNL     1      61.357  61.077   8.739  0.00  0.00    +0.155 HD
BRANCH  14  15
ATOM     15  C   UNL     1      60.637  63.564   8.557  0.00  0.00    +0.037 A 
ATOM     16  C   UNL     1      60.381  64.986   8.800  0.00  0.00    +0.013 A 
ATOM     17  C   UNL     1      60.915  65.981   7.904  0.00  0.00    +0.005 A 
ATOM     18  C   UNL     1      61.713  65.556   6.756  0.00  0.00    -0.033 A 
ATOM     28  C   UNL     1      61.956  64.139   6.541  0.00  0.00    +0.005 A 
ATOM     29  C   UNL     1      61.433  63.161   7.417  0.00  0.00    +0.013 A 
BRANCH  18  19
ATOM     19  C   UNL     1      62.304  66.547   5.737  0.00  0.00    +0.119 C 
BRANCH  19  20
ATOM     20  N   UNL     1      63.300  67.538   6.245  0.00  0.00    -0.302 NA
ATOM     21  C   UNL     1      62.666  68.907   6.505  0.00  0.00    +0.066 C 
ATOM     22  C   UNL     1      63.716  69.925   7.057  0.00  0.00    -0.064 C 
ATOM     23  N   UNL     1      64.876  70.045   6.067  0.00  0.00    +0.379 N 
ATOM     24  C   UNL     1      65.837  71.044   6.555  0.00  0.00    -0.096 C 
ATOM     25  H   UNL     1      64.459  70.419   5.103  0.00  0.00    -0.082 HD
ATOM     26  C   UNL     1      65.510  68.687   5.800  0.00  0.00    -0.064 C 
ATOM     27  C   UNL     1      64.452  67.675   5.280  0.00  0.00    +0.066 C 
ENDBRANCH  19  20
ENDBRANCH  18  19
ENDBRANCH  14  15
ENDBRANCH  12  13
TORSDOF 6
ENDMDL
MODEL 2
REMARK VINA RESULT:      -7.5     30.626     32.735
REMARK  Name = C:\Users\Docking\Desktop\test protocol\1iep_ligandH.pdb
REMARK  8 active torsions:
REMARK  status: ('A' for Active; 'I' for Inactive)
REMARK    1  A    between atoms: _5  and  _11
REMARK    2  A    between atoms: _19  and  _21
REMARK    3  A    between atoms: _22  and  _66
REMARK    4  A    between atoms: _27  and  _30
REMARK    5  A    between atoms: _32  and  _33
REMARK    6  A    between atoms: _38  and  _43
REMARK    7  A    between atoms: _43  and  _46
REMARK    8  A    between atoms: _53  and  _55
REMARK                            x       y       z     vdW  Elec       q    Type
REMARK                         _______ _______ _______ _____ _____    ______ ____
ROOT
ATOM     10  C   UNL     1      61.686  80.238  35.160  0.00  0.00    +0.038 A 
ATOM     11  C   UNL     1      62.196  81.511  34.797  0.00  0.00    +0.047 A 
ATOM     12  C   UNL     1      62.898  82.342  35.762  0.00  0.00    +0.035 A 
ATOM     32  C   UNL     1      63.065  81.845  37.088  0.00  0.00    +0.024 A 
ATOM     33  C   UNL     1      62.552  80.554  37.473  0.00  0.00    +0.007 A 
ATOM     34  C   UNL     1      61.856  79.731  36.526  0.00  0.00    -0.029 A 
ATOM     35  C   UNL     1      61.322  78.358  36.997  0.00  0.00    +0.045 C 
ENDROOT
BRANCH  10   9
ATOM      4  C   UNL     1      57.748  79.054  32.684  0.00  0.00    +0.077 A 
ATOM      5  C   UNL     1      56.943  80.005  33.395  0.00  0.00    +0.048 A 
ATOM      6  C   UNL     1      57.579  80.774  34.395  0.00  0.00    +0.116 A 
ATOM      7  N   UNL     1      58.921  80.597  34.656  0.00  0.00    -0.223 NA
ATOM      8  C   UNL     1      59.668  79.670  33.953  0.00  0.00    +0.220 A 
ATOM      9  N   UNL     1      61.020  79.481  34.193  0.00  0.00    -0.283 N 
ATOM     36  H   UNL     1      61.534  78.782  33.658  0.00  0.00    +0.155 HD
ATOM     37  N   UNL     1      59.083  78.923  32.994  0.00  0.00    -0.214 NA
BRANCH   4   3
ATOM      1  C   UNL     1      57.230  77.283  29.235  0.00  0.00    +0.020 A 
ATOM      2  C   UNL     1      57.775  78.156  30.248  0.00  0.00    +0.013 A 
ATOM      3  C   UNL     1      57.221  78.170  31.596  0.00  0.00    +0.019 A 
ATOM     38  C   UNL     1      56.108  77.280  31.889  0.00  0.00    +0.120 A 
ATOM     39  N   UNL     1      55.602  76.451  30.892  0.00  0.00    -0.263 NA
ATOM     40  C   UNL     1      56.126  76.431  29.591  0.00  0.00    +0.111 A 
ENDBRANCH   4   3
ENDBRANCH  10   9
BRANCH  12  13
ATOM     13  N   UNL     1      63.431  83.646  35.454  0.00  0.00    -0.281 N 
ATOM     14  C   UNL     1      64.380  83.975  34.500  0.00  0.00    +0.248 C 
ATOM     30  O   UNL     1      65.075  83.162  33.908  0.00  0.00    -0.270 OA
ATOM     31  H   UNL     1      63.064  84.421  36.007  0.00  0.00    +0.155 HD
BRANCH  14  15
ATOM     15  C   UNL     1      64.599  85.415  34.165  0.00  0.00    +0.037 A 
ATOM     16  C   UNL     1      64.504  85.897  32.785  0.00  0.00    +0.013 A 
ATOM     17  C   UNL     1      64.736  87.288  32.487  0.00  0.00    +0.005 A 
ATOM     18  C   UNL     1      65.065  88.208  33.573  0.00  0.00    -0.033 A 
ATOM     28  C   UNL     1      65.147  87.704  34.934  0.00  0.00    +0.005 A 
ATOM     29  C   UNL     1      64.921  86.341  35.230  0.00  0.00    +0.013 A 
BRANCH  18  19
ATOM     19  C   UNL     1      65.349  89.704  33.345  0.00  0.00    +0.119 C 
BRANCH  19  20
ATOM     20  N   UNL     1      64.419  90.683  33.985  0.00  0.00    -0.302 NA
ATOM     21  C   UNL     1      63.914  91.730  32.989  0.00  0.00    +0.066 C 
ATOM     22  C   UNL     1      62.925  92.732  33.669  0.00  0.00    -0.064 C 
ATOM     23  N   UNL     1      63.619  93.403  34.856  0.00  0.00    +0.379 N 
ATOM     24  C   UNL     1      62.711  94.387  35.462  0.00  0.00    -0.096 C 
ATOM     25  H   UNL     1      64.503  93.955  34.462  0.00  0.00    -0.082 HD
ATOM     26  C   UNL     1      64.126  92.368  35.850  0.00  0.00    -0.064 C 
ATOM     27  C   UNL     1      65.086  91.360  35.157  0.00  0.00    +0.066 C 
ENDBRANCH  19  20
ENDBRANCH  18  19
ENDBRANCH  14  15
ENDBRANCH  12  13
TORSDOF 6
ENDMDL
MODEL 3
REMARK VINA RESULT:      -6.9     20.357     24.015
REMARK  Name = C:\Users\Docking\Desktop\test protocol\1iep_ligandH.pdb
REMARK  8 active torsions:
REMARK  status: ('A' for Active; 'I' for Inactive)
REMARK    1  A    between atoms: _5  and  _11
REMARK    2  A    between atoms: _19  and  _21
REMARK    3  A    between atoms: _22  and  _66
REMARK    4  A    between atoms: _27  and  _30
REMARK    5  A    between atoms: _32  and  _33
REMARK    6  A    between atoms: _38  and  _43
REMARK    7  A    between atoms: _43  and  _46
REMARK    8  A    between atoms: _53  and  _55
REMARK                            x       y       z     vdW  Elec       q    Type
REMARK                         _______ _______ _______ _____ _____    ______ ____
ROOT
ATOM     10  C   UNL     1      46.788  69.971  18.779  0.00  0.00    +0.038 A 
ATOM     11  C   UNL     1      46.918  70.011  20.191  0.00  0.00    +0.047 A 
ATOM     12  C   UNL     1      46.322  68.983  21.030  0.00  0.00    +0.035 A 
ATOM     32  C   UNL     1      45.603  67.927  20.398  0.00  0.00    +0.024 A 
ATOM     33  C   UNL     1      45.460  67.872  18.964  0.00  0.00    +0.007 A 
ATOM     34  C   UNL     1      46.043  68.884  18.131  0.00  0.00    -0.029 A 
ATOM     35  C   UNL     1      45.853  68.778  16.600  0.00  0.00    +0.045 C 
ENDROOT
BRANCH  10   9
ATOM      4  C   UNL     1      46.866  74.425  16.991  0.00  0.00    +0.077 A 
ATOM      5  C   UNL     1      45.607  74.753  17.596  0.00  0.00    +0.048 A 
ATOM      6  C   UNL     1      44.969  73.746  18.354  0.00  0.00    +0.116 A 
ATOM      7  N   UNL     1      45.555  72.506  18.489  0.00  0.00    -0.223 NA
ATOM      8  C   UNL     1      46.769  72.221  17.891  0.00  0.00    +0.220 A 
ATOM      9  N   UNL     1      47.380  70.984  18.021  0.00  0.00    -0.283 N 
ATOM     36  H   UNL     1      48.272  70.811  17.558  0.00  0.00    +0.155 HD
ATOM     37  N   UNL     1      47.398  73.166  17.162  0.00  0.00    -0.214 NA
BRANCH   4   3
ATOM      1  C   UNL     1      49.753  76.709  15.670  0.00  0.00    +0.020 A 
ATOM      2  C   UNL     1      49.025  75.780  16.503  0.00  0.00    +0.013 A 
ATOM      3  C   UNL     1      47.664  75.384  16.164  0.00  0.00    +0.019 A 
ATOM     38  C   UNL     1      47.063  75.951  14.966  0.00  0.00    +0.120 A 
ATOM     39  N   UNL     1      47.788  76.845  14.184  0.00  0.00    -0.263 NA
ATOM     40  C   UNL     1      49.098  77.235  14.501  0.00  0.00    +0.111 A 
ENDBRANCH   4   3
ENDBRANCH  10   9
BRANCH  12  13
ATOM     13  N   UNL     1      46.414  68.975  22.469  0.00  0.00    -0.281 N 
ATOM     14  C   UNL     1      46.893  67.965  23.287  0.00  0.00    +0.248 C 
ATOM     30  O   UNL     1      47.118  66.823  22.914  0.00  0.00    -0.270 OA
ATOM     31  H   UNL     1      46.086  69.817  22.943  0.00  0.00    +0.155 HD
BRANCH  14  15
ATOM     15  C   UNL     1      47.144  68.261  24.730  0.00  0.00    +0.037 A 
ATOM     16  C   UNL     1      48.493  68.190  25.297  0.00  0.00    +0.013 A 
ATOM     17  C   UNL     1      48.705  68.464  26.696  0.00  0.00    +0.005 A 
ATOM     18  C   UNL     1      47.564  68.814  27.538  0.00  0.00    -0.033 A 
ATOM     28  C   UNL     1      46.237  68.882  26.949  0.00  0.00    +0.005 A 
ATOM     29  C   UNL     1      46.025  68.613  25.578  0.00  0.00    +0.013 A 
BRANCH  18  19
ATOM     19  C   UNL     1      47.694  69.101  29.046  0.00  0.00    +0.119 C 
BRANCH  19  20
ATOM     20  N   UNL     1      48.350  70.382  29.443  0.00  0.00    -0.302 NA
ATOM     21  C   UNL     1      48.087  71.501  28.431  0.00  0.00    +0.066 C 
ATOM     22  C   UNL     1      48.762  72.840  28.874  0.00  0.00    -0.064 C 
ATOM     23  N   UNL     1      50.265  72.615  29.054  0.00  0.00    +0.379 N 
ATOM     24  C   UNL     1      50.912  73.885  29.414  0.00  0.00    -0.096 C 
ATOM     25  H   UNL     1      50.678  72.291  28.070  0.00  0.00    -0.082 HD
ATOM     26  C   UNL     1      50.536  71.502  30.056  0.00  0.00    -0.064 C 
ATOM     27  C   UNL     1      49.836  70.184  29.622  0.00  0.00    +0.066 C 
ENDBRANCH  19  20
ENDBRANCH  18  19
ENDBRANCH  14  15
ENDBRANCH  12  13
TORSDOF 6
ENDMDL
MODEL 4
REMARK VINA RESULT:      -6.8      9.429     15.262
REMARK  Name = C:\Users\Docking\Desktop\test protocol\1iep_ligandH.pdb
REMARK  8 active torsions:
REMARK  status: ('A' for Active; 'I' for Inactive)
REMARK    1  A    between atoms: _5  and  _11
REMARK    2  A    between atoms: _19  and  _21
REMARK    3  A    between atoms: _22  and  _66
REMARK    4  A    between atoms: _27  and  _30
REMARK    5  A    between atoms: _32  and  _33
REMARK    6  A    between atoms: _38  and  _43
REMARK    7  A    between atoms: _43  and  _46
REMARK    8  A    between atoms: _53  and  _55
REMARK                            x       y       z     vdW  Elec       q    Type
REMARK                         _______ _______ _______ _____ _____    ______ ____
ROOT
ATOM     10  C   UNL     1      52.334  70.046  12.620  0.00  0.00    +0.038 A 
ATOM     11  C   UNL     1      53.485  69.392  12.113  0.00  0.00    +0.047 A 
ATOM     12  C   UNL     1      53.506  67.951  11.915  0.00  0.00    +0.035 A 
ATOM     32  C   UNL     1      52.336  67.207  12.242  0.00  0.00    +0.024 A 
ATOM     33  C   UNL     1      51.156  67.855  12.760  0.00  0.00    +0.007 A 
ATOM     34  C   UNL     1      51.131  69.276  12.959  0.00  0.00    -0.029 A 
ATOM     35  C   UNL     1      49.841  69.917  13.523  0.00  0.00    +0.045 C 
ENDROOT
BRANCH  10   9
ATOM      4  C   UNL     1      52.436  74.521  10.888  0.00  0.00    +0.077 A 
ATOM      5  C   UNL     1      52.449  74.058   9.530  0.00  0.00    +0.048 A 
ATOM      6  C   UNL     1      52.436  72.661   9.320  0.00  0.00    +0.116 A 
ATOM      7  N   UNL     1      52.411  71.800  10.396  0.00  0.00    -0.223 NA
ATOM      8  C   UNL     1      52.401  72.279  11.693  0.00  0.00    +0.220 A 
ATOM      9  N   UNL     1      52.368  71.432  12.790  0.00  0.00    -0.283 N 
ATOM     36  H   UNL     1      52.369  71.824  13.731  0.00  0.00    +0.155 HD
ATOM     37  N   UNL     1      52.415  73.609  11.920  0.00  0.00    -0.214 NA
BRANCH   4   3
ATOM      1  C   UNL     1      53.599  78.187  11.603  0.00  0.00    +0.020 A 
ATOM      2  C   UNL     1      53.645  76.794  11.222  0.00  0.00    +0.013 A 
ATOM      3  C   UNL     1      52.445  75.968  11.272  0.00  0.00    +0.019 A 
ATOM     38  C   UNL     1      51.205  76.587  11.714  0.00  0.00    +0.120 A 
ATOM     39  N   UNL     1      51.191  77.931  12.076  0.00  0.00    -0.263 NA
ATOM     40  C   UNL     1      52.340  78.735  12.034  0.00  0.00    +0.111 A 
ENDBRANCH   4   3
ENDBRANCH  10   9
BRANCH  12  13
ATOM     13  N   UNL     1      54.649  67.231  11.411  0.00  0.00    -0.281 N 
ATOM     14  C   UNL     1      55.104  67.161  10.104  0.00  0.00    +0.248 C 
ATOM     30  O   UNL     1      54.468  67.538   9.130  0.00  0.00    -0.270 OA
ATOM     31  H   UNL     1      55.189  66.709  12.101  0.00  0.00    +0.155 HD
BRANCH  14  15
ATOM     15  C   UNL     1      56.453  66.576   9.839  0.00  0.00    +0.037 A 
ATOM     16  C   UNL     1      57.301  66.095  10.932  0.00  0.00    +0.013 A 
ATOM     17  C   UNL     1      58.606  65.551  10.650  0.00  0.00    +0.005 A 
ATOM     18  C   UNL     1      59.070  65.483   9.267  0.00  0.00    -0.033 A 
ATOM     28  C   UNL     1      58.206  65.963   8.201  0.00  0.00    +0.005 A 
ATOM     29  C   UNL     1      56.927  66.498   8.473  0.00  0.00    +0.013 A 
BRANCH  18  19
ATOM     19  C   UNL     1      60.456  64.938   8.875  0.00  0.00    +0.119 C 
BRANCH  19  20
ATOM     20  N   UNL     1      60.603  63.455   8.772  0.00  0.00    -0.302 NA
ATOM     21  C   UNL     1      61.594  63.050   7.677  0.00  0.00    +0.066 C 
ATOM     22  C   UNL     1      61.752  61.497   7.598  0.00  0.00    -0.064 C 
ATOM     23  N   UNL     1      60.384  60.859   7.353  0.00  0.00    +0.379 N 
ATOM     24  C   UNL     1      60.538  59.403   7.221  0.00  0.00    -0.096 C 
ATOM     25  H   UNL     1      59.999  61.249   6.382  0.00  0.00    -0.082 HD
ATOM     26  C   UNL     1      59.391  61.259   8.436  0.00  0.00    -0.064 C 
ATOM     27  C   UNL     1      59.263  62.805   8.526  0.00  0.00    +0.066 C 
ENDBRANCH  19  20
ENDBRANCH  18  19
ENDBRANCH  14  15
ENDBRANCH  12  13
TORSDOF 6
ENDMDL
MODEL 5
REMARK VINA RESULT:      -6.8      9.319     14.923
REMARK  Name = C:\Users\Docking\Desktop\test protocol\1iep_ligandH.pdb
REMARK  8 active torsions:
REMARK  status: ('A' for Active; 'I' for Inactive)
REMARK    1  A    between atoms: _5  and  _11
REMARK    2  A    between atoms: _19  and  _21
REMARK    3  A    between atoms: _22  and  _66
REMARK    4  A    between atoms: _27  and  _30
REMARK    5  A    between atoms: _32  and  _33
REMARK    6  A    between atoms: _38  and  _43
REMARK    7  A    between atoms: _43  and  _46
REMARK    8  A    between atoms: _53  and  _55
REMARK                            x       y       z     vdW  Elec       q    Type
REMARK                         _______ _______ _______ _____ _____    ______ ____
ROOT
ATOM     10  C   UNL     1      52.362  69.874  12.502  0.00  0.00    +0.038 A 
ATOM     11  C   UNL     1      53.415  69.184  11.849  0.00  0.00    +0.047 A 
ATOM     12  C   UNL     1      53.362  67.744  11.650  0.00  0.00    +0.035 A 
ATOM     32  C   UNL     1      52.219  67.038  12.126  0.00  0.00    +0.024 A 
ATOM     33  C   UNL     1      51.140  67.723  12.793  0.00  0.00    +0.007 A 
ATOM     34  C   UNL     1      51.188  69.143  12.995  0.00  0.00    -0.029 A 
ATOM     35  C   UNL     1      50.005  69.824  13.722  0.00  0.00    +0.045 C 
ENDROOT
BRANCH  10   9
ATOM      4  C   UNL     1      52.472  74.347  10.765  0.00  0.00    +0.077 A 
ATOM      5  C   UNL     1      52.340  73.888   9.412  0.00  0.00    +0.048 A 
ATOM      6  C   UNL     1      52.254  72.493   9.206  0.00  0.00    +0.116 A 
ATOM      7  N   UNL     1      52.297  71.630  10.280  0.00  0.00    -0.223 NA
ATOM      8  C   UNL     1      52.427  72.106  11.572  0.00  0.00    +0.220 A 
ATOM      9  N   UNL     1      52.465  71.257  12.667  0.00  0.00    -0.283 N 
ATOM     36  H   UNL     1      52.569  71.647  13.603  0.00  0.00    +0.155 HD
ATOM     37  N   UNL     1      52.513  73.434  11.795  0.00  0.00    -0.214 NA
BRANCH   4   3
ATOM      1  C   UNL     1      53.822  77.975  11.325  0.00  0.00    +0.020 A 
ATOM      2  C   UNL     1      53.779  76.583  10.941  0.00  0.00    +0.013 A 
ATOM      3  C   UNL     1      52.572  75.791  11.145  0.00  0.00    +0.019 A 
ATOM     38  C   UNL     1      51.417  76.444  11.744  0.00  0.00    +0.120 A 
ATOM     39  N   UNL     1      51.489  77.786  12.105  0.00  0.00    -0.263 NA
ATOM     40  C   UNL     1      52.646  78.557  11.915  0.00  0.00    +0.111 A 
ENDBRANCH   4   3
ENDBRANCH  10   9
BRANCH  12  13
ATOM     13  N   UNL     1      54.405  66.989  11.001  0.00  0.00    -0.281 N 
ATOM     14  C   UNL     1      55.725  66.847  11.396  0.00  0.00    +0.248 C 
ATOM     30  O   UNL     1      56.266  67.525  12.257  0.00  0.00    -0.270 OA
ATOM     31  H   UNL     1      54.137  66.500  10.147  0.00  0.00    +0.155 HD
BRANCH  14  15
ATOM     15  C   UNL     1      56.571  65.811  10.729  0.00  0.00    +0.037 A 
ATOM     16  C   UNL     1      55.976  64.606  10.144  0.00  0.00    +0.013 A 
ATOM     17  C   UNL     1      56.817  63.614   9.521  0.00  0.00    +0.005 A 
ATOM     18  C   UNL     1      58.262  63.824   9.479  0.00  0.00    -0.033 A 
ATOM     28  C   UNL     1      58.824  65.031  10.062  0.00  0.00    +0.005 A 
ATOM     29  C   UNL     1      58.004  66.005  10.674  0.00  0.00    +0.013 A 
BRANCH  18  19
ATOM     19  C   UNL     1      59.237  62.809   8.853  0.00  0.00    +0.119 C 
BRANCH  19  20
ATOM     20  N   UNL     1      59.875  63.184   7.556  0.00  0.00    -0.302 NA
ATOM     21  C   UNL     1      61.202  63.921   7.761  0.00  0.00    +0.066 C 
ATOM     22  C   UNL     1      61.867  64.286   6.394  0.00  0.00    -0.064 C 
ATOM     23  N   UNL     1      60.898  65.134   5.569  0.00  0.00    +0.379 N 
ATOM     24  C   UNL     1      61.542  65.528   4.307  0.00  0.00    -0.096 C 
ATOM     25  H   UNL     1      60.687  66.065   6.145  0.00  0.00    -0.082 HD
ATOM     26  C   UNL     1      59.575  64.410   5.363  0.00  0.00    -0.064 C 
ATOM     27  C   UNL     1      58.937  64.026   6.727  0.00  0.00    +0.066 C 
ENDBRANCH  19  20
ENDBRANCH  18  19
ENDBRANCH  14  15
ENDBRANCH  12  13
TORSDOF 6
ENDMDL
