MODEL 1
REMARK VINA RESULT:     -10.0      0.000      0.000
REMARK  Name = C:\Users\Docking\Desktop\test protocol\1iep_ligandH.pdb
REMARK  8 active torsions:
REMARK  status: ('A' for Active; 'I' for Inactive)
REMARK    1  A    between atoms: _5  and  _11
REMARK    2  A    between atoms: _19  and  _21
REMARK    3  A    between atoms: _22  and  _66
REMARK    4  A    between atoms: _27  and  _30
REMARK    5  A    between atoms: _32  and  _33
REMARK    6  A    between atoms: _38  and  _43
REMARK    7  A    between atoms: _43  and  _46
REMARK    8  A    between atoms: _53  and  _55
REMARK                            x       y       z     vdW  Elec       q    Type
REMARK                         _______ _______ _______ _____ _____    ______ ____
ROOT
ATOM     10  C   UNL     1      66.723  93.278  47.250  0.00  0.00    +0.038 A 
ATOM     11  C   UNL     1      67.246  92.911  45.984  0.00  0.00    +0.047 A 
ATOM     12  C   UNL     1      67.680  91.549  45.715  0.00  0.00    +0.035 A 
ATOM     32  C   UNL     1      67.564  90.585  46.758  0.00  0.00    +0.024 A 
ATOM     33  C   UNL     1      67.035  90.941  48.052  0.00  0.00    +0.007 A 
ATOM     34  C   UNL     1      66.608  92.283  48.324  0.00  0.00    -0.029 A 
ATOM     35  C   UNL     1      66.055  92.610  49.730  0.00  0.00    +0.045 C 
ENDROOT
BRANCH  10   9
ATOM      4  C   UNL     1      63.410  96.751  47.202  0.00  0.00    +0.077 A 
ATOM      5  C   UNL     1      62.400  95.862  46.703  0.00  0.00    +0.048 A 
ATOM      6  C   UNL     1      62.776  94.520  46.466  0.00  0.00    +0.116 A 
ATOM      7  N   UNL     1      64.068  94.110  46.713  0.00  0.00    -0.223 NA
ATOM      8  C   UNL     1      65.018  94.993  47.191  0.00  0.00    +0.220 A 
ATOM      9  N   UNL     1      66.321  94.600  47.454  0.00  0.00    -0.283 N 
ATOM     36  H   UNL     1      66.994  95.284  47.799  0.00  0.00    +0.155 HD
ATOM     37  N   UNL     1      64.684  96.280  47.425  0.00  0.00    -0.214 NA
BRANCH   4   3
ATOM      1  C   UNL     1      63.500 100.277  48.891  0.00  0.00    +0.020 A 
ATOM      2  C   UNL     1      63.767  98.879  48.643  0.00  0.00    +0.013 A 
ATOM      3  C   UNL     1      63.166  98.196  47.505  0.00  0.00    +0.019 A 
ATOM     38  C   UNL     1      62.292  98.963  46.629  0.00  0.00    +0.120 A 
ATOM     39  N   UNL     1      62.052 100.307  46.893  0.00  0.00    -0.263 NA
ATOM     40  C   UNL     1      62.624 100.975  47.987  0.00  0.00    +0.111 A 
ENDBRANCH   4   3
ENDBRANCH  10   9
BRANCH  12  13
ATOM     13  N   UNL     1      68.227  91.120  44.452  0.00  0.00    -0.281 N 
ATOM     14  C   UNL     1      67.658  91.236  43.194  0.00  0.00    +0.248 C 
ATOM     30  O   UNL     1      66.491  91.536  42.988  0.00  0.00    -0.270 OA
ATOM     31  H   UNL     1      69.145  90.677  44.489  0.00  0.00    +0.155 HD
BRANCH  14  15
ATOM     15  C   UNL     1      68.503  90.966  41.992  0.00  0.00    +0.037 A 
ATOM     16  C   UNL     1      67.902  90.592  40.709  0.00  0.00    +0.013 A 
ATOM     17  C   UNL     1      68.742  90.320  39.569  0.00  0.00    +0.005 A 
ATOM     18  C   UNL     1      70.193  90.422  39.707  0.00  0.00    -0.033 A 
ATOM     28  C   UNL     1      70.762  90.800  40.990  0.00  0.00    +0.005 A 
ATOM     29  C   UNL     1      69.942  91.067  42.109  0.00  0.00    +0.013 A 
BRANCH  18  19
ATOM     19  C   UNL     1      71.166  90.129  38.550  0.00  0.00    +0.119 C 
BRANCH  19  20
ATOM     20  N   UNL     1      72.478  90.842  38.562  0.00  0.00    -0.302 NA
ATOM     21  C   UNL     1      72.310  92.357  38.408  0.00  0.00    +0.066 C 
ATOM     22  C   UNL     1      73.691  93.089  38.446  0.00  0.00    -0.064 C 
ATOM     23  N   UNL     1      74.593  92.528  37.345  0.00  0.00    +0.379 N 
ATOM     24  C   UNL     1      75.872  93.254  37.341  0.00  0.00    -0.096 C 
ATOM     25  H   UNL     1      74.092  92.719  36.368  0.00  0.00    -0.082 HD
ATOM     26  C   UNL     1      74.763  91.022  37.490  0.00  0.00    -0.064 C 
ATOM     27  C   UNL     1      73.383  90.307  37.480  0.00  0.00    +0.066 C 
ENDBRANCH  19  20
ENDBRANCH  18  19
ENDBRANCH  14  15
ENDBRANCH  12  13
TORSDOF 6
ENDMDL
MODEL 2
REMARK VINA RESULT:      -8.3     14.048     18.578
REMARK  Name = C:\Users\Docking\Desktop\test protocol\1iep_ligandH.pdb
REMARK  8 active torsions:
REMARK  status: ('A' for Active; 'I' for Inactive)
REMARK    1  A    between atoms: _5  and  _11
REMARK    2  A    between atoms: _19  and  _21
REMARK    3  A    between atoms: _22  and  _66
REMARK    4  A    between atoms: _27  and  _30
REMARK    5  A    between atoms: _32  and  _33
REMARK    6  A    between atoms: _38  and  _43
REMARK    7  A    between atoms: _43  and  _46
REMARK    8  A    between atoms: _53  and  _55
REMARK                            x       y       z     vdW  Elec       q    Type
REMARK                         _______ _______ _______ _____ _____    ______ ____
ROOT
ATOM     10  C   UNL     1      55.209  84.940  46.720  0.00  0.00    +0.038 A 
ATOM     11  C   UNL     1      55.852  84.190  47.737  0.00  0.00    +0.047 A 
ATOM     12  C   UNL     1      55.400  82.853  48.087  0.00  0.00    +0.035 A 
ATOM     32  C   UNL     1      54.289  82.309  47.379  0.00  0.00    +0.024 A 
ATOM     33  C   UNL     1      53.622  83.058  46.342  0.00  0.00    +0.007 A 
ATOM     34  C   UNL     1      54.063  84.378  45.994  0.00  0.00    -0.029 A 
ATOM     35  C   UNL     1      53.306  85.137  44.880  0.00  0.00    +0.045 C 
ENDROOT
BRANCH  10   9
ATOM      4  C   UNL     1      55.006  89.722  47.087  0.00  0.00    +0.077 A 
ATOM      5  C   UNL     1      53.836  89.668  47.915  0.00  0.00    +0.048 A 
ATOM      6  C   UNL     1      53.314  88.390  48.217  0.00  0.00    +0.116 A 
ATOM      7  N   UNL     1      53.924  87.258  47.723  0.00  0.00    -0.223 NA
ATOM      8  C   UNL     1      55.050  87.345  46.926  0.00  0.00    +0.220 A 
ATOM      9  N   UNL     1      55.685  86.219  46.425  0.00  0.00    -0.283 N 
ATOM     36  H   UNL     1      56.510  86.326  45.834  0.00  0.00    +0.155 HD
ATOM     37  N   UNL     1      55.568  88.554  46.622  0.00  0.00    -0.214 NA
BRANCH   4   3
ATOM      1  C   UNL     1      56.398  92.697  44.964  0.00  0.00    +0.020 A 
ATOM      2  C   UNL     1      55.737  91.458  45.301  0.00  0.00    +0.013 A 
ATOM      3  C   UNL     1      55.679  90.997  46.682  0.00  0.00    +0.019 A 
ATOM     38  C   UNL     1      56.303  91.820  47.707  0.00  0.00    +0.120 A 
ATOM     39  N   UNL     1      56.934  93.009  47.352  0.00  0.00    -0.263 NA
ATOM     40  C   UNL     1      56.998  93.462  46.026  0.00  0.00    +0.111 A 
ENDBRANCH   4   3
ENDBRANCH  10   9
BRANCH  12  13
ATOM     13  N   UNL     1      56.009  82.048  49.117  0.00  0.00    -0.281 N 
ATOM     14  C   UNL     1      56.133  82.340  50.465  0.00  0.00    +0.248 C 
ATOM     30  O   UNL     1      55.928  83.441  50.955  0.00  0.00    -0.270 OA
ATOM     31  H   UNL     1      56.395  81.153  48.814  0.00  0.00    +0.155 HD
BRANCH  14  15
ATOM     15  C   UNL     1      56.561  81.258  51.402  0.00  0.00    +0.037 A 
ATOM     16  C   UNL     1      57.874  81.291  52.052  0.00  0.00    +0.013 A 
ATOM     17  C   UNL     1      58.269  80.225  52.938  0.00  0.00    +0.005 A 
ATOM     18  C   UNL     1      57.348  79.117  53.181  0.00  0.00    -0.033 A 
ATOM     28  C   UNL     1      56.050  79.112  52.528  0.00  0.00    +0.005 A 
ATOM     29  C   UNL     1      55.660  80.155  51.657  0.00  0.00    +0.013 A 
BRANCH  18  19
ATOM     19  C   UNL     1      57.695  77.927  54.095  0.00  0.00    +0.119 C 
BRANCH  19  20
ATOM     20  N   UNL     1      57.996  78.229  55.526  0.00  0.00    -0.302 NA
ATOM     21  C   UNL     1      59.225  77.464  56.028  0.00  0.00    +0.066 C 
ATOM     22  C   UNL     1      59.539  77.809  57.521  0.00  0.00    -0.064 C 
ATOM     23  N   UNL     1      58.315  77.494  58.383  0.00  0.00    +0.379 N 
ATOM     24  C   UNL     1      58.627  77.763  59.794  0.00  0.00    -0.096 C 
ATOM     25  H   UNL     1      58.104  76.404  58.284  0.00  0.00    -0.082 HD
ATOM     26  C   UNL     1      57.089  78.248  57.889  0.00  0.00    -0.064 C 
ATOM     27  C   UNL     1      56.803  77.921  56.397  0.00  0.00    +0.066 C 
ENDBRANCH  19  20
ENDBRANCH  18  19
ENDBRANCH  14  15
ENDBRANCH  12  13
TORSDOF 6
ENDMDL
MODEL 3
REMARK VINA RESULT:      -8.3     30.066     32.555
REMARK  Name = C:\Users\Docking\Desktop\test protocol\1iep_ligandH.pdb
REMARK  8 active torsions:
REMARK  status: ('A' for Active; 'I' for Inactive)
REMARK    1  A    between atoms: _5  and  _11
REMARK    2  A    between atoms: _19  and  _21
REMARK    3  A    between atoms: _22  and  _66
REMARK    4  A    between atoms: _27  and  _30
REMARK    5  A    between atoms: _32  and  _33
REMARK    6  A    between atoms: _38  and  _43
REMARK    7  A    between atoms: _43  and  _46
REMARK    8  A    between atoms: _53  and  _55
REMARK                            x       y       z     vdW  Elec       q    Type
REMARK                         _______ _______ _______ _____ _____    ______ ____
ROOT
ATOM     10  C   UNL     1      54.920 120.924  33.752  0.00  0.00    +0.038 A 
ATOM     11  C   UNL     1      54.416 119.649  33.386  0.00  0.00    +0.047 A 
ATOM     12  C   UNL     1      52.986 119.409  33.274  0.00  0.00    +0.035 A 
ATOM     32  C   UNL     1      52.096 120.491  33.540  0.00  0.00    +0.024 A 
ATOM     33  C   UNL     1      52.591 121.793  33.914  0.00  0.00    +0.007 A 
ATOM     34  C   UNL     1      54.001 122.035  34.029  0.00  0.00    -0.029 A 
ATOM     35  C   UNL     1      54.474 123.448  34.440  0.00  0.00    +0.045 C 
ENDROOT
BRANCH  10   9
ATOM      4  C   UNL     1      59.130 122.382  31.969  0.00  0.00    +0.077 A 
ATOM      5  C   UNL     1      58.529 122.808  30.738  0.00  0.00    +0.048 A 
ATOM      6  C   UNL     1      57.134 122.627  30.601  0.00  0.00    +0.116 A 
ATOM      7  N   UNL     1      56.405 122.062  31.625  0.00  0.00    -0.223 NA
ATOM      8  C   UNL     1      57.017 121.661  32.799  0.00  0.00    +0.220 A 
ATOM      9  N   UNL     1      56.302 121.098  33.845  0.00  0.00    -0.283 N 
ATOM     36  H   UNL     1      56.791 120.809  34.691  0.00  0.00    +0.155 HD
ATOM     37  N   UNL     1      58.348 121.821  32.953  0.00  0.00    -0.214 NA
BRANCH   4   3
ATOM      1  C   UNL     1      63.003 122.755  31.563  0.00  0.00    +0.020 A 
ATOM      2  C   UNL     1      61.604 122.634  31.223  0.00  0.00    +0.013 A 
ATOM      3  C   UNL     1      60.592 122.509  32.265  0.00  0.00    +0.019 A 
ATOM     38  C   UNL     1      61.033 122.510  33.652  0.00  0.00    +0.120 A 
ATOM     39  N   UNL     1      62.387 122.626  33.949  0.00  0.00    -0.263 NA
ATOM     40  C   UNL     1      63.370 122.746  32.955  0.00  0.00    +0.111 A 
ENDBRANCH   4   3
ENDBRANCH  10   9
BRANCH  12  13
ATOM     13  N   UNL     1      52.416 118.135  32.915  0.00  0.00    -0.281 N 
ATOM     14  C   UNL     1      51.616 117.310  33.689  0.00  0.00    +0.248 C 
ATOM     30  O   UNL     1      51.445 117.445  34.892  0.00  0.00    -0.270 OA
ATOM     31  H   UNL     1      52.627 117.800  31.975  0.00  0.00    +0.155 HD
BRANCH  14  15
ATOM     15  C   UNL     1      50.918 116.161  33.037  0.00  0.00    +0.037 A 
ATOM     16  C   UNL     1      51.670 115.077  32.400  0.00  0.00    +0.013 A 
ATOM     17  C   UNL     1      50.972 113.989  31.763  0.00  0.00    +0.005 A 
ATOM     18  C   UNL     1      49.511 113.979  31.761  0.00  0.00    -0.033 A 
ATOM     28  C   UNL     1      48.790 115.065  32.404  0.00  0.00    +0.005 A 
ATOM     29  C   UNL     1      49.471 116.133  33.029  0.00  0.00    +0.013 A 
BRANCH  18  19
ATOM     19  C   UNL     1      48.683 112.869  31.086  0.00  0.00    +0.119 C 
BRANCH  19  20
ATOM     20  N   UNL     1      47.898 113.244  29.872  0.00  0.00    -0.302 NA
ATOM     21  C   UNL     1      46.940 112.130  29.441  0.00  0.00    +0.066 C 
ATOM     22  C   UNL     1      46.111 112.547  28.183  0.00  0.00    -0.064 C 
ATOM     23  N   UNL     1      47.065 112.911  27.045  0.00  0.00    +0.379 N 
ATOM     24  C   UNL     1      46.289 113.248  25.843  0.00  0.00    -0.096 C 
ATOM     25  H   UNL     1      47.674 112.007  26.812  0.00  0.00    -0.082 HD
ATOM     26  C   UNL     1      48.023 114.016  27.466  0.00  0.00    -0.064 C 
ATOM     27  C   UNL     1      48.821 113.603  28.734  0.00  0.00    +0.066 C 
ENDBRANCH  19  20
ENDBRANCH  18  19
ENDBRANCH  14  15
ENDBRANCH  12  13
TORSDOF 6
ENDMDL
MODEL 4
REMARK VINA RESULT:      -8.3      7.253     12.905
REMARK  Name = C:\Users\Docking\Desktop\test protocol\1iep_ligandH.pdb
REMARK  8 active torsions:
REMARK  status: ('A' for Active; 'I' for Inactive)
REMARK    1  A    between atoms: _5  and  _11
REMARK    2  A    between atoms: _19  and  _21
REMARK    3  A    between atoms: _22  and  _66
REMARK    4  A    between atoms: _27  and  _30
REMARK    5  A    between atoms: _32  and  _33
REMARK    6  A    between atoms: _38  and  _43
REMARK    7  A    between atoms: _43  and  _46
REMARK    8  A    between atoms: _53  and  _55
REMARK                            x       y       z     vdW  Elec       q    Type
REMARK                         _______ _______ _______ _____ _____    ______ ____
ROOT
ATOM     10  C   UNL     1      74.018  92.647  36.854  0.00  0.00    +0.038 A 
ATOM     11  C   UNL     1      73.653  92.290  35.531  0.00  0.00    +0.047 A 
ATOM     12  C   UNL     1      74.633  92.279  34.456  0.00  0.00    +0.035 A 
ATOM     32  C   UNL     1      75.978  92.635  34.765  0.00  0.00    +0.024 A 
ATOM     33  C   UNL     1      76.367  93.002  36.105  0.00  0.00    +0.007 A 
ATOM     34  C   UNL     1      75.403  93.017  37.168  0.00  0.00    -0.029 A 
ATOM     35  C   UNL     1      75.875  93.425  38.583  0.00  0.00    +0.045 C 
ENDROOT
BRANCH  10   9
ATOM      4  C   UNL     1      70.619  90.446  39.431  0.00  0.00    +0.077 A 
ATOM      5  C   UNL     1      70.796  89.212  38.720  0.00  0.00    +0.048 A 
ATOM      6  C   UNL     1      71.768  89.188  37.694  0.00  0.00    +0.116 A 
ATOM      7  N   UNL     1      72.501  90.319  37.409  0.00  0.00    -0.223 NA
ATOM      8  C   UNL     1      72.304  91.493  38.112  0.00  0.00    +0.220 A 
ATOM      9  N   UNL     1      73.036  92.641  37.847  0.00  0.00    -0.283 N 
ATOM     36  H   UNL     1      72.855  93.489  38.383  0.00  0.00    +0.155 HD
ATOM     37  N   UNL     1      71.382  91.543  39.095  0.00  0.00    -0.214 NA
BRANCH   4   3
ATOM      1  C   UNL     1      69.019  91.290  42.899  0.00  0.00    +0.020 A 
ATOM      2  C   UNL     1      70.010  91.132  41.859  0.00  0.00    +0.013 A 
ATOM      3  C   UNL     1      69.634  90.629  40.543  0.00  0.00    +0.019 A 
ATOM     38  C   UNL     1      68.238  90.293  40.311  0.00  0.00    +0.120 A 
ATOM     39  N   UNL     1      67.306  90.454  41.332  0.00  0.00    -0.263 NA
ATOM     40  C   UNL     1      67.656  90.936  42.602  0.00  0.00    +0.111 A 
ENDBRANCH   4   3
ENDBRANCH  10   9
BRANCH  12  13
ATOM     13  N   UNL     1      74.319  91.933  33.092  0.00  0.00    -0.281 N 
ATOM     14  C   UNL     1      73.534  90.885  32.639  0.00  0.00    +0.248 C 
ATOM     30  O   UNL     1      73.155  89.955  33.334  0.00  0.00    -0.270 OA
ATOM     31  H   UNL     1      74.725  92.533  32.374  0.00  0.00    +0.155 HD
BRANCH  14  15
ATOM     15  C   UNL     1      73.124  90.860  31.202  0.00  0.00    +0.037 A 
ATOM     16  C   UNL     1      72.219  89.829  30.688  0.00  0.00    +0.013 A 
ATOM     17  C   UNL     1      71.852  89.818  29.294  0.00  0.00    +0.005 A 
ATOM     18  C   UNL     1      72.390  90.844  28.404  0.00  0.00    -0.033 A 
ATOM     28  C   UNL     1      73.281  91.858  28.941  0.00  0.00    +0.005 A 
ATOM     29  C   UNL     1      73.644  91.872  30.307  0.00  0.00    +0.013 A 
BRANCH  18  19
ATOM     19  C   UNL     1      72.070  90.897  26.898  0.00  0.00    +0.119 C 
BRANCH  19  20
ATOM     20  N   UNL     1      71.738  89.606  26.224  0.00  0.00    -0.302 NA
ATOM     21  C   UNL     1      72.404  89.488  24.850  0.00  0.00    +0.066 C 
ATOM     22  C   UNL     1      72.064  88.122  24.169  0.00  0.00    -0.064 C 
ATOM     23  N   UNL     1      70.546  87.978  24.049  0.00  0.00    +0.379 N 
ATOM     24  C   UNL     1      70.225  86.722  23.357  0.00  0.00    -0.096 C 
ATOM     25  H   UNL     1      70.176  88.818  23.416  0.00  0.00    -0.082 HD
ATOM     26  C   UNL     1      69.876  88.097  25.410  0.00  0.00    -0.064 C 
ATOM     27  C   UNL     1      70.243  89.445  26.092  0.00  0.00    +0.066 C 
ENDBRANCH  19  20
ENDBRANCH  18  19
ENDBRANCH  14  15
ENDBRANCH  12  13
TORSDOF 6
ENDMDL
MODEL 5
REMARK VINA RESULT:      -8.3     10.818     16.601
REMARK  Name = C:\Users\Docking\Desktop\test protocol\1iep_ligandH.pdb
REMARK  8 active torsions:
REMARK  status: ('A' for Active; 'I' for Inactive)
REMARK    1  A    between atoms: _5  and  _11
REMARK    2  A    between atoms: _19  and  _21
REMARK    3  A    between atoms: _22  and  _66
REMARK    4  A    between atoms: _27  and  _30
REMARK    5  A    between atoms: _32  and  _33
REMARK    6  A    between atoms: _38  and  _43
REMARK    7  A    between atoms: _43  and  _46
REMARK    8  A    between atoms: _53  and  _55
REMARK                            x       y       z     vdW  Elec       q    Type
REMARK                         _______ _______ _______ _____ _____    ______ ____
ROOT
ATOM     10  C   UNL     1      78.880  99.711  44.498  0.00  0.00    +0.038 A 
ATOM     11  C   UNL     1      78.267 100.446  45.545  0.00  0.00    +0.047 A 
ATOM     12  C   UNL     1      78.636 100.226  46.935  0.00  0.00    +0.035 A 
ATOM     32  C   UNL     1      79.635  99.251  47.222  0.00  0.00    +0.024 A 
ATOM     33  C   UNL     1      80.267  98.495  46.171  0.00  0.00    +0.007 A 
ATOM     34  C   UNL     1      79.906  98.705  44.798  0.00  0.00    -0.029 A 
ATOM     35  C   UNL     1      80.613  97.861  43.713  0.00  0.00    +0.045 C 
ENDROOT
BRANCH  10   9
ATOM      4  C   UNL     1      75.845  99.203  40.814  0.00  0.00    +0.077 A 
ATOM      5  C   UNL     1      74.982  98.340  41.568  0.00  0.00    +0.048 A 
ATOM      6  C   UNL     1      75.358  98.046  42.898  0.00  0.00    +0.116 A 
ATOM      7  N   UNL     1      76.514  98.581  43.425  0.00  0.00    -0.223 NA
ATOM      8  C   UNL     1      77.325  99.408  42.670  0.00  0.00    +0.220 A 
ATOM      9  N   UNL     1      78.488  99.963  43.181  0.00  0.00    -0.283 N 
ATOM     36  H   UNL     1      79.063 100.562  42.590  0.00  0.00    +0.155 HD
ATOM     37  N   UNL     1      76.989  99.703  41.397  0.00  0.00    -0.214 NA
BRANCH   4   3
ATOM      1  C   UNL     1      75.599 101.283  37.511  0.00  0.00    +0.020 A 
ATOM      2  C   UNL     1      75.873 100.943  38.888  0.00  0.00    +0.013 A 
ATOM      3  C   UNL     1      75.582  99.608  39.398  0.00  0.00    +0.019 A 
ATOM     38  C   UNL     1      75.011  98.634  38.480  0.00  0.00    +0.120 A 
ATOM     39  N   UNL     1      74.757  98.991  37.159  0.00  0.00    -0.263 NA
ATOM     40  C   UNL     1      75.031 100.272  36.658  0.00  0.00    +0.111 A 
ENDBRANCH   4   3
ENDBRANCH  10   9
BRANCH  12  13
ATOM     13  N   UNL     1      78.042 100.936  48.040  0.00  0.00    -0.281 N 
ATOM     14  C   UNL     1      76.716 100.930  48.443  0.00  0.00    +0.248 C 
ATOM     30  O   UNL     1      75.795 100.477  47.781  0.00  0.00    -0.270 OA
ATOM     31  H   UNL     1      78.676 101.514  48.593  0.00  0.00    +0.155 HD
BRANCH  14  15
ATOM     15  C   UNL     1      76.361 101.526  49.767  0.00  0.00    +0.037 A 
ATOM     16  C   UNL     1      76.993 102.761  50.239  0.00  0.00    +0.013 A 
ATOM     17  C   UNL     1      76.645 103.305  51.527  0.00  0.00    +0.005 A 
ATOM     18  C   UNL     1      75.658 102.613  52.354  0.00  0.00    -0.033 A 
ATOM     28  C   UNL     1      75.043 101.392  51.859  0.00  0.00    +0.005 A 
ATOM     29  C   UNL     1      75.383 100.856  50.597  0.00  0.00    +0.013 A 
BRANCH  18  19
ATOM     19  C   UNL     1      75.242 103.110  53.751  0.00  0.00    +0.119 C 
BRANCH  19  20
ATOM     20  N   UNL     1      73.784 103.094  54.076  0.00  0.00    -0.302 NA
ATOM     21  C   UNL     1      73.270 104.478  54.480  0.00  0.00    +0.066 C 
ATOM     22  C   UNL     1      71.739 104.447  54.796  0.00  0.00    -0.064 C 
ATOM     23  N   UNL     1      71.469 103.425  55.901  0.00  0.00    +0.379 N 
ATOM     24  C   UNL     1      70.039 103.435  56.240  0.00  0.00    -0.096 C 
ATOM     25  H   UNL     1      72.034 103.750  56.806  0.00  0.00    -0.082 HD
ATOM     26  C   UNL     1      71.980 102.046  55.509  0.00  0.00    -0.064 C 
ATOM     27  C   UNL     1      73.496 102.094  55.169  0.00  0.00    +0.066 C 
ENDBRANCH  19  20
ENDBRANCH  18  19
ENDBRANCH  14  15
ENDBRANCH  12  13
TORSDOF 6
ENDMDL
