MODEL 1
REMARK VINA RESULT:      -8.3      0.000      0.000
REMARK  Name = C:\Users\Docking\Desktop\test protocol\1iep_ligandH.pdb
REMARK  8 active torsions:
REMARK  status: ('A' for Active; 'I' for Inactive)
REMARK    1  A    between atoms: _5  and  _11
REMARK    2  A    between atoms: _19  and  _21
REMARK    3  A    between atoms: _22  and  _66
REMARK    4  A    between atoms: _27  and  _30
REMARK    5  A    between atoms: _32  and  _33
REMARK    6  A    between atoms: _38  and  _43
REMARK    7  A    between atoms: _43  and  _46
REMARK    8  A    between atoms: _53  and  _55
REMARK                            x       y       z     vdW  Elec       q    Type
REMARK                         _______ _______ _______ _____ _____    ______ ____
ROOT
ATOM     10  C   UNL     1      26.016  27.577  -0.282  0.00  0.00    +0.038 A 
ATOM     11  C   UNL     1      24.957  27.865   0.616  0.00  0.00    +0.047 A 
ATOM     12  C   UNL     1      23.686  27.164   0.531  0.00  0.00    +0.035 A 
ATOM     32  C   UNL     1      23.529  26.172  -0.480  0.00  0.00    +0.024 A 
ATOM     33  C   UNL     1      24.594  25.866  -1.402  0.00  0.00    +0.007 A 
ATOM     34  C   UNL     1      25.850  26.557  -1.325  0.00  0.00    -0.029 A 
ATOM     35  C   UNL     1      26.955  26.193  -2.343  0.00  0.00    +0.045 C 
ENDROOT
BRANCH  10   9
ATOM      4  C   UNL     1      29.003  31.114  -1.550  0.00  0.00    +0.077 A 
ATOM      5  C   UNL     1      28.110  31.582  -2.570  0.00  0.00    +0.048 A 
ATOM      6  C   UNL     1      26.896  30.880  -2.742  0.00  0.00    +0.116 A 
ATOM      7  N   UNL     1      26.606  29.793  -1.946  0.00  0.00    -0.223 NA
ATOM      8  C   UNL     1      27.490  29.367  -0.972  0.00  0.00    +0.220 A 
ATOM      9  N   UNL     1      27.216  28.281  -0.155  0.00  0.00    -0.283 N 
ATOM     36  H   UNL     1      27.897  27.993   0.547  0.00  0.00    +0.155 HD
ATOM     37  N   UNL     1      28.657  30.019  -0.789  0.00  0.00    -0.214 NA
BRANCH   4   3
ATOM      1  C   UNL     1      32.128  33.463  -1.663  0.00  0.00    +0.020 A 
ATOM      2  C   UNL     1      30.848  32.884  -1.998  0.00  0.00    +0.013 A 
ATOM      3  C   UNL     1      30.323  31.752  -1.245  0.00  0.00    +0.019 A 
ATOM     38  C   UNL     1      31.124  31.226  -0.150  0.00  0.00    +0.120 A 
ATOM     39  N   UNL     1      32.354  31.804   0.149  0.00  0.00    -0.263 NA
ATOM     40  C   UNL     1      32.870  32.893  -0.570  0.00  0.00    +0.111 A 
ENDBRANCH   4   3
ENDBRANCH  10   9
BRANCH  12  13
ATOM     13  N   UNL     1      22.572  27.420   1.410  0.00  0.00    -0.281 N 
ATOM     14  C   UNL     1      21.338  27.959   1.086  0.00  0.00    +0.248 C 
ATOM     30  O   UNL     1      21.079  28.504   0.023  0.00  0.00    -0.270 OA
ATOM     31  H   UNL     1      22.710  27.174   2.390  0.00  0.00    +0.155 HD
BRANCH  14  15
ATOM     15  C   UNL     1      20.236  27.897   2.093  0.00  0.00    +0.037 A 
ATOM     16  C   UNL     1      20.291  28.681   3.329  0.00  0.00    +0.013 A 
ATOM     17  C   UNL     1      19.222  28.589   4.292  0.00  0.00    +0.005 A 
ATOM     18  C   UNL     1      18.087  27.710   4.021  0.00  0.00    -0.033 A 
ATOM     28  C   UNL     1      18.055  26.947   2.784  0.00  0.00    +0.005 A 
ATOM     29  C   UNL     1      19.102  27.034   1.839  0.00  0.00    +0.013 A 
BRANCH  18  19
ATOM     19  C   UNL     1      16.913  27.534   5.002  0.00  0.00    +0.119 C 
BRANCH  19  20
ATOM     20  N   UNL     1      17.238  27.493   6.459  0.00  0.00    -0.302 NA
ATOM     21  C   UNL     1      17.404  26.060   6.970  0.00  0.00    +0.066 C 
ATOM     22  C   UNL     1      17.767  26.036   8.491  0.00  0.00    -0.064 C 
ATOM     23  N   UNL     1      16.684  26.772   9.282  0.00  0.00    +0.379 N 
ATOM     24  C   UNL     1      16.992  26.701  10.718  0.00  0.00    -0.096 C 
ATOM     25  H   UNL     1      15.721  26.235   9.116  0.00  0.00    -0.082 HD
ATOM     26  C   UNL     1      16.511  28.198   8.778  0.00  0.00    -0.064 C 
ATOM     27  C   UNL     1      16.180  28.211   7.259  0.00  0.00    +0.066 C 
ENDBRANCH  19  20
ENDBRANCH  18  19
ENDBRANCH  14  15
ENDBRANCH  12  13
TORSDOF 6
ENDMDL
MODEL 2
REMARK VINA RESULT:      -8.1      1.876     13.102
REMARK  Name = C:\Users\Docking\Desktop\test protocol\1iep_ligandH.pdb
REMARK  8 active torsions:
REMARK  status: ('A' for Active; 'I' for Inactive)
REMARK    1  A    between atoms: _5  and  _11
REMARK    2  A    between atoms: _19  and  _21
REMARK    3  A    between atoms: _22  and  _66
REMARK    4  A    between atoms: _27  and  _30
REMARK    5  A    between atoms: _32  and  _33
REMARK    6  A    between atoms: _38  and  _43
REMARK    7  A    between atoms: _43  and  _46
REMARK    8  A    between atoms: _53  and  _55
REMARK                            x       y       z     vdW  Elec       q    Type
REMARK                         _______ _______ _______ _____ _____    ______ ____
ROOT
ATOM     10  C   UNL     1      18.478  28.797   5.208  0.00  0.00    +0.038 A 
ATOM     11  C   UNL     1      19.635  28.513   4.439  0.00  0.00    +0.047 A 
ATOM     12  C   UNL     1      19.749  28.956   3.058  0.00  0.00    +0.035 A 
ATOM     32  C   UNL     1      18.666  29.691   2.493  0.00  0.00    +0.024 A 
ATOM     33  C   UNL     1      17.482  29.988   3.260  0.00  0.00    +0.007 A 
ATOM     34  C   UNL     1      17.363  29.550   4.621  0.00  0.00    -0.029 A 
ATOM     35  C   UNL     1      16.067  29.892   5.394  0.00  0.00    +0.045 C 
ENDROOT
BRANCH  10   9
ATOM      4  C   UNL     1      17.534  25.429   8.495  0.00  0.00    +0.077 A 
ATOM      5  C   UNL     1      17.090  24.497   7.499  0.00  0.00    +0.048 A 
ATOM      6  C   UNL     1      17.114  24.926   6.153  0.00  0.00    +0.116 A 
ATOM      7  N   UNL     1      17.551  26.195   5.838  0.00  0.00    -0.223 NA
ATOM      8  C   UNL     1      17.971  27.069   6.823  0.00  0.00    +0.220 A 
ATOM      9  N   UNL     1      18.422  28.347   6.529  0.00  0.00    -0.283 N 
ATOM     36  H   UNL     1      18.716  28.964   7.285  0.00  0.00    +0.155 HD
ATOM     37  N   UNL     1      17.956  26.684   8.116  0.00  0.00    -0.214 NA
BRANCH   4   3
ATOM      1  C   UNL     1      17.814  23.537  11.907  0.00  0.00    +0.020 A 
ATOM      2  C   UNL     1      17.786  23.780  10.483  0.00  0.00    +0.013 A 
ATOM      3  C   UNL     1      17.571  25.123   9.960  0.00  0.00    +0.019 A 
ATOM     38  C   UNL     1      17.386  26.208  10.912  0.00  0.00    +0.120 A 
ATOM     39  N   UNL     1      17.416  25.944  12.278  0.00  0.00    -0.263 NA
ATOM     40  C   UNL     1      17.621  24.655  12.793  0.00  0.00    +0.111 A 
ENDBRANCH   4   3
ENDBRANCH  10   9
BRANCH  12  13
ATOM     13  N   UNL     1      20.897  28.690   2.226  0.00  0.00    -0.281 N 
ATOM     14  C   UNL     1      20.997  27.792   1.177  0.00  0.00    +0.248 C 
ATOM     30  O   UNL     1      20.174  26.923   0.930  0.00  0.00    -0.270 OA
ATOM     31  H   UNL     1      21.736  29.229   2.437  0.00  0.00    +0.155 HD
BRANCH  14  15
ATOM     15  C   UNL     1      22.191  27.860   0.280  0.00  0.00    +0.037 A 
ATOM     16  C   UNL     1      22.303  28.886  -0.759  0.00  0.00    +0.013 A 
ATOM     17  C   UNL     1      23.458  28.918  -1.622  0.00  0.00    +0.005 A 
ATOM     18  C   UNL     1      24.511  27.921  -1.447  0.00  0.00    -0.033 A 
ATOM     28  C   UNL     1      24.376  26.917  -0.404  0.00  0.00    +0.005 A 
ATOM     29  C   UNL     1      23.246  26.882   0.442  0.00  0.00    +0.013 A 
BRANCH  18  19
ATOM     19  C   UNL     1      25.768  27.867  -2.335  0.00  0.00    +0.119 C 
BRANCH  19  20
ATOM     20  N   UNL     1      26.936  28.700  -1.919  0.00  0.00    -0.302 NA
ATOM     21  C   UNL     1      26.936  28.977  -0.413  0.00  0.00    +0.066 C 
ATOM     22  C   UNL     1      28.176  29.831   0.008  0.00  0.00    -0.064 C 
ATOM     23  N   UNL     1      28.184  31.139  -0.783  0.00  0.00    +0.379 N 
ATOM     24  C   UNL     1      29.317  31.969  -0.348  0.00  0.00    -0.096 C 
ATOM     25  H   UNL     1      27.246  31.690  -0.536  0.00  0.00    -0.082 HD
ATOM     26  C   UNL     1      28.181  30.873  -2.282  0.00  0.00    -0.064 C 
ATOM     27  C   UNL     1      26.961  29.999  -2.686  0.00  0.00    +0.066 C 
ENDBRANCH  19  20
ENDBRANCH  18  19
ENDBRANCH  14  15
ENDBRANCH  12  13
TORSDOF 6
ENDMDL
MODEL 3
REMARK VINA RESULT:      -8.0     21.414     23.774
REMARK  Name = C:\Users\Docking\Desktop\test protocol\1iep_ligandH.pdb
REMARK  8 active torsions:
REMARK  status: ('A' for Active; 'I' for Inactive)
REMARK    1  A    between atoms: _5  and  _11
REMARK    2  A    between atoms: _19  and  _21
REMARK    3  A    between atoms: _22  and  _66
REMARK    4  A    between atoms: _27  and  _30
REMARK    5  A    between atoms: _32  and  _33
REMARK    6  A    between atoms: _38  and  _43
REMARK    7  A    between atoms: _43  and  _46
REMARK    8  A    between atoms: _53  and  _55
REMARK                            x       y       z     vdW  Elec       q    Type
REMARK                         _______ _______ _______ _____ _____    ______ ____
ROOT
ATOM     10  C   UNL     1      37.770  44.360  11.835  0.00  0.00    +0.038 A 
ATOM     11  C   UNL     1      37.046  43.942  12.980  0.00  0.00    +0.047 A 
ATOM     12  C   UNL     1      37.651  43.072  13.977  0.00  0.00    +0.035 A 
ATOM     32  C   UNL     1      38.997  42.650  13.777  0.00  0.00    +0.024 A 
ATOM     33  C   UNL     1      39.748  43.064  12.618  0.00  0.00    +0.007 A 
ATOM     34  C   UNL     1      39.155  43.920  11.630  0.00  0.00    -0.029 A 
ATOM     35  C   UNL     1      40.004  44.328  10.403  0.00  0.00    +0.045 C 
ENDROOT
BRANCH  10   9
ATOM      4  C   UNL     1      36.214  48.665  10.390  0.00  0.00    +0.077 A 
ATOM      5  C   UNL     1      36.673  49.300  11.593  0.00  0.00    +0.048 A 
ATOM      6  C   UNL     1      37.297  48.481  12.561  0.00  0.00    +0.116 A 
ATOM      7  N   UNL     1      37.447  47.131  12.333  0.00  0.00    -0.223 NA
ATOM      8  C   UNL     1      36.992  46.550  11.163  0.00  0.00    +0.220 A 
ATOM      9  N   UNL     1      37.139  45.195  10.910  0.00  0.00    -0.283 N 
ATOM     36  H   UNL     1      36.784  44.804  10.038  0.00  0.00    +0.155 HD
ATOM     37  N   UNL     1      36.391  47.310  10.224  0.00  0.00    -0.214 NA
BRANCH   4   3
ATOM      1  C   UNL     1      35.303  51.356   7.702  0.00  0.00    +0.020 A 
ATOM      2  C   UNL     1      35.992  50.692   8.785  0.00  0.00    +0.013 A 
ATOM      3  C   UNL     1      35.538  49.396   9.272  0.00  0.00    +0.019 A 
ATOM     38  C   UNL     1      34.377  48.793   8.637  0.00  0.00    +0.120 A 
ATOM     39  N   UNL     1      33.733  49.456   7.596  0.00  0.00    -0.263 NA
ATOM     40  C   UNL     1      34.159  50.705   7.120  0.00  0.00    +0.111 A 
ENDBRANCH   4   3
ENDBRANCH  10   9
BRANCH  12  13
ATOM     13  N   UNL     1      36.962  42.609  15.156  0.00  0.00    -0.281 N 
ATOM     14  C   UNL     1      36.515  43.359  16.231  0.00  0.00    +0.248 C 
ATOM     30  O   UNL     1      36.830  44.521  16.443  0.00  0.00    -0.270 OA
ATOM     31  H   UNL     1      36.783  41.606  15.204  0.00  0.00    +0.155 HD
BRANCH  14  15
ATOM     15  C   UNL     1      35.596  42.722  17.223  0.00  0.00    +0.037 A 
ATOM     16  C   UNL     1      35.814  42.869  18.665  0.00  0.00    +0.013 A 
ATOM     17  C   UNL     1      34.922  42.231  19.600  0.00  0.00    +0.005 A 
ATOM     18  C   UNL     1      33.802  41.440  19.096  0.00  0.00    -0.033 A 
ATOM     28  C   UNL     1      33.606  41.315  17.661  0.00  0.00    +0.005 A 
ATOM     29  C   UNL     1      34.479  41.939  16.741  0.00  0.00    +0.013 A 
BRANCH  18  19
ATOM     19  C   UNL     1      32.813  40.706  20.020  0.00  0.00    +0.119 C 
BRANCH  19  20
ATOM     20  N   UNL     1      32.555  39.262  19.738  0.00  0.00    -0.302 NA
ATOM     21  C   UNL     1      31.199  39.042  19.063  0.00  0.00    +0.066 C 
ATOM     22  C   UNL     1      30.955  37.529  18.755  0.00  0.00    -0.064 C 
ATOM     23  N   UNL     1      31.051  36.725  20.053  0.00  0.00    +0.379 N 
ATOM     24  C   UNL     1      30.765  35.310  19.775  0.00  0.00    -0.096 C 
ATOM     25  H   UNL     1      30.260  37.101  20.742  0.00  0.00    -0.082 HD
ATOM     26  C   UNL     1      32.396  36.940  20.732  0.00  0.00    -0.064 C 
ATOM     27  C   UNL     1      32.641  38.450  21.007  0.00  0.00    +0.066 C 
ENDBRANCH  19  20
ENDBRANCH  18  19
ENDBRANCH  14  15
ENDBRANCH  12  13
TORSDOF 6
ENDMDL
MODEL 4
REMARK VINA RESULT:      -7.9     45.649     48.327
REMARK  Name = C:\Users\Docking\Desktop\test protocol\1iep_ligandH.pdb
REMARK  8 active torsions:
REMARK  status: ('A' for Active; 'I' for Inactive)
REMARK    1  A    between atoms: _5  and  _11
REMARK    2  A    between atoms: _19  and  _21
REMARK    3  A    between atoms: _22  and  _66
REMARK    4  A    between atoms: _27  and  _30
REMARK    5  A    between atoms: _32  and  _33
REMARK    6  A    between atoms: _38  and  _43
REMARK    7  A    between atoms: _43  and  _46
REMARK    8  A    between atoms: _53  and  _55
REMARK                            x       y       z     vdW  Elec       q    Type
REMARK                         _______ _______ _______ _____ _____    ______ ____
ROOT
ATOM     10  C   UNL     1      72.380  33.750   7.380  0.00  0.00    +0.038 A 
ATOM     11  C   UNL     1      71.892  33.227   8.604  0.00  0.00    +0.047 A 
ATOM     12  C   UNL     1      72.729  32.396   9.455  0.00  0.00    +0.035 A 
ATOM     32  C   UNL     1      74.061  32.119   9.028  0.00  0.00    +0.024 A 
ATOM     33  C   UNL     1      74.573  32.641   7.786  0.00  0.00    +0.007 A 
ATOM     34  C   UNL     1      73.750  33.459   6.941  0.00  0.00    -0.029 A 
ATOM     35  C   UNL     1      74.350  33.987   5.617  0.00  0.00    +0.045 C 
ENDROOT
BRANCH  10   9
ATOM      4  C   UNL     1      70.395  37.969   6.241  0.00  0.00    +0.077 A 
ATOM      5  C   UNL     1      71.084  38.646   7.301  0.00  0.00    +0.048 A 
ATOM      6  C   UNL     1      71.934  37.871   8.122  0.00  0.00    +0.116 A 
ATOM      7  N   UNL     1      72.078  36.521   7.889  0.00  0.00    -0.223 NA
ATOM      8  C   UNL     1      71.397  35.898   6.859  0.00  0.00    +0.220 A 
ATOM      9  N   UNL     1      71.532  34.543   6.602  0.00  0.00    -0.283 N 
ATOM     36  H   UNL     1      71.007  34.119   5.837  0.00  0.00    +0.155 HD
ATOM     37  N   UNL     1      70.578  36.616   6.063  0.00  0.00    -0.214 NA
BRANCH   4   3
ATOM      1  C   UNL     1      67.233  38.907   4.138  0.00  0.00    +0.020 A 
ATOM      2  C   UNL     1      68.091  38.213   5.070  0.00  0.00    +0.013 A 
ATOM      3  C   UNL     1      69.464  38.652   5.288  0.00  0.00    +0.019 A 
ATOM     38  C   UNL     1      69.941  39.806   4.541  0.00  0.00    +0.120 A 
ATOM     39  N   UNL     1      69.092  40.454   3.649  0.00  0.00    -0.263 NA
ATOM     40  C   UNL     1      67.770  40.040   3.430  0.00  0.00    +0.111 A 
ENDBRANCH   4   3
ENDBRANCH  10   9
BRANCH  12  13
ATOM     13  N   UNL     1      72.286  31.831  10.705  0.00  0.00    -0.281 N 
ATOM     14  C   UNL     1      71.175  32.185  11.453  0.00  0.00    +0.248 C 
ATOM     30  O   UNL     1      70.509  33.192  11.267  0.00  0.00    -0.270 OA
ATOM     31  H   UNL     1      72.860  31.078  11.084  0.00  0.00    +0.155 HD
BRANCH  14  15
ATOM     15  C   UNL     1      70.752  31.300  12.581  0.00  0.00    +0.037 A 
ATOM     16  C   UNL     1      69.889  31.798  13.655  0.00  0.00    +0.013 A 
ATOM     17  C   UNL     1      69.509  30.927  14.740  0.00  0.00    +0.005 A 
ATOM     18  C   UNL     1      69.992  29.549  14.754  0.00  0.00    -0.033 A 
ATOM     28  C   UNL     1      70.842  29.079  13.673  0.00  0.00    +0.005 A 
ATOM     29  C   UNL     1      71.217  29.929  12.609  0.00  0.00    +0.013 A 
BRANCH  18  19
ATOM     19  C   UNL     1      69.654  28.556  15.883  0.00  0.00    +0.119 C 
BRANCH  19  20
ATOM     20  N   UNL     1      69.233  27.181  15.480  0.00  0.00    -0.302 NA
ATOM     21  C   UNL     1      67.944  26.746  16.183  0.00  0.00    +0.066 C 
ATOM     22  C   UNL     1      67.506  25.314  15.733  0.00  0.00    -0.064 C 
ATOM     23  N   UNL     1      68.637  24.325  16.018  0.00  0.00    +0.379 N 
ATOM     24  C   UNL     1      68.207  22.968  15.650  0.00  0.00    -0.096 C 
ATOM     25  H   UNL     1      68.826  24.334  17.117  0.00  0.00    -0.082 HD
ATOM     26  C   UNL     1      69.924  24.751  15.326  0.00  0.00    -0.064 C 
ATOM     27  C   UNL     1      70.335  26.187  15.757  0.00  0.00    +0.066 C 
ENDBRANCH  19  20
ENDBRANCH  18  19
ENDBRANCH  14  15
ENDBRANCH  12  13
TORSDOF 6
ENDMDL
MODEL 5
REMARK VINA RESULT:      -7.8     21.633     24.641
REMARK  Name = C:\Users\Docking\Desktop\test protocol\1iep_ligandH.pdb
REMARK  8 active torsions:
REMARK  status: ('A' for Active; 'I' for Inactive)
REMARK    1  A    between atoms: _5  and  _11
REMARK    2  A    between atoms: _19  and  _21
REMARK    3  A    between atoms: _22  and  _66
REMARK    4  A    between atoms: _27  and  _30
REMARK    5  A    between atoms: _32  and  _33
REMARK    6  A    between atoms: _38  and  _43
REMARK    7  A    between atoms: _43  and  _46
REMARK    8  A    between atoms: _53  and  _55
REMARK                            x       y       z     vdW  Elec       q    Type
REMARK                         _______ _______ _______ _____ _____    ______ ____
ROOT
ATOM     10  C   UNL     1      36.724  46.592  11.999  0.00  0.00    +0.038 A 
ATOM     11  C   UNL     1      36.102  47.291  10.934  0.00  0.00    +0.047 A 
ATOM     12  C   UNL     1      35.242  48.437  11.186  0.00  0.00    +0.035 A 
ATOM     32  C   UNL     1      35.038  48.845  12.536  0.00  0.00    +0.024 A 
ATOM     33  C   UNL     1      35.662  48.145  13.632  0.00  0.00    +0.007 A 
ATOM     34  C   UNL     1      36.509  47.012  13.389  0.00  0.00    -0.029 A 
ATOM     35  C   UNL     1      37.146  46.296  14.603  0.00  0.00    +0.045 C 
ENDROOT
BRANCH  10   9
ATOM      4  C   UNL     1      37.411  41.900  11.256  0.00  0.00    +0.077 A 
ATOM      5  C   UNL     1      36.032  41.597  11.513  0.00  0.00    +0.048 A 
ATOM      6  C   UNL     1      35.181  42.676  11.840  0.00  0.00    +0.116 A 
ATOM      7  N   UNL     1      35.681  43.959  11.902  0.00  0.00    -0.223 NA
ATOM      8  C   UNL     1      37.017  44.216  11.651  0.00  0.00    +0.220 A 
ATOM      9  N   UNL     1      37.540  45.499  11.700  0.00  0.00    -0.283 N 
ATOM     36  H   UNL     1      38.532  45.646  11.515  0.00  0.00    +0.155 HD
ATOM     37  N   UNL     1      37.850  43.203  11.338  0.00  0.00    -0.214 NA
BRANCH   4   3
ATOM      1  C   UNL     1      40.536  40.120   9.720  0.00  0.00    +0.020 A 
ATOM      2  C   UNL     1      39.577  41.152  10.037  0.00  0.00    +0.013 A 
ATOM      3  C   UNL     1      38.434  40.868  10.895  0.00  0.00    +0.019 A 
ATOM     38  C   UNL     1      38.289  39.519  11.421  0.00  0.00    +0.120 A 
ATOM     39  N   UNL     1      39.228  38.544  11.096  0.00  0.00    -0.263 NA
ATOM     40  C   UNL     1      40.332  38.806  10.270  0.00  0.00    +0.111 A 
ENDBRANCH   4   3
ENDBRANCH  10   9
BRANCH  12  13
ATOM     13  N   UNL     1      34.577  49.181  10.145  0.00  0.00    -0.281 N 
ATOM     14  C   UNL     1      35.133  49.724   8.998  0.00  0.00    +0.248 C 
ATOM     30  O   UNL     1      36.334  49.835   8.798  0.00  0.00    -0.270 OA
ATOM     31  H   UNL     1      33.575  49.325  10.268  0.00  0.00    +0.155 HD
BRANCH  14  15
ATOM     15  C   UNL     1      34.225  50.228   7.924  0.00  0.00    +0.037 A 
ATOM     16  C   UNL     1      32.947  49.571   7.638  0.00  0.00    +0.013 A 
ATOM     17  C   UNL     1      32.098  50.068   6.585  0.00  0.00    +0.005 A 
ATOM     18  C   UNL     1      32.523  51.231   5.811  0.00  0.00    -0.033 A 
ATOM     28  C   UNL     1      33.793  51.867   6.119  0.00  0.00    +0.005 A 
ATOM     29  C   UNL     1      34.629  51.382   7.149  0.00  0.00    +0.013 A 
BRANCH  18  19
ATOM     19  C   UNL     1      31.690  51.817   4.655  0.00  0.00    +0.119 C 
BRANCH  19  20
ATOM     20  N   UNL     1      30.245  51.446   4.597  0.00  0.00    -0.302 NA
ATOM     21  C   UNL     1      29.696  51.493   3.169  0.00  0.00    +0.066 C 
ATOM     22  C   UNL     1      28.189  51.081   3.124  0.00  0.00    -0.064 C 
ATOM     23  N   UNL     1      27.384  51.999   4.045  0.00  0.00    +0.379 N 
ATOM     24  C   UNL     1      25.958  51.651   3.960  0.00  0.00    -0.096 C 
ATOM     25  H   UNL     1      27.500  53.042   3.667  0.00  0.00    -0.082 HD
ATOM     26  C   UNL     1      27.924  51.960   5.467  0.00  0.00    -0.064 C 
ATOM     27  C   UNL     1      29.430  52.343   5.496  0.00  0.00    +0.066 C 
ENDBRANCH  19  20
ENDBRANCH  18  19
ENDBRANCH  14  15
ENDBRANCH  12  13
TORSDOF 6
ENDMDL
