MODEL 1
REMARK VINA RESULT:      -8.5      0.000      0.000
REMARK  Name = C:\Users\Docking\Desktop\test protocol\1iep_ligandH.pdb
REMARK  8 active torsions:
REMARK  status: ('A' for Active; 'I' for Inactive)
REMARK    1  A    between atoms: _5  and  _11
REMARK    2  A    between atoms: _19  and  _21
REMARK    3  A    between atoms: _22  and  _66
REMARK    4  A    between atoms: _27  and  _30
REMARK    5  A    between atoms: _32  and  _33
REMARK    6  A    between atoms: _38  and  _43
REMARK    7  A    between atoms: _43  and  _46
REMARK    8  A    between atoms: _53  and  _55
REMARK                            x       y       z     vdW  Elec       q    Type
REMARK                         _______ _______ _______ _____ _____    ______ ____
ROOT
ATOM     10  C   UNL     1     -19.471  17.422 -18.951  0.00  0.00    +0.038 A 
ATOM     11  C   UNL     1     -18.181  17.615 -18.394  0.00  0.00    +0.047 A 
ATOM     12  C   UNL     1     -17.608  18.945 -18.265  0.00  0.00    +0.035 A 
ATOM     32  C   UNL     1     -18.377  20.059 -18.712  0.00  0.00    +0.024 A 
ATOM     33  C   UNL     1     -19.690  19.881 -19.282  0.00  0.00    +0.007 A 
ATOM     34  C   UNL     1     -20.260  18.571 -19.413  0.00  0.00    -0.029 A 
ATOM     35  C   UNL     1     -21.669  18.440 -20.038  0.00  0.00    +0.045 C 
ENDROOT
BRANCH  10   9
ATOM      4  C   UNL     1     -20.319  13.389 -21.411  0.00  0.00    +0.077 A 
ATOM      5  C   UNL     1     -19.737  13.926 -22.607  0.00  0.00    +0.048 A 
ATOM      6  C   UNL     1     -19.237  15.247 -22.549  0.00  0.00    +0.116 A 
ATOM      7  N   UNL     1     -19.319  15.967 -21.377  0.00  0.00    -0.223 NA
ATOM      8  C   UNL     1     -19.888  15.420 -20.242  0.00  0.00    +0.220 A 
ATOM      9  N   UNL     1     -19.973  16.123 -19.050  0.00  0.00    -0.283 N 
ATOM     36  H   UNL     1     -20.407  15.687 -18.237  0.00  0.00    +0.155 HD
ATOM     37  N   UNL     1     -20.374  14.161 -20.272  0.00  0.00    -0.214 NA
BRANCH   4   3
ATOM      1  C   UNL     1     -22.275  10.093 -22.192  0.00  0.00    +0.020 A 
ATOM      2  C   UNL     1     -21.753  11.433 -22.335  0.00  0.00    +0.013 A 
ATOM      3  C   UNL     1     -20.888  12.008 -21.313  0.00  0.00    +0.019 A 
ATOM     38  C   UNL     1     -20.567  11.194 -20.149  0.00  0.00    +0.120 A 
ATOM     39  N   UNL     1     -21.086   9.908 -20.038  0.00  0.00    -0.263 NA
ATOM     40  C   UNL     1     -21.921   9.345 -21.015  0.00  0.00    +0.111 A 
ENDBRANCH   4   3
ENDBRANCH  10   9
BRANCH  12  13
ATOM     13  N   UNL     1     -16.299  19.201 -17.715  0.00  0.00    -0.281 N 
ATOM     14  C   UNL     1     -15.984  19.865 -16.541  0.00  0.00    +0.248 C 
ATOM     30  O   UNL     1     -16.776  20.530 -15.890  0.00  0.00    -0.270 OA
ATOM     31  H   UNL     1     -15.510  18.850 -18.257  0.00  0.00    +0.155 HD
BRANCH  14  15
ATOM     15  C   UNL     1     -14.584  19.792 -16.024  0.00  0.00    +0.037 A 
ATOM     16  C   UNL     1     -14.294  19.932 -14.595  0.00  0.00    +0.013 A 
ATOM     17  C   UNL     1     -12.933  19.874 -14.124  0.00  0.00    +0.005 A 
ATOM     18  C   UNL     1     -11.851  19.674 -15.085  0.00  0.00    -0.033 A 
ATOM     28  C   UNL     1     -12.167  19.532 -16.496  0.00  0.00    +0.005 A 
ATOM     29  C   UNL     1     -13.500  19.589 -16.961  0.00  0.00    +0.013 A 
BRANCH  18  19
ATOM     19  C   UNL     1     -10.367  19.620 -14.674  0.00  0.00    +0.119 C 
BRANCH  19  20
ATOM     20  N   UNL     1      -9.605  18.384 -15.023  0.00  0.00    -0.302 NA
ATOM     21  C   UNL     1     -10.082  17.170 -14.221  0.00  0.00    +0.066 C 
ATOM     22  C   UNL     1      -9.290  15.881 -14.615  0.00  0.00    -0.064 C 
ATOM     23  N   UNL     1      -7.794  16.119 -14.399  0.00  0.00    +0.379 N 
ATOM     24  C   UNL     1      -7.051  14.890 -14.713  0.00  0.00    -0.096 C 
ATOM     25  H   UNL     1      -7.640  16.341 -13.318  0.00  0.00    -0.082 HD
ATOM     26  C   UNL     1      -7.312  17.326 -15.191  0.00  0.00    -0.064 C 
ATOM     27  C   UNL     1      -8.126  18.596 -14.813  0.00  0.00    +0.066 C 
ENDBRANCH  19  20
ENDBRANCH  18  19
ENDBRANCH  14  15
ENDBRANCH  12  13
TORSDOF 6
ENDMDL
MODEL 2
REMARK VINA RESULT:      -8.5      4.048     12.060
REMARK  Name = C:\Users\Docking\Desktop\test protocol\1iep_ligandH.pdb
REMARK  8 active torsions:
REMARK  status: ('A' for Active; 'I' for Inactive)
REMARK    1  A    between atoms: _5  and  _11
REMARK    2  A    between atoms: _19  and  _21
REMARK    3  A    between atoms: _22  and  _66
REMARK    4  A    between atoms: _27  and  _30
REMARK    5  A    between atoms: _32  and  _33
REMARK    6  A    between atoms: _38  and  _43
REMARK    7  A    between atoms: _43  and  _46
REMARK    8  A    between atoms: _53  and  _55
REMARK                            x       y       z     vdW  Elec       q    Type
REMARK                         _______ _______ _______ _____ _____    ______ ____
ROOT
ATOM     10  C   UNL     1     -12.912  19.580 -14.163  0.00  0.00    +0.038 A 
ATOM     11  C   UNL     1     -14.070  19.351 -14.949  0.00  0.00    +0.047 A 
ATOM     12  C   UNL     1     -15.074  20.388 -15.130  0.00  0.00    +0.035 A 
ATOM     32  C   UNL     1     -14.866  21.648 -14.497  0.00  0.00    +0.024 A 
ATOM     33  C   UNL     1     -13.695  21.897 -13.693  0.00  0.00    +0.007 A 
ATOM     34  C   UNL     1     -12.702  20.877 -13.510  0.00  0.00    -0.029 A 
ATOM     35  C   UNL     1     -11.470  21.198 -12.632  0.00  0.00    +0.045 C 
ENDROOT
BRANCH  10   9
ATOM      4  C   UNL     1      -9.301  16.886 -15.817  0.00  0.00    +0.077 A 
ATOM      5  C   UNL     1      -9.287  17.573 -17.076  0.00  0.00    +0.048 A 
ATOM      6  C   UNL     1     -10.230  18.609 -17.261  0.00  0.00    +0.116 A 
ATOM      7  N   UNL     1     -11.116  18.925 -16.254  0.00  0.00    -0.223 NA
ATOM      8  C   UNL     1     -11.104  18.242 -15.052  0.00  0.00    +0.220 A 
ATOM      9  N   UNL     1     -11.981  18.548 -14.023  0.00  0.00    -0.283 N 
ATOM     36  H   UNL     1     -11.945  18.016 -13.155  0.00  0.00    +0.155 HD
ATOM     37  N   UNL     1     -10.214  17.247 -14.852  0.00  0.00    -0.214 NA
BRANCH   4   3
ATOM      1  C   UNL     1      -7.404  14.074 -13.869  0.00  0.00    +0.020 A 
ATOM      2  C   UNL     1      -8.328  15.148 -14.153  0.00  0.00    +0.013 A 
ATOM      3  C   UNL     1      -8.364  15.771 -15.470  0.00  0.00    +0.019 A 
ATOM     38  C   UNL     1      -7.446  15.279 -16.486  0.00  0.00    +0.120 A 
ATOM     39  N   UNL     1      -6.567  14.244 -16.184  0.00  0.00    -0.263 NA
ATOM     40  C   UNL     1      -6.521  13.638 -14.919  0.00  0.00    +0.111 A 
ENDBRANCH   4   3
ENDBRANCH  10   9
BRANCH  12  13
ATOM     13  N   UNL     1     -16.274  20.210 -15.910  0.00  0.00    -0.281 N 
ATOM     14  C   UNL     1     -16.376  19.895 -17.255  0.00  0.00    +0.248 C 
ATOM     30  O   UNL     1     -15.445  19.928 -18.045  0.00  0.00    -0.270 OA
ATOM     31  H   UNL     1     -17.155  20.332 -15.410  0.00  0.00    +0.155 HD
BRANCH  14  15
ATOM     15  C   UNL     1     -17.709  19.501 -17.805  0.00  0.00    +0.037 A 
ATOM     16  C   UNL     1     -17.926  18.177 -18.394  0.00  0.00    +0.013 A 
ATOM     17  C   UNL     1     -19.217  17.828 -18.932  0.00  0.00    +0.005 A 
ATOM     18  C   UNL     1     -20.302  18.806 -18.883  0.00  0.00    -0.033 A 
ATOM     28  C   UNL     1     -20.060  20.110 -18.289  0.00  0.00    +0.005 A 
ATOM     29  C   UNL     1     -18.796  20.456 -17.761  0.00  0.00    +0.013 A 
BRANCH  18  19
ATOM     19  C   UNL     1     -21.705  18.527 -19.453  0.00  0.00    +0.119 C 
BRANCH  19  20
ATOM     20  N   UNL     1     -22.208  19.449 -20.514  0.00  0.00    -0.302 NA
ATOM     21  C   UNL     1     -23.631  19.935 -20.227  0.00  0.00    +0.066 C 
ATOM     22  C   UNL     1     -24.133  20.916 -21.336  0.00  0.00    -0.064 C 
ATOM     23  N   UNL     1     -24.061  20.223 -22.697  0.00  0.00    +0.379 N 
ATOM     24  C   UNL     1     -24.586  21.123 -23.735  0.00  0.00    -0.096 C 
ATOM     25  H   UNL     1     -24.726  19.329 -22.656  0.00  0.00    -0.082 HD
ATOM     26  C   UNL     1     -22.650  19.734 -22.990  0.00  0.00    -0.064 C 
ATOM     27  C   UNL     1     -22.150  18.783 -21.867  0.00  0.00    +0.066 C 
ENDBRANCH  19  20
ENDBRANCH  18  19
ENDBRANCH  14  15
ENDBRANCH  12  13
TORSDOF 6
ENDMDL
MODEL 3
REMARK VINA RESULT:      -8.3      2.089     11.715
REMARK  Name = C:\Users\Docking\Desktop\test protocol\1iep_ligandH.pdb
REMARK  8 active torsions:
REMARK  status: ('A' for Active; 'I' for Inactive)
REMARK    1  A    between atoms: _5  and  _11
REMARK    2  A    between atoms: _19  and  _21
REMARK    3  A    between atoms: _22  and  _66
REMARK    4  A    between atoms: _27  and  _30
REMARK    5  A    between atoms: _32  and  _33
REMARK    6  A    between atoms: _38  and  _43
REMARK    7  A    between atoms: _43  and  _46
REMARK    8  A    between atoms: _53  and  _55
REMARK                            x       y       z     vdW  Elec       q    Type
REMARK                         _______ _______ _______ _____ _____    ______ ____
ROOT
ATOM     10  C   UNL     1     -11.423  18.359 -13.631  0.00  0.00    +0.038 A 
ATOM     11  C   UNL     1     -12.443  18.347 -14.616  0.00  0.00    +0.047 A 
ATOM     12  C   UNL     1     -13.466  19.381 -14.653  0.00  0.00    +0.035 A 
ATOM     32  C   UNL     1     -13.419  20.413 -13.671  0.00  0.00    +0.024 A 
ATOM     33  C   UNL     1     -12.390  20.440 -12.662  0.00  0.00    +0.007 A 
ATOM     34  C   UNL     1     -11.379  19.422 -12.619  0.00  0.00    -0.029 A 
ATOM     35  C   UNL     1     -10.304  19.497 -11.510  0.00  0.00    +0.045 C 
ENDROOT
BRANCH  10   9
ATOM      4  C   UNL     1      -7.587  16.178 -15.520  0.00  0.00    +0.077 A 
ATOM      5  C   UNL     1      -7.499  17.130 -16.590  0.00  0.00    +0.048 A 
ATOM      6  C   UNL     1      -8.465  18.162 -16.622  0.00  0.00    +0.116 A 
ATOM      7  N   UNL     1      -9.440  18.227 -15.651  0.00  0.00    -0.223 NA
ATOM      8  C   UNL     1      -9.498  17.292 -14.634  0.00  0.00    +0.220 A 
ATOM      9  N   UNL     1     -10.466  17.342 -13.643  0.00  0.00    -0.283 N 
ATOM     36  H   UNL     1     -10.479  16.629 -12.914  0.00  0.00    +0.155 HD
ATOM     37  N   UNL     1      -8.589  16.296 -14.582  0.00  0.00    -0.214 NA
BRANCH   4   3
ATOM      1  C   UNL     1      -5.821  12.966 -14.156  0.00  0.00    +0.020 A 
ATOM      2  C   UNL     1      -6.764  14.054 -14.277  0.00  0.00    +0.013 A 
ATOM      3  C   UNL     1      -6.639  15.033 -15.349  0.00  0.00    +0.019 A 
ATOM     38  C   UNL     1      -5.539  14.882 -16.290  0.00  0.00    +0.120 A 
ATOM     39  N   UNL     1      -4.645  13.825 -16.148  0.00  0.00    -0.263 NA
ATOM     40  C   UNL     1      -4.755  12.877 -15.119  0.00  0.00    +0.111 A 
ENDBRANCH   4   3
ENDBRANCH  10   9
BRANCH  12  13
ATOM     13  N   UNL     1     -14.531  19.416 -15.625  0.00  0.00    -0.281 N 
ATOM     14  C   UNL     1     -14.493  19.929 -16.911  0.00  0.00    +0.248 C 
ATOM     30  O   UNL     1     -13.593  20.631 -17.349  0.00  0.00    -0.270 OA
ATOM     31  H   UNL     1     -15.420  19.015 -15.328  0.00  0.00    +0.155 HD
BRANCH  14  15
ATOM     15  C   UNL     1     -15.624  19.630 -17.841  0.00  0.00    +0.037 A 
ATOM     16  C   UNL     1     -17.014  19.658 -17.380  0.00  0.00    +0.013 A 
ATOM     17  C   UNL     1     -18.086  19.350 -18.293  0.00  0.00    +0.005 A 
ATOM     18  C   UNL     1     -17.770  19.011 -19.679  0.00  0.00    -0.033 A 
ATOM     28  C   UNL     1     -16.382  18.996 -20.111  0.00  0.00    +0.005 A 
ATOM     29  C   UNL     1     -15.330  19.297 -19.218  0.00  0.00    +0.013 A 
BRANCH  18  19
ATOM     19  C   UNL     1     -18.848  18.647 -20.718  0.00  0.00    +0.119 C 
BRANCH  19  20
ATOM     20  N   UNL     1     -18.836  17.255 -21.256  0.00  0.00    -0.302 NA
ATOM     21  C   UNL     1     -19.997  17.003 -22.223  0.00  0.00    +0.066 C 
ATOM     22  C   UNL     1     -19.956  15.548 -22.794  0.00  0.00    -0.064 C 
ATOM     23  N   UNL     1     -19.988  14.548 -21.637  0.00  0.00    +0.379 N 
ATOM     24  C   UNL     1     -20.008  13.179 -22.173  0.00  0.00    -0.096 C 
ATOM     25  H   UNL     1     -20.939  14.707 -21.079  0.00  0.00    -0.082 HD
ATOM     26  C   UNL     1     -18.838  14.793 -20.670  0.00  0.00    -0.064 C 
ATOM     27  C   UNL     1     -18.871  16.250 -20.131  0.00  0.00    +0.066 C 
ENDBRANCH  19  20
ENDBRANCH  18  19
ENDBRANCH  14  15
ENDBRANCH  12  13
TORSDOF 6
ENDMDL
MODEL 4
REMARK VINA RESULT:      -8.2      2.317     12.072
REMARK  Name = C:\Users\Docking\Desktop\test protocol\1iep_ligandH.pdb
REMARK  8 active torsions:
REMARK  status: ('A' for Active; 'I' for Inactive)
REMARK    1  A    between atoms: _5  and  _11
REMARK    2  A    between atoms: _19  and  _21
REMARK    3  A    between atoms: _22  and  _66
REMARK    4  A    between atoms: _27  and  _30
REMARK    5  A    between atoms: _32  and  _33
REMARK    6  A    between atoms: _38  and  _43
REMARK    7  A    between atoms: _43  and  _46
REMARK    8  A    between atoms: _53  and  _55
REMARK                            x       y       z     vdW  Elec       q    Type
REMARK                         _______ _______ _______ _____ _____    ______ ____
ROOT
ATOM     10  C   UNL     1      -9.202  20.175 -14.334  0.00  0.00    +0.038 A 
ATOM     11  C   UNL     1     -10.447  20.022 -14.995  0.00  0.00    +0.047 A 
ATOM     12  C   UNL     1     -11.573  20.890 -14.687  0.00  0.00    +0.035 A 
ATOM     32  C   UNL     1     -11.395  21.905 -13.703  0.00  0.00    +0.024 A 
ATOM     33  C   UNL     1     -10.136  22.074 -13.021  0.00  0.00    +0.007 A 
ATOM     34  C   UNL     1      -9.022  21.219 -13.318  0.00  0.00    -0.029 A 
ATOM     35  C   UNL     1      -7.697  21.441 -12.552  0.00  0.00    +0.045 C 
ENDROOT
BRANCH  10   9
ATOM      4  C   UNL     1      -7.360  15.783 -14.937  0.00  0.00    +0.077 A 
ATOM      5  C   UNL     1      -8.580  15.151 -14.524  0.00  0.00    +0.048 A 
ATOM      6  C   UNL     1      -9.655  15.991 -14.158  0.00  0.00    +0.116 A 
ATOM      7  N   UNL     1      -9.510  17.361 -14.205  0.00  0.00    -0.223 NA
ATOM      8  C   UNL     1      -8.320  17.938 -14.606  0.00  0.00    +0.220 A 
ATOM      9  N   UNL     1      -8.154  19.313 -14.669  0.00  0.00    -0.283 N 
ATOM     36  H   UNL     1      -7.258  19.701 -14.963  0.00  0.00    +0.155 HD
ATOM     37  N   UNL     1      -7.277  17.157 -14.959  0.00  0.00    -0.214 NA
BRANCH   4   3
ATOM      1  C   UNL     1      -4.711  12.950 -15.446  0.00  0.00    +0.020 A 
ATOM      2  C   UNL     1      -5.911  13.631 -15.015  0.00  0.00    +0.013 A 
ATOM      3  C   UNL     1      -6.136  15.030 -15.356  0.00  0.00    +0.019 A 
ATOM     38  C   UNL     1      -5.121  15.716 -16.142  0.00  0.00    +0.120 A 
ATOM     39  N   UNL     1      -3.976  15.035 -16.541  0.00  0.00    -0.263 NA
ATOM     40  C   UNL     1      -3.747  13.690 -16.217  0.00  0.00    +0.111 A 
ENDBRANCH   4   3
ENDBRANCH  10   9
BRANCH  12  13
ATOM     13  N   UNL     1     -12.864  20.777 -15.319  0.00  0.00    -0.281 N 
ATOM     14  C   UNL     1     -13.163  20.872 -16.669  0.00  0.00    +0.248 C 
ATOM     30  O   UNL     1     -12.389  21.283 -17.521  0.00  0.00    -0.270 OA
ATOM     31  H   UNL     1     -13.654  20.607 -14.696  0.00  0.00    +0.155 HD
BRANCH  14  15
ATOM     15  C   UNL     1     -14.523  20.465 -17.138  0.00  0.00    +0.037 A 
ATOM     16  C   UNL     1     -14.766  20.098 -18.535  0.00  0.00    +0.013 A 
ATOM     17  C   UNL     1     -16.091  19.725 -18.965  0.00  0.00    +0.005 A 
ATOM     18  C   UNL     1     -17.183  19.718 -17.994  0.00  0.00    -0.033 A 
ATOM     28  C   UNL     1     -16.912  20.082 -16.613  0.00  0.00    +0.005 A 
ATOM     29  C   UNL     1     -15.615  20.449 -16.189  0.00  0.00    +0.013 A 
BRANCH  18  19
ATOM     19  C   UNL     1     -18.632  19.355 -18.369  0.00  0.00    +0.119 C 
BRANCH  19  20
ATOM     20  N   UNL     1     -18.831  18.189 -19.281  0.00  0.00    -0.302 NA
ATOM     21  C   UNL     1     -20.307  17.978 -19.630  0.00  0.00    +0.066 C 
ATOM     22  C   UNL     1     -20.494  16.768 -20.603  0.00  0.00    -0.064 C 
ATOM     23  N   UNL     1     -19.903  15.509 -19.966  0.00  0.00    +0.379 N 
ATOM     24  C   UNL     1     -20.129  14.359 -20.853  0.00  0.00    -0.096 C 
ATOM     25  H   UNL     1     -20.456  15.319 -19.017  0.00  0.00    -0.082 HD
ATOM     26  C   UNL     1     -18.436  15.711 -19.613  0.00  0.00    -0.064 C 
ATOM     27  C   UNL     1     -18.258  16.934 -18.670  0.00  0.00    +0.066 C 
ENDBRANCH  19  20
ENDBRANCH  18  19
ENDBRANCH  14  15
ENDBRANCH  12  13
TORSDOF 6
ENDMDL
MODEL 5
REMARK VINA RESULT:      -8.2      1.851      3.024
REMARK  Name = C:\Users\Docking\Desktop\test protocol\1iep_ligandH.pdb
REMARK  8 active torsions:
REMARK  status: ('A' for Active; 'I' for Inactive)
REMARK    1  A    between atoms: _5  and  _11
REMARK    2  A    between atoms: _19  and  _21
REMARK    3  A    between atoms: _22  and  _66
REMARK    4  A    between atoms: _27  and  _30
REMARK    5  A    between atoms: _32  and  _33
REMARK    6  A    between atoms: _38  and  _43
REMARK    7  A    between atoms: _43  and  _46
REMARK    8  A    between atoms: _53  and  _55
REMARK                            x       y       z     vdW  Elec       q    Type
REMARK                         _______ _______ _______ _____ _____    ______ ____
ROOT
ATOM     10  C   UNL     1     -19.354  17.486 -18.941  0.00  0.00    +0.038 A 
ATOM     11  C   UNL     1     -18.085  17.666 -18.335  0.00  0.00    +0.047 A 
ATOM     12  C   UNL     1     -17.486  18.987 -18.220  0.00  0.00    +0.035 A 
ATOM     32  C   UNL     1     -18.210  20.103 -18.732  0.00  0.00    +0.024 A 
ATOM     33  C   UNL     1     -19.500  19.938 -19.353  0.00  0.00    +0.007 A 
ATOM     34  C   UNL     1     -20.095  18.637 -19.471  0.00  0.00    -0.029 A 
ATOM     35  C   UNL     1     -21.478  18.518 -20.152  0.00  0.00    +0.045 C 
ENDROOT
BRANCH  10   9
ATOM      4  C   UNL     1     -20.265  13.432 -21.345  0.00  0.00    +0.077 A 
ATOM      5  C   UNL     1     -19.663  13.939 -22.545  0.00  0.00    +0.048 A 
ATOM      6  C   UNL     1     -19.137  15.250 -22.504  0.00  0.00    +0.116 A 
ATOM      7  N   UNL     1     -19.213  15.989 -21.344  0.00  0.00    -0.223 NA
ATOM      8  C   UNL     1     -19.801  15.472 -20.205  0.00  0.00    +0.220 A 
ATOM      9  N   UNL     1     -19.881  16.195 -19.025  0.00  0.00    -0.283 N 
ATOM     36  H   UNL     1     -20.330  15.780 -18.208  0.00  0.00    +0.155 HD
ATOM     37  N   UNL     1     -20.313  14.223 -20.219  0.00  0.00    -0.214 NA
BRANCH   4   3
ATOM      1  C   UNL     1     -22.268  10.158 -22.099  0.00  0.00    +0.020 A 
ATOM      2  C   UNL     1     -21.717  11.484 -22.259  0.00  0.00    +0.013 A 
ATOM      3  C   UNL     1     -20.862  12.064 -21.230  0.00  0.00    +0.019 A 
ATOM     38  C   UNL     1     -20.582  11.270 -20.044  0.00  0.00    +0.120 A 
ATOM     39  N   UNL     1     -21.128   9.997 -19.917  0.00  0.00    -0.263 NA
ATOM     40  C   UNL     1     -21.953   9.428 -20.899  0.00  0.00    +0.111 A 
ENDBRANCH   4   3
ENDBRANCH  10   9
BRANCH  12  13
ATOM     13  N   UNL     1     -16.197  19.230 -17.621  0.00  0.00    -0.281 N 
ATOM     14  C   UNL     1     -15.923  19.840 -16.408  0.00  0.00    +0.248 C 
ATOM     30  O   UNL     1     -16.741  20.464 -15.748  0.00  0.00    -0.270 OA
ATOM     31  H   UNL     1     -15.389  18.914 -18.157  0.00  0.00    +0.155 HD
BRANCH  14  15
ATOM     15  C   UNL     1     -14.537  19.757 -15.855  0.00  0.00    +0.037 A 
ATOM     16  C   UNL     1     -13.380  19.557 -16.731  0.00  0.00    +0.013 A 
ATOM     17  C   UNL     1     -12.055  19.464 -16.170  0.00  0.00    +0.005 A 
ATOM     18  C   UNL     1     -11.881  19.572 -14.724  0.00  0.00    -0.033 A 
ATOM     28  C   UNL     1     -13.046  19.775 -13.878  0.00  0.00    +0.005 A 
ATOM     29  C   UNL     1     -14.346  19.866 -14.425  0.00  0.00    +0.013 A 
BRANCH  18  19
ATOM     19  C   UNL     1     -10.507  19.462 -14.036  0.00  0.00    +0.119 C 
BRANCH  19  20
ATOM     20  N   UNL     1      -9.967  20.694 -13.388  0.00  0.00    -0.302 NA
ATOM     21  C   UNL     1     -10.240  20.717 -11.881  0.00  0.00    +0.066 C 
ATOM     22  C   UNL     1      -9.649  22.002 -11.215  0.00  0.00    -0.064 C 
ATOM     23  N   UNL     1     -10.239  23.241 -11.890  0.00  0.00    +0.379 N 
ATOM     24  C   UNL     1      -9.729  24.450 -11.228  0.00  0.00    -0.096 C 
ATOM     25  H   UNL     1     -11.343  23.213 -11.742  0.00  0.00    -0.082 HD
ATOM     26  C   UNL     1      -9.974  23.225 -13.389  0.00  0.00    -0.064 C 
ATOM     27  C   UNL     1     -10.540  21.930 -14.037  0.00  0.00    +0.066 C 
ENDBRANCH  19  20
ENDBRANCH  18  19
ENDBRANCH  14  15
ENDBRANCH  12  13
TORSDOF 6
ENDMDL
