MODEL 1
REMARK VINA RESULT:      -8.5      0.000      0.000
REMARK  Name = C:\Users\Docking\Desktop\test protocol\1iep_ligandH.pdb
REMARK  8 active torsions:
REMARK  status: ('A' for Active; 'I' for Inactive)
REMARK    1  A    between atoms: _5  and  _11
REMARK    2  A    between atoms: _19  and  _21
REMARK    3  A    between atoms: _22  and  _66
REMARK    4  A    between atoms: _27  and  _30
REMARK    5  A    between atoms: _32  and  _33
REMARK    6  A    between atoms: _38  and  _43
REMARK    7  A    between atoms: _43  and  _46
REMARK    8  A    between atoms: _53  and  _55
REMARK                            x       y       z     vdW  Elec       q    Type
REMARK                         _______ _______ _______ _____ _____    ______ ____
ROOT
ATOM     10  C   UNL     1     -19.765 -17.564  19.108  0.00  0.00    +0.038 A 
ATOM     11  C   UNL     1     -18.425 -17.732  18.676  0.00  0.00    +0.047 A 
ATOM     12  C   UNL     1     -17.814 -19.051  18.614  0.00  0.00    +0.035 A 
ATOM     32  C   UNL     1     -18.599 -20.177  18.998  0.00  0.00    +0.024 A 
ATOM     33  C   UNL     1     -19.962 -20.024  19.441  0.00  0.00    +0.007 A 
ATOM     34  C   UNL     1     -20.569 -18.725  19.506  0.00  0.00    -0.029 A 
ATOM     35  C   UNL     1     -22.032 -18.620  19.995  0.00  0.00    +0.045 C 
ENDROOT
BRANCH  10   9
ATOM      4  C   UNL     1     -20.712 -13.441  21.377  0.00  0.00    +0.077 A 
ATOM      5  C   UNL     1     -20.112 -13.905  22.595  0.00  0.00    +0.048 A 
ATOM      6  C   UNL     1     -19.578 -15.213  22.598  0.00  0.00    +0.116 A 
ATOM      7  N   UNL     1     -19.644 -15.990  21.462  0.00  0.00    -0.223 NA
ATOM      8  C   UNL     1     -20.230 -15.513  20.304  0.00  0.00    +0.220 A 
ATOM      9  N   UNL     1     -20.301 -16.275  19.148  0.00  0.00    -0.283 N 
ATOM     36  H   UNL     1     -20.748 -15.889  18.316  0.00  0.00    +0.155 HD
ATOM     37  N   UNL     1     -20.749 -14.268  20.276  0.00  0.00    -0.214 NA
BRANCH   4   3
ATOM      1  C   UNL     1     -21.914 -10.048  19.847  0.00  0.00    +0.020 A 
ATOM      2  C   UNL     1     -21.316 -11.359  19.950  0.00  0.00    +0.013 A 
ATOM      3  C   UNL     1     -21.317 -12.082  21.215  0.00  0.00    +0.019 A 
ATOM     38  C   UNL     1     -21.938 -11.445  22.367  0.00  0.00    +0.120 A 
ATOM     39  N   UNL     1     -22.505 -10.181  22.239  0.00  0.00    -0.263 NA
ATOM     40  C   UNL     1     -22.508  -9.475  21.026  0.00  0.00    +0.111 A 
ENDBRANCH   4   3
ENDBRANCH  10   9
BRANCH  12  13
ATOM     13  N   UNL     1     -16.455 -19.283  18.191  0.00  0.00    -0.281 N 
ATOM     14  C   UNL     1     -16.016 -20.017  17.101  0.00  0.00    +0.248 C 
ATOM     30  O   UNL     1     -16.722 -20.766  16.443  0.00  0.00    -0.270 OA
ATOM     31  H   UNL     1     -15.729 -18.854  18.765  0.00  0.00    +0.155 HD
BRANCH  14  15
ATOM     15  C   UNL     1     -14.582 -19.914  16.692  0.00  0.00    +0.037 A 
ATOM     16  C   UNL     1     -14.207 -19.617  15.307  0.00  0.00    +0.013 A 
ATOM     17  C   UNL     1     -12.816 -19.540  14.935  0.00  0.00    +0.005 A 
ATOM     18  C   UNL     1     -11.790 -19.759  15.951  0.00  0.00    -0.033 A 
ATOM     28  C   UNL     1     -12.191 -20.047  17.319  0.00  0.00    +0.005 A 
ATOM     29  C   UNL     1     -13.552 -20.124  17.687  0.00  0.00    +0.013 A 
BRANCH  18  19
ATOM     19  C   UNL     1     -10.282 -19.717  15.640  0.00  0.00    +0.119 C 
BRANCH  19  20
ATOM     20  N   UNL     1      -9.794 -20.559  14.507  0.00  0.00    -0.302 NA
ATOM     21  C   UNL     1      -9.636 -22.028  14.910  0.00  0.00    +0.066 C 
ATOM     22  C   UNL     1      -9.146 -22.898  13.707  0.00  0.00    -0.064 C 
ATOM     23  N   UNL     1      -7.825 -22.336  13.179  0.00  0.00    +0.379 N 
ATOM     24  C   UNL     1      -7.333 -23.186  12.085  0.00  0.00    -0.096 C 
ATOM     25  H   UNL     1      -7.082 -22.386  14.008  0.00  0.00    -0.082 HD
ATOM     26  C   UNL     1      -7.973 -20.875  12.779  0.00  0.00    -0.064 C 
ATOM     27  C   UNL     1      -8.488 -20.024  13.973  0.00  0.00    +0.066 C 
ENDBRANCH  19  20
ENDBRANCH  18  19
ENDBRANCH  14  15
ENDBRANCH  12  13
TORSDOF 6
ENDMDL
MODEL 2
REMARK VINA RESULT:      -8.3      1.441      2.245
REMARK  Name = C:\Users\Docking\Desktop\test protocol\1iep_ligandH.pdb
REMARK  8 active torsions:
REMARK  status: ('A' for Active; 'I' for Inactive)
REMARK    1  A    between atoms: _5  and  _11
REMARK    2  A    between atoms: _19  and  _21
REMARK    3  A    between atoms: _22  and  _66
REMARK    4  A    between atoms: _27  and  _30
REMARK    5  A    between atoms: _32  and  _33
REMARK    6  A    between atoms: _38  and  _43
REMARK    7  A    between atoms: _43  and  _46
REMARK    8  A    between atoms: _53  and  _55
REMARK                            x       y       z     vdW  Elec       q    Type
REMARK                         _______ _______ _______ _____ _____    ______ ____
ROOT
ATOM     10  C   UNL     1     -19.799 -17.516  19.347  0.00  0.00    +0.038 A 
ATOM     11  C   UNL     1     -18.537 -17.720  18.732  0.00  0.00    +0.047 A 
ATOM     12  C   UNL     1     -17.905 -19.030  18.726  0.00  0.00    +0.035 A 
ATOM     32  C   UNL     1     -18.588 -20.112  19.354  0.00  0.00    +0.024 A 
ATOM     33  C   UNL     1     -19.871 -19.923  19.984  0.00  0.00    +0.007 A 
ATOM     34  C   UNL     1     -20.498 -18.632  19.995  0.00  0.00    -0.029 A 
ATOM     35  C   UNL     1     -21.871 -18.486  20.692  0.00  0.00    +0.045 C 
ENDROOT
BRANCH  10   9
ATOM      4  C   UNL     1     -20.807 -13.298  21.402  0.00  0.00    +0.077 A 
ATOM      5  C   UNL     1     -20.189 -13.685  22.637  0.00  0.00    +0.048 A 
ATOM      6  C   UNL     1     -19.629 -14.981  22.705  0.00  0.00    +0.116 A 
ATOM      7  N   UNL     1     -19.689 -15.818  21.612  0.00  0.00    -0.223 NA
ATOM      8  C   UNL     1     -20.295 -15.414  20.436  0.00  0.00    +0.220 A 
ATOM      9  N   UNL     1     -20.359 -16.237  19.323  0.00  0.00    -0.283 N 
ATOM     36  H   UNL     1     -20.821 -15.905  18.476  0.00  0.00    +0.155 HD
ATOM     37  N   UNL     1     -20.838 -14.183  20.347  0.00  0.00    -0.214 NA
BRANCH   4   3
ATOM      1  C   UNL     1     -22.064 -10.002  19.712  0.00  0.00    +0.020 A 
ATOM      2  C   UNL     1     -21.438 -11.293  19.878  0.00  0.00    +0.013 A 
ATOM      3  C   UNL     1     -21.440 -11.960  21.174  0.00  0.00    +0.019 A 
ATOM     38  C   UNL     1     -22.090 -11.289  22.290  0.00  0.00    +0.120 A 
ATOM     39  N   UNL     1     -22.683 -10.045  22.100  0.00  0.00    -0.263 NA
ATOM     40  C   UNL     1     -22.686  -9.392  20.858  0.00  0.00    +0.111 A 
ENDBRANCH   4   3
ENDBRANCH  10   9
BRANCH  12  13
ATOM     13  N   UNL     1     -16.622 -19.295  18.125  0.00  0.00    -0.281 N 
ATOM     14  C   UNL     1     -16.313 -20.237  17.157  0.00  0.00    +0.248 C 
ATOM     30  O   UNL     1     -17.056 -21.144  16.814  0.00  0.00    -0.270 OA
ATOM     31  H   UNL     1     -15.847 -18.718  18.452  0.00  0.00    +0.155 HD
BRANCH  14  15
ATOM     15  C   UNL     1     -14.980 -20.170  16.483  0.00  0.00    +0.037 A 
ATOM     16  C   UNL     1     -14.838 -19.616  15.134  0.00  0.00    +0.013 A 
ATOM     17  C   UNL     1     -13.543 -19.579  14.501  0.00  0.00    +0.005 A 
ATOM     18  C   UNL     1     -12.380 -20.096  15.218  0.00  0.00    -0.033 A 
ATOM     28  C   UNL     1     -12.549 -20.634  16.557  0.00  0.00    +0.005 A 
ATOM     29  C   UNL     1     -13.816 -20.674  17.181  0.00  0.00    +0.013 A 
BRANCH  18  19
ATOM     19  C   UNL     1     -10.965 -20.115  14.611  0.00  0.00    +0.119 C 
BRANCH  19  20
ATOM     20  N   UNL     1     -10.017 -19.049  15.052  0.00  0.00    -0.302 NA
ATOM     21  C   UNL     1     -10.589 -17.645  14.833  0.00  0.00    +0.066 C 
ATOM     22  C   UNL     1      -9.594 -16.543  15.320  0.00  0.00    -0.064 C 
ATOM     23  N   UNL     1      -8.260 -16.704  14.590  0.00  0.00    +0.379 N 
ATOM     24  C   UNL     1      -7.341 -15.633  15.003  0.00  0.00    -0.096 C 
ATOM     25  H   UNL     1      -8.455 -16.580  13.499  0.00  0.00    -0.082 HD
ATOM     26  C   UNL     1      -7.685 -18.098  14.800  0.00  0.00    -0.064 C 
ATOM     27  C   UNL     1      -8.694 -19.187  14.339  0.00  0.00    +0.066 C 
ENDBRANCH  19  20
ENDBRANCH  18  19
ENDBRANCH  14  15
ENDBRANCH  12  13
TORSDOF 6
ENDMDL
MODEL 3
REMARK VINA RESULT:      -8.0      1.902      2.208
REMARK  Name = C:\Users\Docking\Desktop\test protocol\1iep_ligandH.pdb
REMARK  8 active torsions:
REMARK  status: ('A' for Active; 'I' for Inactive)
REMARK    1  A    between atoms: _5  and  _11
REMARK    2  A    between atoms: _19  and  _21
REMARK    3  A    between atoms: _22  and  _66
REMARK    4  A    between atoms: _27  and  _30
REMARK    5  A    between atoms: _32  and  _33
REMARK    6  A    between atoms: _38  and  _43
REMARK    7  A    between atoms: _43  and  _46
REMARK    8  A    between atoms: _53  and  _55
REMARK                            x       y       z     vdW  Elec       q    Type
REMARK                         _______ _______ _______ _____ _____    ______ ____
ROOT
ATOM     10  C   UNL     1     -19.709 -17.169  19.465  0.00  0.00    +0.038 A 
ATOM     11  C   UNL     1     -18.329 -17.239  19.142  0.00  0.00    +0.047 A 
ATOM     12  C   UNL     1     -17.614 -18.505  19.167  0.00  0.00    +0.035 A 
ATOM     32  C   UNL     1     -18.336 -19.682  19.522  0.00  0.00    +0.024 A 
ATOM     33  C   UNL     1     -19.738 -19.629  19.854  0.00  0.00    +0.007 A 
ATOM     34  C   UNL     1     -20.448 -18.382  19.834  0.00  0.00    -0.029 A 
ATOM     35  C   UNL     1     -21.949 -18.384  20.205  0.00  0.00    +0.045 C 
ENDROOT
BRANCH  10   9
ATOM      4  C   UNL     1     -20.981 -12.999  21.472  0.00  0.00    +0.077 A 
ATOM      5  C   UNL     1     -20.346 -13.335  22.713  0.00  0.00    +0.048 A 
ATOM      6  C   UNL     1     -19.709 -14.593  22.797  0.00  0.00    +0.116 A 
ATOM      7  N   UNL     1     -19.713 -15.444  21.713  0.00  0.00    -0.223 NA
ATOM      8  C   UNL     1     -20.336 -15.090  20.531  0.00  0.00    +0.220 A 
ATOM      9  N   UNL     1     -20.346 -15.927  19.425  0.00  0.00    -0.283 N 
ATOM     36  H   UNL     1     -20.823 -15.632  18.574  0.00  0.00    +0.155 HD
ATOM     37  N   UNL     1     -20.953 -13.894  20.426  0.00  0.00    -0.214 NA
BRANCH   4   3
ATOM      1  C   UNL     1     -22.581  -9.892  19.714  0.00  0.00    +0.020 A 
ATOM      2  C   UNL     1     -21.886 -11.146  19.895  0.00  0.00    +0.013 A 
ATOM      3  C   UNL     1     -21.693 -11.705  21.227  0.00  0.00    +0.019 A 
ATOM     38  C   UNL     1     -22.221 -10.965  22.364  0.00  0.00    +0.120 A 
ATOM     39  N   UNL     1     -22.884  -9.759  22.159  0.00  0.00    -0.263 NA
ATOM     40  C   UNL     1     -23.074  -9.211  20.882  0.00  0.00    +0.111 A 
ENDBRANCH   4   3
ENDBRANCH  10   9
BRANCH  12  13
ATOM     13  N   UNL     1     -16.212 -18.637  18.857  0.00  0.00    -0.281 N 
ATOM     14  C   UNL     1     -15.160 -18.831  19.736  0.00  0.00    +0.248 C 
ATOM     30  O   UNL     1     -15.241 -18.707  20.949  0.00  0.00    -0.270 OA
ATOM     31  H   UNL     1     -15.966 -18.580  17.868  0.00  0.00    +0.155 HD
BRANCH  14  15
ATOM     15  C   UNL     1     -13.820 -19.202  19.188  0.00  0.00    +0.037 A 
ATOM     16  C   UNL     1     -12.864 -18.178  18.760  0.00  0.00    +0.013 A 
ATOM     17  C   UNL     1     -11.584 -18.564  18.219  0.00  0.00    +0.005 A 
ATOM     18  C   UNL     1     -11.253 -19.982  18.105  0.00  0.00    -0.033 A 
ATOM     28  C   UNL     1     -12.218 -20.977  18.543  0.00  0.00    +0.005 A 
ATOM     29  C   UNL     1     -13.474 -20.602  19.073  0.00  0.00    +0.013 A 
BRANCH  18  19
ATOM     19  C   UNL     1      -9.920 -20.485  17.521  0.00  0.00    +0.119 C 
BRANCH  19  20
ATOM     20  N   UNL     1      -9.743 -20.390  16.041  0.00  0.00    -0.302 NA
ATOM     21  C   UNL     1      -9.321 -18.985  15.602  0.00  0.00    +0.066 C 
ATOM     22  C   UNL     1      -9.119 -18.909  14.054  0.00  0.00    -0.064 C 
ATOM     23  N   UNL     1     -10.411 -19.330  13.352  0.00  0.00    +0.379 N 
ATOM     24  C   UNL     1     -10.242 -19.204  11.897  0.00  0.00    -0.096 C 
ATOM     25  H   UNL     1     -11.211 -18.619  13.663  0.00  0.00    -0.082 HD
ATOM     26  C   UNL     1     -10.839 -20.725  13.785  0.00  0.00    -0.064 C 
ATOM     27  C   UNL     1     -11.009 -20.798  15.328  0.00  0.00    +0.066 C 
ENDBRANCH  19  20
ENDBRANCH  18  19
ENDBRANCH  14  15
ENDBRANCH  12  13
TORSDOF 6
ENDMDL
MODEL 4
REMARK VINA RESULT:      -7.9      9.280     13.785
REMARK  Name = C:\Users\Docking\Desktop\test protocol\1iep_ligandH.pdb
REMARK  8 active torsions:
REMARK  status: ('A' for Active; 'I' for Inactive)
REMARK    1  A    between atoms: _5  and  _11
REMARK    2  A    between atoms: _19  and  _21
REMARK    3  A    between atoms: _22  and  _66
REMARK    4  A    between atoms: _27  and  _30
REMARK    5  A    between atoms: _32  and  _33
REMARK    6  A    between atoms: _38  and  _43
REMARK    7  A    between atoms: _43  and  _46
REMARK    8  A    between atoms: _53  and  _55
REMARK                            x       y       z     vdW  Elec       q    Type
REMARK                         _______ _______ _______ _____ _____    ______ ____
ROOT
ATOM     10  C   UNL     1      -9.412 -18.233  14.871  0.00  0.00    +0.038 A 
ATOM     11  C   UNL     1      -8.036 -17.975  15.094  0.00  0.00    +0.047 A 
ATOM     12  C   UNL     1      -7.510 -16.619  15.065  0.00  0.00    +0.035 A 
ATOM     32  C   UNL     1      -8.416 -15.549  14.809  0.00  0.00    +0.024 A 
ATOM     33  C   UNL     1      -9.819 -15.793  14.580  0.00  0.00    +0.007 A 
ATOM     34  C   UNL     1     -10.342 -17.129  14.605  0.00  0.00    -0.029 A 
ATOM     35  C   UNL     1     -11.853 -17.333  14.346  0.00  0.00    +0.045 C 
ENDROOT
BRANCH  10   9
ATOM      4  C   UNL     1     -10.374 -22.442  12.773  0.00  0.00    +0.077 A 
ATOM      5  C   UNL     1      -9.969 -21.959  11.484  0.00  0.00    +0.048 A 
ATOM      6  C   UNL     1      -9.527 -20.619  11.403  0.00  0.00    +0.116 A 
ATOM      7  N   UNL     1      -9.496 -19.831  12.532  0.00  0.00    -0.223 NA
ATOM      8  C   UNL     1      -9.894 -20.327  13.760  0.00  0.00    +0.220 A 
ATOM      9  N   UNL     1      -9.863 -19.555  14.911  0.00  0.00    -0.283 N 
ATOM     36  H   UNL     1     -10.172 -19.956  15.796  0.00  0.00    +0.155 HD
ATOM     37  N   UNL     1     -10.322 -21.603  13.864  0.00  0.00    -0.214 NA
BRANCH   4   3
ATOM      1  C   UNL     1     -10.892 -26.312  12.543  0.00  0.00    +0.020 A 
ATOM      2  C   UNL     1     -10.389 -24.987  12.263  0.00  0.00    +0.013 A 
ATOM      3  C   UNL     1     -10.862 -23.835  13.021  0.00  0.00    +0.019 A 
ATOM     38  C   UNL     1     -11.851 -24.061  14.064  0.00  0.00    +0.120 A 
ATOM     39  N   UNL     1     -12.318 -25.348  14.310  0.00  0.00    -0.263 NA
ATOM     40  C   UNL     1     -11.872 -26.463  13.586  0.00  0.00    +0.111 A 
ENDBRANCH   4   3
ENDBRANCH  10   9
BRANCH  12  13
ATOM     13  N   UNL     1      -6.121 -16.296  15.275  0.00  0.00    -0.281 N 
ATOM     14  C   UNL     1      -5.441 -16.202  16.479  0.00  0.00    +0.248 C 
ATOM     30  O   UNL     1      -5.979 -16.171  17.575  0.00  0.00    -0.270 OA
ATOM     31  H   UNL     1      -5.571 -16.116  14.435  0.00  0.00    +0.155 HD
BRANCH  14  15
ATOM     15  C   UNL     1      -3.949 -16.114  16.461  0.00  0.00    +0.037 A 
ATOM     16  C   UNL     1      -3.127 -17.243  16.017  0.00  0.00    +0.013 A 
ATOM     17  C   UNL     1      -1.690 -17.138  16.025  0.00  0.00    +0.005 A 
ATOM     18  C   UNL     1      -1.065 -15.897  16.478  0.00  0.00    -0.033 A 
ATOM     28  C   UNL     1      -1.905 -14.791  16.908  0.00  0.00    +0.005 A 
ATOM     29  C   UNL     1      -3.314 -14.891  16.902  0.00  0.00    +0.013 A 
BRANCH  18  19
ATOM     19  C   UNL     1       0.462 -15.704  16.541  0.00  0.00    +0.119 C 
BRANCH  19  20
ATOM     20  N   UNL     1       1.191 -15.594  15.242  0.00  0.00    -0.302 NA
ATOM     21  C   UNL     1       0.376 -14.840  14.188  0.00  0.00    +0.066 C 
ATOM     22  C   UNL     1       1.163 -14.715  12.843  0.00  0.00    -0.064 C 
ATOM     23  N   UNL     1       1.536 -16.112  12.342  0.00  0.00    +0.379 N 
ATOM     24  C   UNL     1       2.226 -16.001  11.048  0.00  0.00    -0.096 C 
ATOM     25  H   UNL     1       0.589 -16.675  12.174  0.00  0.00    -0.082 HD
ATOM     26  C   UNL     1       2.345 -16.870  13.386  0.00  0.00    -0.064 C 
ATOM     27  C   UNL     1       1.566 -16.962  14.727  0.00  0.00    +0.066 C 
ENDBRANCH  19  20
ENDBRANCH  18  19
ENDBRANCH  14  15
ENDBRANCH  12  13
TORSDOF 6
ENDMDL
MODEL 5
REMARK VINA RESULT:      -7.9      3.564     12.675
REMARK  Name = C:\Users\Docking\Desktop\test protocol\1iep_ligandH.pdb
REMARK  8 active torsions:
REMARK  status: ('A' for Active; 'I' for Inactive)
REMARK    1  A    between atoms: _5  and  _11
REMARK    2  A    between atoms: _19  and  _21
REMARK    3  A    between atoms: _22  and  _66
REMARK    4  A    between atoms: _27  and  _30
REMARK    5  A    between atoms: _32  and  _33
REMARK    6  A    between atoms: _38  and  _43
REMARK    7  A    between atoms: _43  and  _46
REMARK    8  A    between atoms: _53  and  _55
REMARK                            x       y       z     vdW  Elec       q    Type
REMARK                         _______ _______ _______ _____ _____    ______ ____
ROOT
ATOM     10  C   UNL     1      -9.698 -20.021  14.226  0.00  0.00    +0.038 A 
ATOM     11  C   UNL     1     -10.958 -19.950  14.874  0.00  0.00    +0.047 A 
ATOM     12  C   UNL     1     -12.158 -20.476  14.243  0.00  0.00    +0.035 A 
ATOM     32  C   UNL     1     -12.039 -21.070  12.953  0.00  0.00    +0.024 A 
ATOM     33  C   UNL     1     -10.767 -21.149  12.279  0.00  0.00    +0.007 A 
ATOM     34  C   UNL     1      -9.579 -20.629  12.895  0.00  0.00    -0.029 A 
ATOM     35  C   UNL     1      -8.243 -20.735  12.124  0.00  0.00    +0.045 C 
ENDROOT
BRANCH  10   9
ATOM      4  C   UNL     1      -6.911 -16.354  15.576  0.00  0.00    +0.077 A 
ATOM      5  C   UNL     1      -7.742 -15.397  14.905  0.00  0.00    +0.048 A 
ATOM      6  C   UNL     1      -8.874 -15.890  14.217  0.00  0.00    +0.116 A 
ATOM      7  N   UNL     1      -9.144 -17.242  14.209  0.00  0.00    -0.223 NA
ATOM      8  C   UNL     1      -8.321 -18.138  14.866  0.00  0.00    +0.220 A 
ATOM      9  N   UNL     1      -8.578 -19.500  14.877  0.00  0.00    -0.283 N 
ATOM     36  H   UNL     1      -7.942 -20.129  15.367  0.00  0.00    +0.155 HD
ATOM     37  N   UNL     1      -7.233 -17.692  15.528  0.00  0.00    -0.214 NA
BRANCH   4   3
ATOM      1  C   UNL     1      -3.576 -14.642  16.693  0.00  0.00    +0.020 A 
ATOM      2  C   UNL     1      -4.748 -14.958  15.910  0.00  0.00    +0.013 A 
ATOM      3  C   UNL     1      -5.682 -15.987  16.349  0.00  0.00    +0.019 A 
ATOM     38  C   UNL     1      -5.399 -16.683  17.595  0.00  0.00    +0.120 A 
ATOM     39  N   UNL     1      -4.261 -16.358  18.328  0.00  0.00    -0.263 NA
ATOM     40  C   UNL     1      -3.355 -15.371  17.914  0.00  0.00    +0.111 A 
ENDBRANCH   4   3
ENDBRANCH  10   9
BRANCH  12  13
ATOM     13  N   UNL     1     -13.466 -20.426  14.849  0.00  0.00    -0.281 N 
ATOM     14  C   UNL     1     -14.056 -21.364  15.680  0.00  0.00    +0.248 C 
ATOM     30  O   UNL     1     -13.630 -22.495  15.858  0.00  0.00    -0.270 OA
ATOM     31  H   UNL     1     -14.024 -19.598  14.639  0.00  0.00    +0.155 HD
BRANCH  14  15
ATOM     15  C   UNL     1     -15.309 -20.997  16.408  0.00  0.00    +0.037 A 
ATOM     16  C   UNL     1     -15.265 -20.412  17.750  0.00  0.00    +0.013 A 
ATOM     17  C   UNL     1     -16.489 -20.084  18.437  0.00  0.00    +0.005 A 
ATOM     18  C   UNL     1     -17.769 -20.338  17.780  0.00  0.00    -0.033 A 
ATOM     28  C   UNL     1     -17.784 -20.914  16.445  0.00  0.00    +0.005 A 
ATOM     29  C   UNL     1     -16.586 -21.238  15.770  0.00  0.00    +0.013 A 
BRANCH  18  19
ATOM     19  C   UNL     1     -19.125 -20.038  18.446  0.00  0.00    +0.119 C 
BRANCH  19  20
ATOM     20  N   UNL     1     -19.213 -18.812  19.295  0.00  0.00    -0.302 NA
ATOM     21  C   UNL     1     -20.605 -18.638  19.908  0.00  0.00    +0.066 C 
ATOM     22  C   UNL     1     -20.674 -17.364  20.811  0.00  0.00    -0.064 C 
ATOM     23  N   UNL     1     -20.289 -16.135  19.985  0.00  0.00    +0.379 N 
ATOM     24  C   UNL     1     -20.408 -14.928  20.816  0.00  0.00    -0.096 C 
ATOM     25  H   UNL     1     -21.022 -16.046  19.151  0.00  0.00    -0.082 HD
ATOM     26  C   UNL     1     -18.907 -16.301  19.369  0.00  0.00    -0.064 C 
ATOM     27  C   UNL     1     -18.841 -17.587  18.497  0.00  0.00    +0.066 C 
ENDBRANCH  19  20
ENDBRANCH  18  19
ENDBRANCH  14  15
ENDBRANCH  12  13
TORSDOF 6
ENDMDL
