MODEL 1
REMARK VINA RESULT:      -8.4      0.000      0.000
REMARK  Name = C:\Users\Docking\Desktop\test protocol\1iep_ligandH.pdb
REMARK  8 active torsions:
REMARK  status: ('A' for Active; 'I' for Inactive)
REMARK    1  A    between atoms: _5  and  _11
REMARK    2  A    between atoms: _19  and  _21
REMARK    3  A    between atoms: _22  and  _66
REMARK    4  A    between atoms: _27  and  _30
REMARK    5  A    between atoms: _32  and  _33
REMARK    6  A    between atoms: _38  and  _43
REMARK    7  A    between atoms: _43  and  _46
REMARK    8  A    between atoms: _53  and  _55
REMARK                            x       y       z     vdW  Elec       q    Type
REMARK                         _______ _______ _______ _____ _____    ______ ____
ROOT
ATOM     10  C   UNL     1      -9.074  17.598  -4.295  0.00  0.00    +0.038 A 
ATOM     11  C   UNL     1     -10.377  17.787  -4.822  0.00  0.00    +0.047 A 
ATOM     12  C   UNL     1     -10.974  19.111  -4.897  0.00  0.00    +0.035 A 
ATOM     32  C   UNL     1     -10.215  20.222  -4.428  0.00  0.00    +0.024 A 
ATOM     33  C   UNL     1      -8.889  20.049  -3.888  0.00  0.00    +0.007 A 
ATOM     34  C   UNL     1      -8.296  18.744  -3.810  0.00  0.00    -0.029 A 
ATOM     35  C   UNL     1      -6.874  18.616  -3.216  0.00  0.00    +0.045 C 
ENDROOT
BRANCH  10   9
ATOM      4  C   UNL     1      -8.065  13.524  -1.968  0.00  0.00    +0.077 A 
ATOM      5  C   UNL     1      -8.604  14.024  -0.736  0.00  0.00    +0.048 A 
ATOM      6  C   UNL     1      -9.125  15.338  -0.742  0.00  0.00    +0.116 A 
ATOM      7  N   UNL     1      -9.103  16.086  -1.899  0.00  0.00    -0.223 NA
ATOM      8  C   UNL     1      -8.574  15.573  -3.070  0.00  0.00    +0.220 A 
ATOM      9  N   UNL     1      -8.550  16.305  -4.247  0.00  0.00    -0.283 N 
ATOM     36  H   UNL     1      -8.144  15.894  -5.088  0.00  0.00    +0.155 HD
ATOM     37  N   UNL     1      -8.070  14.322  -3.090  0.00  0.00    -0.214 NA
BRANCH   4   3
ATOM      1  C   UNL     1      -7.178   9.979  -3.364  0.00  0.00    +0.020 A 
ATOM      2  C   UNL     1      -7.768  11.294  -3.263  0.00  0.00    +0.013 A 
ATOM      3  C   UNL     1      -7.481  12.154  -2.122  0.00  0.00    +0.019 A 
ATOM     38  C   UNL     1      -6.586  11.649  -1.092  0.00  0.00    +0.120 A 
ATOM     39  N   UNL     1      -6.033  10.378  -1.215  0.00  0.00    -0.263 NA
ATOM     40  C   UNL     1      -6.303   9.541  -2.308  0.00  0.00    +0.111 A 
ENDBRANCH   4   3
ENDBRANCH  10   9
BRANCH  12  13
ATOM     13  N   UNL     1     -12.297  19.363  -5.414  0.00  0.00    -0.281 N 
ATOM     14  C   UNL     1     -12.648  20.119  -6.520  0.00  0.00    +0.248 C 
ATOM     30  O   UNL     1     -11.890  20.874  -7.111  0.00  0.00    -0.270 OA
ATOM     31  H   UNL     1     -13.067  18.931  -4.903  0.00  0.00    +0.155 HD
BRANCH  14  15
ATOM     15  C   UNL     1     -14.049  20.037  -7.035  0.00  0.00    +0.037 A 
ATOM     16  C   UNL     1     -15.195  20.022  -6.123  0.00  0.00    +0.013 A 
ATOM     17  C   UNL     1     -16.535  19.924  -6.645  0.00  0.00    +0.005 A 
ATOM     18  C   UNL     1     -16.736  19.843  -8.090  0.00  0.00    -0.033 A 
ATOM     28  C   UNL     1     -15.581  19.865  -8.973  0.00  0.00    +0.005 A 
ATOM     29  C   UNL     1     -14.266  19.960  -8.464  0.00  0.00    +0.013 A 
BRANCH  18  19
ATOM     19  C   UNL     1     -18.128  19.715  -8.735  0.00  0.00    +0.119 C 
BRANCH  19  20
ATOM     20  N   UNL     1     -19.033  18.651  -8.205  0.00  0.00    -0.302 NA
ATOM     21  C   UNL     1     -18.626  17.257  -8.690  0.00  0.00    +0.066 C 
ATOM     22  C   UNL     1     -19.568  16.154  -8.108  0.00  0.00    -0.064 C 
ATOM     23  N   UNL     1     -21.014  16.464  -8.500  0.00  0.00    +0.379 N 
ATOM     24  C   UNL     1     -21.896  15.398  -8.003  0.00  0.00    -0.096 C 
ATOM     25  H   UNL     1     -21.071  16.458  -9.613  0.00  0.00    -0.082 HD
ATOM     26  C   UNL     1     -21.426  17.849  -8.024  0.00  0.00    -0.064 C 
ATOM     27  C   UNL     1     -20.465  18.935  -8.584  0.00  0.00    +0.066 C 
ENDBRANCH  19  20
ENDBRANCH  18  19
ENDBRANCH  14  15
ENDBRANCH  12  13
TORSDOF 6
ENDMDL
MODEL 2
REMARK VINA RESULT:      -8.3      1.642      2.581
REMARK  Name = C:\Users\Docking\Desktop\test protocol\1iep_ligandH.pdb
REMARK  8 active torsions:
REMARK  status: ('A' for Active; 'I' for Inactive)
REMARK    1  A    between atoms: _5  and  _11
REMARK    2  A    between atoms: _19  and  _21
REMARK    3  A    between atoms: _22  and  _66
REMARK    4  A    between atoms: _27  and  _30
REMARK    5  A    between atoms: _32  and  _33
REMARK    6  A    between atoms: _38  and  _43
REMARK    7  A    between atoms: _43  and  _46
REMARK    8  A    between atoms: _53  and  _55
REMARK                            x       y       z     vdW  Elec       q    Type
REMARK                         _______ _______ _______ _____ _____    ______ ____
ROOT
ATOM     10  C   UNL     1      -9.125  17.654  -4.289  0.00  0.00    +0.038 A 
ATOM     11  C   UNL     1     -10.464  17.836  -4.722  0.00  0.00    +0.047 A 
ATOM     12  C   UNL     1     -11.054  19.163  -4.805  0.00  0.00    +0.035 A 
ATOM     32  C   UNL     1     -10.251  20.283  -4.441  0.00  0.00    +0.024 A 
ATOM     33  C   UNL     1      -8.890  20.116  -3.998  0.00  0.00    +0.007 A 
ATOM     34  C   UNL     1      -8.303  18.810  -3.912  0.00  0.00    -0.029 A 
ATOM     35  C   UNL     1      -6.840  18.690  -3.423  0.00  0.00    +0.045 C 
ENDROOT
BRANCH  10   9
ATOM      4  C   UNL     1      -8.084  13.620  -1.906  0.00  0.00    +0.077 A 
ATOM      5  C   UNL     1      -8.586  14.150  -0.671  0.00  0.00    +0.048 A 
ATOM      6  C   UNL     1      -9.097  15.467  -0.690  0.00  0.00    +0.116 A 
ATOM      7  N   UNL     1      -9.101  16.191  -1.862  0.00  0.00    -0.223 NA
ATOM      8  C   UNL     1      -8.608  15.651  -3.036  0.00  0.00    +0.220 A 
ATOM      9  N   UNL     1      -8.609  16.358  -4.228  0.00  0.00    -0.283 N 
ATOM     36  H   UNL     1      -8.230  15.926  -5.071  0.00  0.00    +0.155 HD
ATOM     37  N   UNL     1      -8.113  14.395  -3.043  0.00  0.00    -0.214 NA
BRANCH   4   3
ATOM      1  C   UNL     1      -6.076  10.326  -1.259  0.00  0.00    +0.020 A 
ATOM      2  C   UNL     1      -6.596  11.661  -1.076  0.00  0.00    +0.013 A 
ATOM      3  C   UNL     1      -7.514  12.243  -2.047  0.00  0.00    +0.019 A 
ATOM     38  C   UNL     1      -7.889  11.440  -3.202  0.00  0.00    +0.120 A 
ATOM     39  N   UNL     1      -7.371  10.158  -3.352  0.00  0.00    -0.263 NA
ATOM     40  C   UNL     1      -6.485   9.588  -2.425  0.00  0.00    +0.111 A 
ENDBRANCH   4   3
ENDBRANCH  10   9
BRANCH  12  13
ATOM     13  N   UNL     1     -12.410  19.409  -5.230  0.00  0.00    -0.281 N 
ATOM     14  C   UNL     1     -12.838  20.066  -6.372  0.00  0.00    +0.248 C 
ATOM     30  O   UNL     1     -12.116  20.734  -7.097  0.00  0.00    -0.270 OA
ATOM     31  H   UNL     1     -13.142  19.055  -4.615  0.00  0.00    +0.155 HD
BRANCH  14  15
ATOM     15  C   UNL     1     -14.280  19.982  -6.755  0.00  0.00    +0.037 A 
ATOM     16  C   UNL     1     -15.342  20.139  -5.757  0.00  0.00    +0.013 A 
ATOM     17  C   UNL     1     -16.725  20.037  -6.151  0.00  0.00    +0.005 A 
ATOM     18  C   UNL     1     -17.054  19.777  -7.550  0.00  0.00    -0.033 A 
ATOM     28  C   UNL     1     -15.981  19.631  -8.520  0.00  0.00    +0.005 A 
ATOM     29  C   UNL     1     -14.625  19.730  -8.138  0.00  0.00    +0.013 A 
BRANCH  18  19
ATOM     19  C   UNL     1     -18.502  19.631  -8.056  0.00  0.00    +0.119 C 
BRANCH  19  20
ATOM     20  N   UNL     1     -18.941  20.552  -9.146  0.00  0.00    -0.302 NA
ATOM     21  C   UNL     1     -18.800  22.024  -8.747  0.00  0.00    +0.066 C 
ATOM     22  C   UNL     1     -19.243  22.974  -9.907  0.00  0.00    -0.064 C 
ATOM     23  N   UNL     1     -20.686  22.655 -10.301  0.00  0.00    +0.379 N 
ATOM     24  C   UNL     1     -21.125  23.584 -11.352  0.00  0.00    -0.096 C 
ATOM     25  H   UNL     1     -21.327  22.830  -9.405  0.00  0.00    -0.082 HD
ATOM     26  C   UNL     1     -20.836  21.193 -10.697  0.00  0.00    -0.064 C 
ATOM     27  C   UNL     1     -20.365  20.258  -9.548  0.00  0.00    +0.066 C 
ENDBRANCH  19  20
ENDBRANCH  18  19
ENDBRANCH  14  15
ENDBRANCH  12  13
TORSDOF 6
ENDMDL
MODEL 3
REMARK VINA RESULT:      -8.1      3.929      7.646
REMARK  Name = C:\Users\Docking\Desktop\test protocol\1iep_ligandH.pdb
REMARK  8 active torsions:
REMARK  status: ('A' for Active; 'I' for Inactive)
REMARK    1  A    between atoms: _5  and  _11
REMARK    2  A    between atoms: _19  and  _21
REMARK    3  A    between atoms: _22  and  _66
REMARK    4  A    between atoms: _27  and  _30
REMARK    5  A    between atoms: _32  and  _33
REMARK    6  A    between atoms: _38  and  _43
REMARK    7  A    between atoms: _43  and  _46
REMARK    8  A    between atoms: _53  and  _55
REMARK                            x       y       z     vdW  Elec       q    Type
REMARK                         _______ _______ _______ _____ _____    ______ ____
ROOT
ATOM     10  C   UNL     1     -14.621  20.748  -8.791  0.00  0.00    +0.038 A 
ATOM     11  C   UNL     1     -15.724  19.885  -8.569  0.00  0.00    +0.047 A 
ATOM     12  C   UNL     1     -17.049  20.213  -9.072  0.00  0.00    +0.035 A 
ATOM     32  C   UNL     1     -17.214  21.427  -9.801  0.00  0.00    +0.024 A 
ATOM     33  C   UNL     1     -16.103  22.316 -10.035  0.00  0.00    +0.007 A 
ATOM     34  C   UNL     1     -14.795  22.000  -9.538  0.00  0.00    -0.029 A 
ATOM     35  C   UNL     1     -13.642  22.993  -9.813  0.00  0.00    +0.045 C 
ENDROOT
BRANCH  10   9
ATOM      4  C   UNL     1     -11.669  19.693  -5.156  0.00  0.00    +0.077 A 
ATOM      5  C   UNL     1     -12.698  19.911  -4.180  0.00  0.00    +0.048 A 
ATOM      6  C   UNL     1     -13.970  20.301  -4.654  0.00  0.00    +0.116 A 
ATOM      7  N   UNL     1     -14.187  20.458  -6.006  0.00  0.00    -0.223 NA
ATOM      8  C   UNL     1     -13.173  20.240  -6.921  0.00  0.00    +0.220 A 
ATOM      9  N   UNL     1     -13.371  20.384  -8.286  0.00  0.00    -0.283 N 
ATOM     36  H   UNL     1     -12.595  20.221  -8.927  0.00  0.00    +0.155 HD
ATOM     37  N   UNL     1     -11.948  19.868  -6.493  0.00  0.00    -0.214 NA
BRANCH   4   3
ATOM      1  C   UNL     1      -7.767  19.516  -4.955  0.00  0.00    +0.020 A 
ATOM      2  C   UNL     1      -9.093  19.960  -5.319  0.00  0.00    +0.013 A 
ATOM      3  C   UNL     1     -10.274  19.274  -4.812  0.00  0.00    +0.019 A 
ATOM     38  C   UNL     1     -10.078  18.132  -3.931  0.00  0.00    +0.120 A 
ATOM     39  N   UNL     1      -8.789  17.726  -3.599  0.00  0.00    -0.263 NA
ATOM     40  C   UNL     1      -7.645  18.378  -4.083  0.00  0.00    +0.111 A 
ENDBRANCH   4   3
ENDBRANCH  10   9
BRANCH  12  13
ATOM     13  N   UNL     1     -18.208  19.380  -8.871  0.00  0.00    -0.281 N 
ATOM     14  C   UNL     1     -18.390  18.064  -9.264  0.00  0.00    +0.248 C 
ATOM     30  O   UNL     1     -17.660  17.468 -10.041  0.00  0.00    -0.270 OA
ATOM     31  H   UNL     1     -18.990  19.812  -8.379  0.00  0.00    +0.155 HD
BRANCH  14  15
ATOM     15  C   UNL     1     -19.561  17.305  -8.728  0.00  0.00    +0.037 A 
ATOM     16  C   UNL     1     -19.623  15.844  -8.814  0.00  0.00    +0.013 A 
ATOM     17  C   UNL     1     -20.772  15.138  -8.304  0.00  0.00    +0.005 A 
ATOM     18  C   UNL     1     -21.868  15.893  -7.701  0.00  0.00    -0.033 A 
ATOM     28  C   UNL     1     -21.777  17.342  -7.625  0.00  0.00    +0.005 A 
ATOM     29  C   UNL     1     -20.654  18.038  -8.124  0.00  0.00    +0.013 A 
BRANCH  18  19
ATOM     19  C   UNL     1     -23.141  15.225  -7.151  0.00  0.00    +0.119 C 
BRANCH  19  20
ATOM     20  N   UNL     1     -24.453  15.791  -7.584  0.00  0.00    -0.302 NA
ATOM     21  C   UNL     1     -25.023  16.772  -6.555  0.00  0.00    +0.066 C 
ATOM     22  C   UNL     1     -26.385  17.372  -7.035  0.00  0.00    -0.064 C 
ATOM     23  N   UNL     1     -27.373  16.236  -7.306  0.00  0.00    +0.379 N 
ATOM     24  C   UNL     1     -28.672  16.800  -7.701  0.00  0.00    -0.096 C 
ATOM     25  H   UNL     1     -27.521  15.682  -6.350  0.00  0.00    -0.082 HD
ATOM     26  C   UNL     1     -26.813  15.255  -8.326  0.00  0.00    -0.064 C 
ATOM     27  C   UNL     1     -25.445  14.687  -7.853  0.00  0.00    +0.066 C 
ENDBRANCH  19  20
ENDBRANCH  18  19
ENDBRANCH  14  15
ENDBRANCH  12  13
TORSDOF 6
ENDMDL
MODEL 4
REMARK VINA RESULT:      -7.9      2.189     11.782
REMARK  Name = C:\Users\Docking\Desktop\test protocol\1iep_ligandH.pdb
REMARK  8 active torsions:
REMARK  status: ('A' for Active; 'I' for Inactive)
REMARK    1  A    between atoms: _5  and  _11
REMARK    2  A    between atoms: _19  and  _21
REMARK    3  A    between atoms: _22  and  _66
REMARK    4  A    between atoms: _27  and  _30
REMARK    5  A    between atoms: _32  and  _33
REMARK    6  A    between atoms: _38  and  _43
REMARK    7  A    between atoms: _43  and  _46
REMARK    8  A    between atoms: _53  and  _55
REMARK                            x       y       z     vdW  Elec       q    Type
REMARK                         _______ _______ _______ _____ _____    ______ ____
ROOT
ATOM     10  C   UNL     1     -16.805  20.746  -8.704  0.00  0.00    +0.038 A 
ATOM     11  C   UNL     1     -15.612  20.365  -8.038  0.00  0.00    +0.047 A 
ATOM     12  C   UNL     1     -14.328  20.943  -8.403  0.00  0.00    +0.035 A 
ATOM     32  C   UNL     1     -14.296  21.909  -9.451  0.00  0.00    +0.024 A 
ATOM     33  C   UNL     1     -15.499  22.307 -10.140  0.00  0.00    +0.007 A 
ATOM     34  C   UNL     1     -16.768  21.738  -9.785  0.00  0.00    -0.029 A 
ATOM     35  C   UNL     1     -18.024  22.197 -10.562  0.00  0.00    +0.045 C 
ENDROOT
BRANCH  10   9
ATOM      4  C   UNL     1     -19.746  16.972  -8.319  0.00  0.00    +0.077 A 
ATOM      5  C   UNL     1     -18.814  16.103  -8.978  0.00  0.00    +0.048 A 
ATOM      6  C   UNL     1     -17.592  16.668  -9.407  0.00  0.00    +0.116 A 
ATOM      7  N   UNL     1     -17.332  18.004  -9.188  0.00  0.00    -0.223 NA
ATOM      8  C   UNL     1     -18.254  18.814  -8.551  0.00  0.00    +0.220 A 
ATOM      9  N   UNL     1     -18.010  20.158  -8.313  0.00  0.00    -0.283 N 
ATOM     36  H   UNL     1     -18.718  20.724  -7.846  0.00  0.00    +0.155 HD
ATOM     37  N   UNL     1     -19.428  18.299  -8.133  0.00  0.00    -0.214 NA
BRANCH   4   3
ATOM      1  C   UNL     1     -23.482  16.937  -7.161  0.00  0.00    +0.020 A 
ATOM      2  C   UNL     1     -22.217  17.422  -7.662  0.00  0.00    +0.013 A 
ATOM      3  C   UNL     1     -21.078  16.523  -7.805  0.00  0.00    +0.019 A 
ATOM     38  C   UNL     1     -21.255  15.128  -7.430  0.00  0.00    +0.120 A 
ATOM     39  N   UNL     1     -22.485  14.690  -6.949  0.00  0.00    -0.263 NA
ATOM     40  C   UNL     1     -23.587  15.546  -6.806  0.00  0.00    +0.111 A 
ENDBRANCH   4   3
ENDBRANCH  10   9
BRANCH  12  13
ATOM     13  N   UNL     1     -13.083  20.590  -7.768  0.00  0.00    -0.281 N 
ATOM     14  C   UNL     1     -12.474  21.206  -6.686  0.00  0.00    +0.248 C 
ATOM     30  O   UNL     1     -12.804  22.292  -6.234  0.00  0.00    -0.270 OA
ATOM     31  H   UNL     1     -12.591  19.789  -8.163  0.00  0.00    +0.155 HD
BRANCH  14  15
ATOM     15  C   UNL     1     -11.323  20.523  -6.021  0.00  0.00    +0.037 A 
ATOM     16  C   UNL     1      -9.963  21.058  -6.119  0.00  0.00    +0.013 A 
ATOM     17  C   UNL     1      -8.867  20.371  -5.482  0.00  0.00    +0.005 A 
ATOM     18  C   UNL     1      -9.129  19.140  -4.740  0.00  0.00    -0.033 A 
ATOM     28  C   UNL     1     -10.489  18.635  -4.654  0.00  0.00    +0.005 A 
ATOM     29  C   UNL     1     -11.565  19.305  -5.278  0.00  0.00    +0.013 A 
BRANCH  18  19
ATOM     19  C   UNL     1      -8.018  18.330  -4.046  0.00  0.00    +0.119 C 
BRANCH  19  20
ATOM     20  N   UNL     1      -8.437  17.359  -2.991  0.00  0.00    -0.302 NA
ATOM     21  C   UNL     1      -7.413  17.267  -1.856  0.00  0.00    +0.066 C 
ATOM     22  C   UNL     1      -7.878  16.264  -0.751  0.00  0.00    -0.064 C 
ATOM     23  N   UNL     1      -8.114  14.890  -1.379  0.00  0.00    +0.379 N 
ATOM     24  C   UNL     1      -8.495  13.931  -0.332  0.00  0.00    -0.096 C 
ATOM     25  H   UNL     1      -7.148  14.548  -1.816  0.00  0.00    -0.082 HD
ATOM     26  C   UNL     1      -9.129  14.973  -2.511  0.00  0.00    -0.064 C 
ATOM     27  C   UNL     1      -8.672  15.994  -3.590  0.00  0.00    +0.066 C 
ENDBRANCH  19  20
ENDBRANCH  18  19
ENDBRANCH  14  15
ENDBRANCH  12  13
TORSDOF 6
ENDMDL
MODEL 5
REMARK VINA RESULT:      -7.9      9.161     13.418
REMARK  Name = C:\Users\Docking\Desktop\test protocol\1iep_ligandH.pdb
REMARK  8 active torsions:
REMARK  status: ('A' for Active; 'I' for Inactive)
REMARK    1  A    between atoms: _5  and  _11
REMARK    2  A    between atoms: _19  and  _21
REMARK    3  A    between atoms: _22  and  _66
REMARK    4  A    between atoms: _27  and  _30
REMARK    5  A    between atoms: _32  and  _33
REMARK    6  A    between atoms: _38  and  _43
REMARK    7  A    between atoms: _43  and  _46
REMARK    8  A    between atoms: _53  and  _55
REMARK                            x       y       z     vdW  Elec       q    Type
REMARK                         _______ _______ _______ _____ _____    ______ ____
ROOT
ATOM     10  C   UNL     1     -19.297  18.335  -8.426  0.00  0.00    +0.038 A 
ATOM     11  C   UNL     1     -20.679  18.136  -8.180  0.00  0.00    +0.047 A 
ATOM     12  C   UNL     1     -21.248  16.798  -8.120  0.00  0.00    +0.035 A 
ATOM     32  C   UNL     1     -20.378  15.685  -8.312  0.00  0.00    +0.024 A 
ATOM     33  C   UNL     1     -18.970  15.870  -8.564  0.00  0.00    +0.007 A 
ATOM     34  C   UNL     1     -18.404  17.187  -8.627  0.00  0.00    -0.029 A 
ATOM     35  C   UNL     1     -16.890  17.326  -8.907  0.00  0.00    +0.045 C 
ENDROOT
BRANCH  10   9
ATOM      4  C   UNL     1     -17.985  22.280 -10.825  0.00  0.00    +0.077 A 
ATOM      5  C   UNL     1     -18.280  21.678 -12.094  0.00  0.00    +0.048 A 
ATOM      6  C   UNL     1     -18.761  20.350 -12.085  0.00  0.00    +0.116 A 
ATOM      7  N   UNL     1     -18.930  19.682 -10.892  0.00  0.00    -0.223 NA
ATOM      8  C   UNL     1     -18.634  20.291  -9.686  0.00  0.00    +0.220 A 
ATOM      9  N   UNL     1     -18.805  19.642  -8.473  0.00  0.00    -0.283 N 
ATOM     36  H   UNL     1     -18.568  20.123  -7.606  0.00  0.00    +0.155 HD
ATOM     37  N   UNL     1     -18.173  21.559  -9.667  0.00  0.00    -0.214 NA
BRANCH   4   3
ATOM      1  C   UNL     1     -17.408  26.119 -11.302  0.00  0.00    +0.020 A 
ATOM      2  C   UNL     1     -17.935  24.788 -11.494  0.00  0.00    +0.013 A 
ATOM      3  C   UNL     1     -17.473  23.678 -10.669  0.00  0.00    +0.019 A 
ATOM     38  C   UNL     1     -16.471  23.952  -9.650  0.00  0.00    +0.120 A 
ATOM     39  N   UNL     1     -15.981  25.245  -9.490  0.00  0.00    -0.263 NA
ATOM     40  C   UNL     1     -16.417  26.320 -10.279  0.00  0.00    +0.111 A 
ENDBRANCH   4   3
ENDBRANCH  10   9
BRANCH  12  13
ATOM     13  N   UNL     1     -22.645  16.534  -7.881  0.00  0.00    -0.281 N 
ATOM     14  C   UNL     1     -23.263  16.241  -6.677  0.00  0.00    +0.248 C 
ATOM     30  O   UNL     1     -22.670  15.950  -5.649  0.00  0.00    -0.270 OA
ATOM     31  H   UNL     1     -23.252  16.567  -8.700  0.00  0.00    +0.155 HD
BRANCH  14  15
ATOM     15  C   UNL     1     -24.756  16.260  -6.608  0.00  0.00    +0.037 A 
ATOM     16  C   UNL     1     -25.501  15.171  -5.971  0.00  0.00    +0.013 A 
ATOM     17  C   UNL     1     -26.942  15.206  -5.933  0.00  0.00    +0.005 A 
ATOM     18  C   UNL     1     -27.647  16.336  -6.533  0.00  0.00    -0.033 A 
ATOM     28  C   UNL     1     -26.882  17.406  -7.154  0.00  0.00    +0.005 A 
ATOM     29  C   UNL     1     -25.470  17.374  -7.194  0.00  0.00    +0.013 A 
BRANCH  18  19
ATOM     19  C   UNL     1     -29.183  16.447  -6.558  0.00  0.00    +0.119 C 
BRANCH  19  20
ATOM     20  N   UNL     1     -29.872  16.114  -7.840  0.00  0.00    -0.302 NA
ATOM     21  C   UNL     1     -29.104  15.065  -8.649  0.00  0.00    +0.066 C 
ATOM     22  C   UNL     1     -29.851  14.713  -9.977  0.00  0.00    -0.064 C 
ATOM     23  N   UNL     1     -30.054  15.987 -10.798  0.00  0.00    +0.379 N 
ATOM     24  C   UNL     1     -30.704  15.651 -12.073  0.00  0.00    -0.096 C 
ATOM     25  H   UNL     1     -29.047  16.404 -11.031  0.00  0.00    -0.082 HD
ATOM     26  C   UNL     1     -30.814  17.037 -10.000  0.00  0.00    -0.064 C 
ATOM     27  C   UNL     1     -30.079  17.358  -8.669  0.00  0.00    +0.066 C 
ENDBRANCH  19  20
ENDBRANCH  18  19
ENDBRANCH  14  15
ENDBRANCH  12  13
TORSDOF 6
ENDMDL
