MODEL 1
REMARK VINA RESULT:      -8.3      0.000      0.000
REMARK  Name = C:\Users\Docking\Desktop\test protocol\1iep_ligandH.pdb
REMARK  8 active torsions:
REMARK  status: ('A' for Active; 'I' for Inactive)
REMARK    1  A    between atoms: _5  and  _11
REMARK    2  A    between atoms: _19  and  _21
REMARK    3  A    between atoms: _22  and  _66
REMARK    4  A    between atoms: _27  and  _30
REMARK    5  A    between atoms: _32  and  _33
REMARK    6  A    between atoms: _38  and  _43
REMARK    7  A    between atoms: _43  and  _46
REMARK    8  A    between atoms: _53  and  _55
REMARK                            x       y       z     vdW  Elec       q    Type
REMARK                         _______ _______ _______ _____ _____    ______ ____
ROOT
ATOM     10  C   UNL     1      90.117   0.316  -4.841  0.00  0.00    +0.038 A 
ATOM     11  C   UNL     1      90.552   0.433  -3.496  0.00  0.00    +0.047 A 
ATOM     12  C   UNL     1      91.629   1.339  -3.129  0.00  0.00    +0.035 A 
ATOM     32  C   UNL     1      92.239   2.115  -4.158  0.00  0.00    +0.024 A 
ATOM     33  C   UNL     1      91.810   2.008  -5.530  0.00  0.00    +0.007 A 
ATOM     34  C   UNL     1      90.750   1.113  -5.898  0.00  0.00    -0.029 A 
ATOM     35  C   UNL     1      90.335   1.035  -7.386  0.00  0.00    +0.045 C 
ENDROOT
BRANCH  10   9
ATOM      4  C   UNL     1      85.468  -0.700  -5.465  0.00  0.00    +0.077 A 
ATOM      5  C   UNL     1      85.071   0.642  -5.149  0.00  0.00    +0.048 A 
ATOM      6  C   UNL     1      86.094   1.561  -4.824  0.00  0.00    +0.116 A 
ATOM      7  N   UNL     1      87.412   1.158  -4.820  0.00  0.00    -0.223 NA
ATOM      8  C   UNL     1      87.760  -0.145  -5.127  0.00  0.00    +0.220 A 
ATOM      9  N   UNL     1      89.079  -0.571  -5.136  0.00  0.00    -0.283 N 
ATOM     36  H   UNL     1      89.294  -1.542  -5.361  0.00  0.00    +0.155 HD
ATOM     37  N   UNL     1      86.802  -1.042  -5.439  0.00  0.00    -0.214 NA
BRANCH   4   3
ATOM      1  C   UNL     1      83.829  -4.210  -6.009  0.00  0.00    +0.020 A 
ATOM      2  C   UNL     1      84.795  -3.201  -5.639  0.00  0.00    +0.013 A 
ATOM      3  C   UNL     1      84.504  -1.786  -5.831  0.00  0.00    +0.019 A 
ATOM     38  C   UNL     1      83.217  -1.422  -6.403  0.00  0.00    +0.120 A 
ATOM     39  N   UNL     1      82.307  -2.415  -6.751  0.00  0.00    -0.263 NA
ATOM     40  C   UNL     1      82.576  -3.780  -6.573  0.00  0.00    +0.111 A 
ENDBRANCH   4   3
ENDBRANCH  10   9
BRANCH  12  13
ATOM     13  N   UNL     1      92.119   1.494  -1.782  0.00  0.00    -0.281 N 
ATOM     14  C   UNL     1      92.428   0.500  -0.869  0.00  0.00    +0.248 C 
ATOM     30  O   UNL     1      92.127  -0.677  -1.000  0.00  0.00    -0.270 OA
ATOM     31  H   UNL     1      92.254   2.454  -1.463  0.00  0.00    +0.155 HD
BRANCH  14  15
ATOM     15  C   UNL     1      93.167   0.868   0.377  0.00  0.00    +0.037 A 
ATOM     16  C   UNL     1      92.455   1.290   1.586  0.00  0.00    +0.013 A 
ATOM     17  C   UNL     1      93.193   1.656   2.769  0.00  0.00    +0.005 A 
ATOM     18  C   UNL     1      94.653   1.600   2.749  0.00  0.00    -0.033 A 
ATOM     28  C   UNL     1      95.333   1.173   1.538  0.00  0.00    +0.005 A 
ATOM     29  C   UNL     1      94.614   0.815   0.376  0.00  0.00    +0.013 A 
BRANCH  18  19
ATOM     19  C   UNL     1      95.522   1.993   3.958  0.00  0.00    +0.119 C 
BRANCH  19  20
ATOM     20  N   UNL     1      95.739   0.956   5.010  0.00  0.00    -0.302 NA
ATOM     21  C   UNL     1      96.496  -0.261   4.470  0.00  0.00    +0.066 C 
ATOM     22  C   UNL     1      96.734  -1.326   5.589  0.00  0.00    -0.064 C 
ATOM     23  N   UNL     1      95.389  -1.746   6.184  0.00  0.00    +0.379 N 
ATOM     24  C   UNL     1      95.605  -2.790   7.197  0.00  0.00    -0.096 C 
ATOM     25  H   UNL     1      94.780  -2.191   5.363  0.00  0.00    -0.082 HD
ATOM     26  C   UNL     1      94.629  -0.542   6.722  0.00  0.00    -0.064 C 
ATOM     27  C   UNL     1      94.423   0.524   5.609  0.00  0.00    +0.066 C 
ENDBRANCH  19  20
ENDBRANCH  18  19
ENDBRANCH  14  15
ENDBRANCH  12  13
TORSDOF 6
ENDMDL
MODEL 2
REMARK VINA RESULT:      -7.9      7.207      9.973
REMARK  Name = C:\Users\Docking\Desktop\test protocol\1iep_ligandH.pdb
REMARK  8 active torsions:
REMARK  status: ('A' for Active; 'I' for Inactive)
REMARK    1  A    between atoms: _5  and  _11
REMARK    2  A    between atoms: _19  and  _21
REMARK    3  A    between atoms: _22  and  _66
REMARK    4  A    between atoms: _27  and  _30
REMARK    5  A    between atoms: _32  and  _33
REMARK    6  A    between atoms: _38  and  _43
REMARK    7  A    between atoms: _43  and  _46
REMARK    8  A    between atoms: _53  and  _55
REMARK                            x       y       z     vdW  Elec       q    Type
REMARK                         _______ _______ _______ _____ _____    ______ ____
ROOT
ATOM     10  C   UNL     1      97.885  -1.662  -5.434  0.00  0.00    +0.038 A 
ATOM     11  C   UNL     1      97.288  -1.190  -4.237  0.00  0.00    +0.047 A 
ATOM     12  C   UNL     1      96.302  -0.121  -4.259  0.00  0.00    +0.035 A 
ATOM     32  C   UNL     1      95.945   0.443  -5.519  0.00  0.00    +0.024 A 
ATOM     33  C   UNL     1      96.543  -0.024  -6.745  0.00  0.00    +0.007 A 
ATOM     34  C   UNL     1      97.518  -1.076  -6.729  0.00  0.00    -0.029 A 
ATOM     35  C   UNL     1      98.132  -1.532  -8.073  0.00  0.00    +0.045 C 
ENDROOT
BRANCH  10   9
ATOM      4  C   UNL     1      99.087  -6.309  -5.438  0.00  0.00    +0.077 A 
ATOM      5  C   UNL     1      97.721  -6.723  -5.585  0.00  0.00    +0.048 A 
ATOM      6  C   UNL     1      96.739  -5.709  -5.648  0.00  0.00    +0.116 A 
ATOM      7  N   UNL     1      97.107  -4.383  -5.570  0.00  0.00    -0.223 NA
ATOM      8  C   UNL     1      98.433  -4.018  -5.427  0.00  0.00    +0.220 A 
ATOM      9  N   UNL     1      98.826  -2.691  -5.354  0.00  0.00    -0.283 N 
ATOM     36  H   UNL     1      99.814  -2.463  -5.242  0.00  0.00    +0.155 HD
ATOM     37  N   UNL     1      99.390  -4.968  -5.363  0.00  0.00    -0.214 NA
BRANCH   4   3
ATOM      1  C   UNL     1     102.677  -7.798  -4.998  0.00  0.00    +0.020 A 
ATOM      2  C   UNL     1     101.601  -6.836  -5.062  0.00  0.00    +0.013 A 
ATOM      3  C   UNL     1     100.239  -7.262  -5.360  0.00  0.00    +0.019 A 
ATOM     38  C   UNL     1      99.998  -8.679  -5.589  0.00  0.00    +0.120 A 
ATOM     39  N   UNL     1     101.055  -9.581  -5.522  0.00  0.00    -0.263 NA
ATOM     40  C   UNL     1     102.370  -9.183  -5.238  0.00  0.00    +0.111 A 
ENDBRANCH   4   3
ENDBRANCH  10   9
BRANCH  12  13
ATOM     13  N   UNL     1      95.667   0.404  -3.076  0.00  0.00    -0.281 N 
ATOM     14  C   UNL     1      94.489  -0.018  -2.482  0.00  0.00    +0.248 C 
ATOM     30  O   UNL     1      93.686  -0.777  -3.003  0.00  0.00    -0.270 OA
ATOM     31  H   UNL     1      96.145   1.182  -2.620  0.00  0.00    +0.155 HD
BRANCH  14  15
ATOM     15  C   UNL     1      94.146   0.488  -1.118  0.00  0.00    +0.037 A 
ATOM     16  C   UNL     1      95.187   0.936  -0.190  0.00  0.00    +0.013 A 
ATOM     17  C   UNL     1      94.830   1.403   1.126  0.00  0.00    +0.005 A 
ATOM     18  C   UNL     1      93.424   1.426   1.521  0.00  0.00    -0.033 A 
ATOM     28  C   UNL     1      92.411   0.981   0.579  0.00  0.00    +0.005 A 
ATOM     29  C   UNL     1      92.757   0.521  -0.712  0.00  0.00    +0.013 A 
BRANCH  18  19
ATOM     19  C   UNL     1      92.953   1.889   2.913  0.00  0.00    +0.119 C 
BRANCH  19  20
ATOM     20  N   UNL     1      93.701   1.368   4.096  0.00  0.00    -0.302 NA
ATOM     21  C   UNL     1      92.761   0.818   5.173  0.00  0.00    +0.066 C 
ATOM     22  C   UNL     1      93.561   0.256   6.393  0.00  0.00    -0.064 C 
ATOM     23  N   UNL     1      94.454   1.358   6.965  0.00  0.00    +0.379 N 
ATOM     24  C   UNL     1      95.164   0.850   8.148  0.00  0.00    -0.096 C 
ATOM     25  H   UNL     1      93.791   2.190   7.299  0.00  0.00    -0.082 HD
ATOM     26  C   UNL     1      95.390   1.913   5.900  0.00  0.00    -0.064 C 
ATOM     27  C   UNL     1      94.586   2.441   4.679  0.00  0.00    +0.066 C 
ENDBRANCH  19  20
ENDBRANCH  18  19
ENDBRANCH  14  15
ENDBRANCH  12  13
TORSDOF 6
ENDMDL
MODEL 3
REMARK VINA RESULT:      -7.7      4.438     12.426
REMARK  Name = C:\Users\Docking\Desktop\test protocol\1iep_ligandH.pdb
REMARK  8 active torsions:
REMARK  status: ('A' for Active; 'I' for Inactive)
REMARK    1  A    between atoms: _5  and  _11
REMARK    2  A    between atoms: _19  and  _21
REMARK    3  A    between atoms: _22  and  _66
REMARK    4  A    between atoms: _27  and  _30
REMARK    5  A    between atoms: _32  and  _33
REMARK    6  A    between atoms: _38  and  _43
REMARK    7  A    between atoms: _43  and  _46
REMARK    8  A    between atoms: _53  and  _55
REMARK                            x       y       z     vdW  Elec       q    Type
REMARK                         _______ _______ _______ _____ _____    ______ ____
ROOT
ATOM     10  C   UNL     1      93.467  -0.059  -2.863  0.00  0.00    +0.038 A 
ATOM     11  C   UNL     1      92.182   0.033  -3.455  0.00  0.00    +0.047 A 
ATOM     12  C   UNL     1      91.087   0.710  -2.777  0.00  0.00    +0.035 A 
ATOM     32  C   UNL     1      91.338   1.285  -1.497  0.00  0.00    +0.024 A 
ATOM     33  C   UNL     1      92.638   1.200  -0.880  0.00  0.00    +0.007 A 
ATOM     34  C   UNL     1      93.721   0.531  -1.543  0.00  0.00    -0.029 A 
ATOM     35  C   UNL     1      95.092   0.465  -0.831  0.00  0.00    +0.045 C 
ENDROOT
BRANCH  10   9
ATOM      4  C   UNL     1      97.322  -0.075  -5.723  0.00  0.00    +0.077 A 
ATOM      5  C   UNL     1      97.296   1.352  -5.865  0.00  0.00    +0.048 A 
ATOM      6  C   UNL     1      96.270   2.053  -5.192  0.00  0.00    +0.116 A 
ATOM      7  N   UNL     1      95.345   1.367  -4.435  0.00  0.00    -0.223 NA
ATOM      8  C   UNL     1      95.397  -0.010  -4.320  0.00  0.00    +0.220 A 
ATOM      9  N   UNL     1      94.482  -0.720  -3.558  0.00  0.00    -0.283 N 
ATOM     36  H   UNL     1      94.550  -1.736  -3.505  0.00  0.00    +0.155 HD
ATOM     37  N   UNL     1      96.366  -0.703  -4.955  0.00  0.00    -0.214 NA
BRANCH   4   3
ATOM      1  C   UNL     1      99.429  -3.196  -6.783  0.00  0.00    +0.020 A 
ATOM      2  C   UNL     1      98.421  -2.391  -6.132  0.00  0.00    +0.013 A 
ATOM      3  C   UNL     1      98.346  -0.955  -6.370  0.00  0.00    +0.019 A 
ATOM     38  C   UNL     1      99.312  -0.360  -7.281  0.00  0.00    +0.120 A 
ATOM     39  N   UNL     1     100.272  -1.160  -7.893  0.00  0.00    -0.263 NA
ATOM     40  C   UNL     1     100.356  -2.542  -7.669  0.00  0.00    +0.111 A 
ENDBRANCH   4   3
ENDBRANCH  10   9
BRANCH  12  13
ATOM     13  N   UNL     1      89.759   0.827  -3.326  0.00  0.00    -0.281 N 
ATOM     14  C   UNL     1      89.180   1.934  -3.925  0.00  0.00    +0.248 C 
ATOM     30  O   UNL     1      89.647   3.063  -3.889  0.00  0.00    -0.270 OA
ATOM     31  H   UNL     1      89.175  -0.006  -3.264  0.00  0.00    +0.155 HD
BRANCH  14  15
ATOM     15  C   UNL     1      87.889   1.765  -4.659  0.00  0.00    +0.037 A 
ATOM     16  C   UNL     1      87.860   1.309  -6.051  0.00  0.00    +0.013 A 
ATOM     17  C   UNL     1      86.602   1.171  -6.741  0.00  0.00    +0.005 A 
ATOM     18  C   UNL     1      85.362   1.487  -6.038  0.00  0.00    -0.033 A 
ATOM     28  C   UNL     1      85.419   1.932  -4.656  0.00  0.00    +0.005 A 
ATOM     29  C   UNL     1      86.650   2.070  -3.976  0.00  0.00    +0.013 A 
BRANCH  18  19
ATOM     19  C   UNL     1      83.975   1.389  -6.702  0.00  0.00    +0.119 C 
BRANCH  19  20
ATOM     20  N   UNL     1      83.548   0.046  -7.197  0.00  0.00    -0.302 NA
ATOM     21  C   UNL     1      82.170   0.091  -7.863  0.00  0.00    +0.066 C 
ATOM     22  C   UNL     1      81.749  -1.318  -8.395  0.00  0.00    -0.064 C 
ATOM     23  N   UNL     1      81.760  -2.320  -7.239  0.00  0.00    +0.379 N 
ATOM     24  C   UNL     1      81.308  -3.633  -7.724  0.00  0.00    -0.096 C 
ATOM     25  H   UNL     1      81.024  -1.969  -6.479  0.00  0.00    -0.082 HD
ATOM     26  C   UNL     1      83.126  -2.369  -6.570  0.00  0.00    -0.064 C 
ATOM     27  C   UNL     1      83.548  -0.959  -6.071  0.00  0.00    +0.066 C 
ENDBRANCH  19  20
ENDBRANCH  18  19
ENDBRANCH  14  15
ENDBRANCH  12  13
TORSDOF 6
ENDMDL
MODEL 4
REMARK VINA RESULT:      -7.7      7.676     10.760
REMARK  Name = C:\Users\Docking\Desktop\test protocol\1iep_ligandH.pdb
REMARK  8 active torsions:
REMARK  status: ('A' for Active; 'I' for Inactive)
REMARK    1  A    between atoms: _5  and  _11
REMARK    2  A    between atoms: _19  and  _21
REMARK    3  A    between atoms: _22  and  _66
REMARK    4  A    between atoms: _27  and  _30
REMARK    5  A    between atoms: _32  and  _33
REMARK    6  A    between atoms: _38  and  _43
REMARK    7  A    between atoms: _43  and  _46
REMARK    8  A    between atoms: _53  and  _55
REMARK                            x       y       z     vdW  Elec       q    Type
REMARK                         _______ _______ _______ _____ _____    ______ ____
ROOT
ATOM     10  C   UNL     1      98.473  -1.735  -5.563  0.00  0.00    +0.038 A 
ATOM     11  C   UNL     1      97.670  -1.325  -4.468  0.00  0.00    +0.047 A 
ATOM     12  C   UNL     1      96.754  -0.201  -4.585  0.00  0.00    +0.035 A 
ATOM     32  C   UNL     1      96.680   0.482  -5.833  0.00  0.00    +0.024 A 
ATOM     33  C   UNL     1      97.489   0.080  -6.957  0.00  0.00    +0.007 A 
ATOM     34  C   UNL     1      98.396  -1.027  -6.846  0.00  0.00    -0.029 A 
ATOM     35  C   UNL     1      99.244  -1.410  -8.081  0.00  0.00    +0.045 C 
ENDROOT
BRANCH  10   9
ATOM      4  C   UNL     1      99.365  -6.449  -5.428  0.00  0.00    +0.077 A 
ATOM      5  C   UNL     1      97.992  -6.776  -5.687  0.00  0.00    +0.048 A 
ATOM      6  C   UNL     1      97.087  -5.702  -5.842  0.00  0.00    +0.116 A 
ATOM      7  N   UNL     1      97.533  -4.402  -5.743  0.00  0.00    -0.223 NA
ATOM      8  C   UNL     1      98.863  -4.121  -5.490  0.00  0.00    +0.220 A 
ATOM      9  N   UNL     1      99.335  -2.821  -5.395  0.00  0.00    -0.283 N 
ATOM     36  H   UNL     1     100.322  -2.656  -5.200  0.00  0.00    +0.155 HD
ATOM     37  N   UNL     1      99.747  -5.129  -5.337  0.00  0.00    -0.214 NA
BRANCH   4   3
ATOM      1  C   UNL     1     102.826  -8.151  -4.779  0.00  0.00    +0.020 A 
ATOM      2  C   UNL     1     101.825  -7.124  -4.948  0.00  0.00    +0.013 A 
ATOM      3  C   UNL     1     100.441  -7.473  -5.243  0.00  0.00    +0.019 A 
ATOM     38  C   UNL     1     100.101  -8.883  -5.362  0.00  0.00    +0.120 A 
ATOM     39  N   UNL     1     101.086  -9.851  -5.195  0.00  0.00    -0.263 NA
ATOM     40  C   UNL     1     102.422  -9.526  -4.912  0.00  0.00    +0.111 A 
ENDBRANCH   4   3
ENDBRANCH  10   9
BRANCH  12  13
ATOM     13  N   UNL     1      95.920   0.265  -3.505  0.00  0.00    -0.281 N 
ATOM     14  C   UNL     1      94.748  -0.300  -3.029  0.00  0.00    +0.248 C 
ATOM     30  O   UNL     1      94.122  -1.178  -3.602  0.00  0.00    -0.270 OA
ATOM     31  H   UNL     1      96.232   1.115  -3.034  0.00  0.00    +0.155 HD
BRANCH  14  15
ATOM     15  C   UNL     1      94.183   0.193  -1.736  0.00  0.00    +0.037 A 
ATOM     16  C   UNL     1      95.047   0.746  -0.690  0.00  0.00    +0.013 A 
ATOM     17  C   UNL     1      94.477   1.199   0.554  0.00  0.00    +0.005 A 
ATOM     18  C   UNL     1      93.034   1.100   0.759  0.00  0.00    -0.033 A 
ATOM     28  C   UNL     1      92.199   0.552  -0.298  0.00  0.00    +0.005 A 
ATOM     29  C   UNL     1      92.754   0.107  -1.518  0.00  0.00    +0.013 A 
BRANCH  18  19
ATOM     19  C   UNL     1      92.342   1.539   2.063  0.00  0.00    +0.119 C 
BRANCH  19  20
ATOM     20  N   UNL     1      91.696   2.885   2.075  0.00  0.00    -0.302 NA
ATOM     21  C   UNL     1      92.283   3.794   3.159  0.00  0.00    +0.066 C 
ATOM     22  C   UNL     1      91.611   5.206   3.143  0.00  0.00    -0.064 C 
ATOM     23  N   UNL     1      90.100   5.051   3.325  0.00  0.00    +0.379 N 
ATOM     24  C   UNL     1      89.473   6.380   3.368  0.00  0.00    -0.096 C 
ATOM     25  H   UNL     1      89.928   4.563   4.312  0.00  0.00    -0.082 HD
ATOM     26  C   UNL     1      89.509   4.147   2.253  0.00  0.00    -0.064 C 
ATOM     27  C   UNL     1      90.204   2.756   2.259  0.00  0.00    +0.066 C 
ENDBRANCH  19  20
ENDBRANCH  18  19
ENDBRANCH  14  15
ENDBRANCH  12  13
TORSDOF 6
ENDMDL
MODEL 5
REMARK VINA RESULT:      -7.6     13.305     18.783
REMARK  Name = C:\Users\Docking\Desktop\test protocol\1iep_ligandH.pdb
REMARK  8 active torsions:
REMARK  status: ('A' for Active; 'I' for Inactive)
REMARK    1  A    between atoms: _5  and  _11
REMARK    2  A    between atoms: _19  and  _21
REMARK    3  A    between atoms: _22  and  _66
REMARK    4  A    between atoms: _27  and  _30
REMARK    5  A    between atoms: _32  and  _33
REMARK    6  A    between atoms: _38  and  _43
REMARK    7  A    between atoms: _43  and  _46
REMARK    8  A    between atoms: _53  and  _55
REMARK                            x       y       z     vdW  Elec       q    Type
REMARK                         _______ _______ _______ _____ _____    ______ ____
ROOT
ATOM     10  C   UNL     1     102.103  -2.774  -9.984  0.00  0.00    +0.038 A 
ATOM     11  C   UNL     1     101.648  -2.891 -11.322  0.00  0.00    +0.047 A 
ATOM     12  C   UNL     1     102.356  -2.247 -12.417  0.00  0.00    +0.035 A 
ATOM     32  C   UNL     1     103.527  -1.493 -12.113  0.00  0.00    +0.024 A 
ATOM     33  C   UNL     1     104.004  -1.363 -10.759  0.00  0.00    +0.007 A 
ATOM     34  C   UNL     1     103.307  -1.994  -9.674  0.00  0.00    -0.029 A 
ATOM     35  C   UNL     1     103.860  -1.815  -8.241  0.00  0.00    +0.045 C 
ENDROOT
BRANCH  10   9
ATOM      4  C   UNL     1      98.986  -2.736  -6.334  0.00  0.00    +0.077 A 
ATOM      5  C   UNL     1      98.794  -1.318  -6.435  0.00  0.00    +0.048 A 
ATOM      6  C   UNL     1      99.522  -0.634  -7.436  0.00  0.00    +0.116 A 
ATOM      7  N   UNL     1     100.374  -1.328  -8.267  0.00  0.00    -0.223 NA
ATOM      8  C   UNL     1     100.538  -2.695  -8.141  0.00  0.00    +0.220 A 
ATOM      9  N   UNL     1     101.384  -3.413  -8.971  0.00  0.00    -0.283 N 
ATOM     36  H   UNL     1     101.483  -4.420  -8.841  0.00  0.00    +0.155 HD
ATOM     37  N   UNL     1      99.856  -3.370  -7.193  0.00  0.00    -0.214 NA
BRANCH   4   3
ATOM      1  C   UNL     1      97.820  -4.351  -2.968  0.00  0.00    +0.020 A 
ATOM      2  C   UNL     1      98.523  -3.495  -3.895  0.00  0.00    +0.013 A 
ATOM      3  C   UNL     1      98.286  -3.598  -5.330  0.00  0.00    +0.019 A 
ATOM     38  C   UNL     1      97.325  -4.585  -5.797  0.00  0.00    +0.120 A 
ATOM     39  N   UNL     1      96.664  -5.397  -4.880  0.00  0.00    -0.263 NA
ATOM     40  C   UNL     1      96.885  -5.308  -3.497  0.00  0.00    +0.111 A 
ENDBRANCH   4   3
ENDBRANCH  10   9
BRANCH  12  13
ATOM     13  N   UNL     1     101.937  -2.324 -13.794  0.00  0.00    -0.281 N 
ATOM     14  C   UNL     1     102.117  -3.373 -14.682  0.00  0.00    +0.248 C 
ATOM     30  O   UNL     1     102.858  -4.324 -14.487  0.00  0.00    -0.270 OA
ATOM     31  H   UNL     1     101.448  -1.507 -14.159  0.00  0.00    +0.155 HD
BRANCH  14  15
ATOM     15  C   UNL     1     101.377  -3.354 -15.980  0.00  0.00    +0.037 A 
ATOM     16  C   UNL     1     100.371  -4.371 -16.296  0.00  0.00    +0.013 A 
ATOM     17  C   UNL     1      99.684  -4.340 -17.563  0.00  0.00    +0.005 A 
ATOM     18  C   UNL     1     100.000  -3.286 -18.524  0.00  0.00    -0.033 A 
ATOM     28  C   UNL     1     100.999  -2.286 -18.182  0.00  0.00    +0.005 A 
ATOM     29  C   UNL     1     101.675  -2.314 -16.942  0.00  0.00    +0.013 A 
BRANCH  18  19
ATOM     19  C   UNL     1      99.332  -3.187 -19.908  0.00  0.00    +0.119 C 
BRANCH  19  20
ATOM     20  N   UNL     1      97.941  -3.715 -20.034  0.00  0.00    -0.302 NA
ATOM     21  C   UNL     1      97.915  -5.143 -20.586  0.00  0.00    +0.066 C 
ATOM     22  C   UNL     1      96.453  -5.687 -20.691  0.00  0.00    -0.064 C 
ATOM     23  N   UNL     1      95.626  -4.751 -21.573  0.00  0.00    +0.379 N 
ATOM     24  C   UNL     1      94.266  -5.290 -21.721  0.00  0.00    -0.096 C 
ATOM     25  H   UNL     1      96.096  -4.736 -22.584  0.00  0.00    -0.082 HD
ATOM     26  C   UNL     1      95.648  -3.328 -21.034  0.00  0.00    -0.064 C 
ATOM     27  C   UNL     1      97.107  -2.808 -20.906  0.00  0.00    +0.066 C 
ENDBRANCH  19  20
ENDBRANCH  18  19
ENDBRANCH  14  15
ENDBRANCH  12  13
TORSDOF 6
ENDMDL
