MODEL 1
REMARK VINA RESULT:      -7.9      0.000      0.000
REMARK  Name = C:\Users\Docking\Desktop\test protocol\1iep_ligandH.pdb
REMARK  8 active torsions:
REMARK  status: ('A' for Active; 'I' for Inactive)
REMARK    1  A    between atoms: _5  and  _11
REMARK    2  A    between atoms: _19  and  _21
REMARK    3  A    between atoms: _22  and  _66
REMARK    4  A    between atoms: _27  and  _30
REMARK    5  A    between atoms: _32  and  _33
REMARK    6  A    between atoms: _38  and  _43
REMARK    7  A    between atoms: _43  and  _46
REMARK    8  A    between atoms: _53  and  _55
REMARK                            x       y       z     vdW  Elec       q    Type
REMARK                         _______ _______ _______ _____ _____    ______ ____
ROOT
ATOM     10  C   UNL     1      31.937 -12.030  -0.697  0.00  0.00    +0.038 A 
ATOM     11  C   UNL     1      31.226 -13.245  -0.871  0.00  0.00    +0.047 A 
ATOM     12  C   UNL     1      31.757 -14.506  -0.376  0.00  0.00    +0.035 A 
ATOM     32  C   UNL     1      33.015 -14.492   0.293  0.00  0.00    +0.024 A 
ATOM     33  C   UNL     1      33.752 -13.267   0.478  0.00  0.00    +0.007 A 
ATOM     34  C   UNL     1      33.234 -12.021  -0.010  0.00  0.00    -0.029 A 
ATOM     35  C   UNL     1      34.071 -10.739   0.211  0.00  0.00    +0.045 C 
ENDROOT
BRANCH  10   9
ATOM      4  C   UNL     1      31.434  -8.693  -4.110  0.00  0.00    +0.077 A 
ATOM      5  C   UNL     1      32.380  -9.344  -4.969  0.00  0.00    +0.048 A 
ATOM      6  C   UNL     1      32.980 -10.532  -4.492  0.00  0.00    +0.116 A 
ATOM      7  N   UNL     1      32.649 -11.023  -3.248  0.00  0.00    -0.223 NA
ATOM      8  C   UNL     1      31.734 -10.369  -2.443  0.00  0.00    +0.220 A 
ATOM      9  N   UNL     1      31.380 -10.849  -1.192  0.00  0.00    -0.283 N 
ATOM     36  H   UNL     1      30.707 -10.334  -0.626  0.00  0.00    +0.155 HD
ATOM     37  N   UNL     1      31.148  -9.233  -2.875  0.00  0.00    -0.214 NA
BRANCH   4   3
ATOM      1  C   UNL     1      30.650  -4.964  -4.992  0.00  0.00    +0.020 A 
ATOM      2  C   UNL     1      31.392  -6.153  -4.639  0.00  0.00    +0.013 A 
ATOM      3  C   UNL     1      30.714  -7.432  -4.473  0.00  0.00    +0.019 A 
ATOM     38  C   UNL     1      29.273  -7.475  -4.673  0.00  0.00    +0.120 A 
ATOM     39  N   UNL     1      28.585  -6.314  -5.011  0.00  0.00    -0.263 NA
ATOM     40  C   UNL     1      29.226  -5.077  -5.172  0.00  0.00    +0.111 A 
ENDBRANCH   4   3
ENDBRANCH  10   9
BRANCH  12  13
ATOM     13  N   UNL     1      31.083 -15.771  -0.531  0.00  0.00    -0.281 N 
ATOM     14  C   UNL     1      30.011 -16.260   0.198  0.00  0.00    +0.248 C 
ATOM     30  O   UNL     1      29.602 -15.769   1.239  0.00  0.00    -0.270 OA
ATOM     31  H   UNL     1      31.441 -16.381  -1.266  0.00  0.00    +0.155 HD
BRANCH  14  15
ATOM     15  C   UNL     1      29.299 -17.478  -0.295  0.00  0.00    +0.037 A 
ATOM     16  C   UNL     1      29.417 -18.761   0.403  0.00  0.00    +0.013 A 
ATOM     17  C   UNL     1      28.733 -19.925  -0.103  0.00  0.00    +0.005 A 
ATOM     18  C   UNL     1      27.923 -19.810  -1.314  0.00  0.00    -0.033 A 
ATOM     28  C   UNL     1      27.819 -18.524  -1.983  0.00  0.00    +0.005 A 
ATOM     29  C   UNL     1      28.489 -17.381  -1.490  0.00  0.00    +0.013 A 
BRANCH  18  19
ATOM     19  C   UNL     1      27.176 -21.004  -1.937  0.00  0.00    +0.119 C 
BRANCH  19  20
ATOM     20  N   UNL     1      26.427 -21.902  -1.008  0.00  0.00    -0.302 NA
ATOM     21  C   UNL     1      26.847 -23.366  -1.161  0.00  0.00    +0.066 C 
ATOM     22  C   UNL     1      26.070 -24.289  -0.166  0.00  0.00    -0.064 C 
ATOM     23  N   UNL     1      24.566 -24.130  -0.396  0.00  0.00    +0.379 N 
ATOM     24  C   UNL     1      23.835 -25.039   0.498  0.00  0.00    -0.096 C 
ATOM     25  H   UNL     1      24.350 -24.440  -1.445  0.00  0.00    -0.082 HD
ATOM     26  C   UNL     1      24.141 -22.676  -0.248  0.00  0.00    -0.064 C 
ATOM     27  C   UNL     1      24.940 -21.764  -1.220  0.00  0.00    +0.066 C 
ENDBRANCH  19  20
ENDBRANCH  18  19
ENDBRANCH  14  15
ENDBRANCH  12  13
TORSDOF 6
ENDMDL
MODEL 2
REMARK VINA RESULT:      -7.9      1.951      2.666
REMARK  Name = C:\Users\Docking\Desktop\test protocol\1iep_ligandH.pdb
REMARK  8 active torsions:
REMARK  status: ('A' for Active; 'I' for Inactive)
REMARK    1  A    between atoms: _5  and  _11
REMARK    2  A    between atoms: _19  and  _21
REMARK    3  A    between atoms: _22  and  _66
REMARK    4  A    between atoms: _27  and  _30
REMARK    5  A    between atoms: _32  and  _33
REMARK    6  A    between atoms: _38  and  _43
REMARK    7  A    between atoms: _43  and  _46
REMARK    8  A    between atoms: _53  and  _55
REMARK                            x       y       z     vdW  Elec       q    Type
REMARK                         _______ _______ _______ _____ _____    ______ ____
ROOT
ATOM     10  C   UNL     1      31.804 -11.777  -0.727  0.00  0.00    +0.038 A 
ATOM     11  C   UNL     1      31.100 -12.967  -1.040  0.00  0.00    +0.047 A 
ATOM     12  C   UNL     1      31.563 -14.262  -0.567  0.00  0.00    +0.035 A 
ATOM     32  C   UNL     1      32.747 -14.308   0.226  0.00  0.00    +0.024 A 
ATOM     33  C   UNL     1      33.476 -13.107   0.553  0.00  0.00    +0.007 A 
ATOM     34  C   UNL     1      33.025 -11.827   0.086  0.00  0.00    -0.029 A 
ATOM     35  C   UNL     1      33.850 -10.574   0.462  0.00  0.00    +0.045 C 
ENDROOT
BRANCH  10   9
ATOM      4  C   UNL     1      31.420  -8.418  -4.135  0.00  0.00    +0.077 A 
ATOM      5  C   UNL     1      32.291  -9.135  -5.022  0.00  0.00    +0.048 A 
ATOM      6  C   UNL     1      32.822 -10.360  -4.560  0.00  0.00    +0.116 A 
ATOM      7  N   UNL     1      32.500 -10.825  -3.304  0.00  0.00    -0.223 NA
ATOM      8  C   UNL     1      31.658 -10.108  -2.473  0.00  0.00    +0.220 A 
ATOM      9  N   UNL     1      31.314 -10.560  -1.208  0.00  0.00    -0.283 N 
ATOM     36  H   UNL     1      30.697  -9.999  -0.622  0.00  0.00    +0.155 HD
ATOM     37  N   UNL     1      31.139  -8.934  -2.889  0.00  0.00    -0.214 NA
BRANCH   4   3
ATOM      1  C   UNL     1      30.830  -4.608  -4.796  0.00  0.00    +0.020 A 
ATOM      2  C   UNL     1      31.497  -5.843  -4.454  0.00  0.00    +0.013 A 
ATOM      3  C   UNL     1      30.778  -7.111  -4.479  0.00  0.00    +0.019 A 
ATOM     38  C   UNL     1      29.373  -7.094  -4.860  0.00  0.00    +0.120 A 
ATOM     39  N   UNL     1      28.757  -5.889  -5.183  0.00  0.00    -0.263 NA
ATOM     40  C   UNL     1      29.438  -4.663  -5.160  0.00  0.00    +0.111 A 
ENDBRANCH   4   3
ENDBRANCH  10   9
BRANCH  12  13
ATOM     13  N   UNL     1      30.894 -15.505  -0.859  0.00  0.00    -0.281 N 
ATOM     14  C   UNL     1      29.988 -16.192  -0.067  0.00  0.00    +0.248 C 
ATOM     30  O   UNL     1      29.776 -15.947   1.111  0.00  0.00    -0.270 OA
ATOM     31  H   UNL     1      31.115 -15.931  -1.759  0.00  0.00    +0.155 HD
BRANCH  14  15
ATOM     15  C   UNL     1      29.216 -17.322  -0.667  0.00  0.00    +0.037 A 
ATOM     16  C   UNL     1      29.112 -18.616   0.011  0.00  0.00    +0.013 A 
ATOM     17  C   UNL     1      28.375 -19.695  -0.598  0.00  0.00    +0.005 A 
ATOM     18  C   UNL     1      27.735 -19.483  -1.894  0.00  0.00    -0.033 A 
ATOM     28  C   UNL     1      27.849 -18.188  -2.542  0.00  0.00    +0.005 A 
ATOM     29  C   UNL     1      28.571 -17.128  -1.949  0.00  0.00    +0.013 A 
BRANCH  18  19
ATOM     19  C   UNL     1      26.946 -20.585  -2.627  0.00  0.00    +0.119 C 
BRANCH  19  20
ATOM     20  N   UNL     1      26.018 -20.152  -3.714  0.00  0.00    -0.302 NA
ATOM     21  C   UNL     1      24.598 -20.685  -3.502  0.00  0.00    +0.066 C 
ATOM     22  C   UNL     1      23.634 -20.205  -4.636  0.00  0.00    -0.064 C 
ATOM     23  N   UNL     1      24.184 -20.652  -5.991  0.00  0.00    +0.379 N 
ATOM     24  C   UNL     1      23.251 -20.253  -7.055  0.00  0.00    -0.096 C 
ATOM     25  H   UNL     1      24.233 -21.766  -5.985  0.00  0.00    -0.082 HD
ATOM     26  C   UNL     1      25.597 -20.129  -6.209  0.00  0.00    -0.064 C 
ATOM     27  C   UNL     1      26.539 -20.588  -5.061  0.00  0.00    +0.066 C 
ENDBRANCH  19  20
ENDBRANCH  18  19
ENDBRANCH  14  15
ENDBRANCH  12  13
TORSDOF 6
ENDMDL
MODEL 3
REMARK VINA RESULT:      -7.8      8.093     16.094
REMARK  Name = C:\Users\Docking\Desktop\test protocol\1iep_ligandH.pdb
REMARK  8 active torsions:
REMARK  status: ('A' for Active; 'I' for Inactive)
REMARK    1  A    between atoms: _5  and  _11
REMARK    2  A    between atoms: _19  and  _21
REMARK    3  A    between atoms: _22  and  _66
REMARK    4  A    between atoms: _27  and  _30
REMARK    5  A    between atoms: _32  and  _33
REMARK    6  A    between atoms: _38  and  _43
REMARK    7  A    between atoms: _43  and  _46
REMARK    8  A    between atoms: _53  and  _55
REMARK                            x       y       z     vdW  Elec       q    Type
REMARK                         _______ _______ _______ _____ _____    ______ ____
ROOT
ATOM     10  C   UNL     1      31.749  -8.707  -2.772  0.00  0.00    +0.038 A 
ATOM     11  C   UNL     1      31.678  -7.351  -3.180  0.00  0.00    +0.047 A 
ATOM     12  C   UNL     1      31.712  -6.985  -4.588  0.00  0.00    +0.035 A 
ATOM     32  C   UNL     1      31.816  -8.028  -5.554  0.00  0.00    +0.024 A 
ATOM     33  C   UNL     1      31.891  -9.412  -5.157  0.00  0.00    +0.007 A 
ATOM     34  C   UNL     1      31.860  -9.778  -3.770  0.00  0.00    -0.029 A 
ATOM     35  C   UNL     1      31.950 -11.278  -3.402  0.00  0.00    +0.045 C 
ENDROOT
BRANCH  10   9
ATOM      4  C   UNL     1      33.896  -9.743   1.394  0.00  0.00    +0.077 A 
ATOM      5  C   UNL     1      35.200  -9.724   0.794  0.00  0.00    +0.048 A 
ATOM      6  C   UNL     1      35.274  -9.451  -0.590  0.00  0.00    +0.116 A 
ATOM      7  N   UNL     1      34.123  -9.215  -1.311  0.00  0.00    -0.223 NA
ATOM      8  C   UNL     1      32.882  -9.243  -0.703  0.00  0.00    +0.220 A 
ATOM      9  N   UNL     1      31.713  -9.001  -1.407  0.00  0.00    -0.283 N 
ATOM     36  H   UNL     1      30.816  -9.037  -0.924  0.00  0.00    +0.155 HD
ATOM     37  N   UNL     1      32.784  -9.503   0.617  0.00  0.00    -0.214 NA
BRANCH   4   3
ATOM      1  C   UNL     1      33.081 -11.540   4.771  0.00  0.00    +0.020 A 
ATOM      2  C   UNL     1      33.303 -11.332   3.359  0.00  0.00    +0.013 A 
ATOM      3  C   UNL     1      33.655 -10.014   2.846  0.00  0.00    +0.019 A 
ATOM     38  C   UNL     1      33.775  -8.919   3.797  0.00  0.00    +0.120 A 
ATOM     39  N   UNL     1      33.554  -9.149   5.151  0.00  0.00    -0.263 NA
ATOM     40  C   UNL     1      33.213 -10.413   5.656  0.00  0.00    +0.111 A 
ENDBRANCH   4   3
ENDBRANCH  10   9
BRANCH  12  13
ATOM     13  N   UNL     1      31.652  -5.625  -5.062  0.00  0.00    -0.281 N 
ATOM     14  C   UNL     1      30.578  -4.751  -5.008  0.00  0.00    +0.248 C 
ATOM     30  O   UNL     1      29.433  -5.080  -4.736  0.00  0.00    -0.270 OA
ATOM     31  H   UNL     1      32.504  -5.261  -5.488  0.00  0.00    +0.155 HD
BRANCH  14  15
ATOM     15  C   UNL     1      30.806  -3.307  -5.316  0.00  0.00    +0.037 A 
ATOM     16  C   UNL     1      31.054  -2.852  -6.686  0.00  0.00    +0.013 A 
ATOM     17  C   UNL     1      31.288  -1.454  -6.953  0.00  0.00    +0.005 A 
ATOM     18  C   UNL     1      31.273  -0.502  -5.846  0.00  0.00    -0.033 A 
ATOM     28  C   UNL     1      31.019  -0.980  -4.497  0.00  0.00    +0.005 A 
ATOM     29  C   UNL     1      30.790  -2.348  -4.231  0.00  0.00    +0.013 A 
BRANCH  18  19
ATOM     19  C   UNL     1      31.534   1.005  -6.035  0.00  0.00    +0.119 C 
BRANCH  19  20
ATOM     20  N   UNL     1      32.957   1.457  -6.037  0.00  0.00    -0.302 NA
ATOM     21  C   UNL     1      33.252   2.428  -4.890  0.00  0.00    +0.066 C 
ATOM     22  C   UNL     1      34.751   2.874  -4.894  0.00  0.00    -0.064 C 
ATOM     23  N   UNL     1      35.087   3.511  -6.243  0.00  0.00    +0.379 N 
ATOM     24  C   UNL     1      36.479   3.984  -6.229  0.00  0.00    -0.096 C 
ATOM     25  H   UNL     1      34.429   4.402  -6.370  0.00  0.00    -0.082 HD
ATOM     26  C   UNL     1      34.794   2.553  -7.389  0.00  0.00    -0.064 C 
ATOM     27  C   UNL     1      33.310   2.093  -7.359  0.00  0.00    +0.066 C 
ENDBRANCH  19  20
ENDBRANCH  18  19
ENDBRANCH  14  15
ENDBRANCH  12  13
TORSDOF 6
ENDMDL
MODEL 4
REMARK VINA RESULT:      -7.7      2.596     12.185
REMARK  Name = C:\Users\Docking\Desktop\test protocol\1iep_ligandH.pdb
REMARK  8 active torsions:
REMARK  status: ('A' for Active; 'I' for Inactive)
REMARK    1  A    between atoms: _5  and  _11
REMARK    2  A    between atoms: _19  and  _21
REMARK    3  A    between atoms: _22  and  _66
REMARK    4  A    between atoms: _27  and  _30
REMARK    5  A    between atoms: _32  and  _33
REMARK    6  A    between atoms: _38  and  _43
REMARK    7  A    between atoms: _43  and  _46
REMARK    8  A    between atoms: _53  and  _55
REMARK                            x       y       z     vdW  Elec       q    Type
REMARK                         _______ _______ _______ _____ _____    ______ ____
ROOT
ATOM     10  C   UNL     1      31.413 -15.307  -0.163  0.00  0.00    +0.038 A 
ATOM     11  C   UNL     1      31.383 -14.058  -0.833  0.00  0.00    +0.047 A 
ATOM     12  C   UNL     1      32.020 -12.882  -0.261  0.00  0.00    +0.035 A 
ATOM     32  C   UNL     1      32.681 -13.015   0.995  0.00  0.00    +0.024 A 
ATOM     33  C   UNL     1      32.720 -14.278   1.690  0.00  0.00    +0.007 A 
ATOM     34  C   UNL     1      32.091 -15.441   1.132  0.00  0.00    -0.029 A 
ATOM     35  C   UNL     1      32.159 -16.767   1.924  0.00  0.00    +0.045 C 
ENDROOT
BRANCH  10   9
ATOM      4  C   UNL     1      27.613 -17.418  -2.199  0.00  0.00    +0.077 A 
ATOM      5  C   UNL     1      26.801 -16.246  -2.038  0.00  0.00    +0.048 A 
ATOM      6  C   UNL     1      27.398 -15.124  -1.420  0.00  0.00    +0.116 A 
ATOM      7  N   UNL     1      28.708 -15.181  -0.999  0.00  0.00    -0.223 NA
ATOM      8  C   UNL     1      29.463 -16.327  -1.167  0.00  0.00    +0.220 A 
ATOM      9  N   UNL     1      30.785 -16.404  -0.758  0.00  0.00    -0.283 N 
ATOM     36  H   UNL     1      31.305 -17.270  -0.894  0.00  0.00    +0.155 HD
ATOM     37  N   UNL     1      28.916 -17.413  -1.753  0.00  0.00    -0.214 NA
BRANCH   4   3
ATOM      1  C   UNL     1      26.953 -20.286  -4.776  0.00  0.00    +0.020 A 
ATOM      2  C   UNL     1      27.447 -19.052  -4.209  0.00  0.00    +0.013 A 
ATOM      3  C   UNL     1      27.127 -18.683  -2.836  0.00  0.00    +0.019 A 
ATOM     38  C   UNL     1      26.298 -19.591  -2.057  0.00  0.00    +0.120 A 
ATOM     39  N   UNL     1      25.835 -20.771  -2.631  0.00  0.00    -0.263 NA
ATOM     40  C   UNL     1      26.135 -21.136  -3.951  0.00  0.00    +0.111 A 
ENDBRANCH   4   3
ENDBRANCH  10   9
BRANCH  12  13
ATOM     13  N   UNL     1      32.015 -11.585  -0.891  0.00  0.00    -0.281 N 
ATOM     14  C   UNL     1      33.032 -10.989  -1.619  0.00  0.00    +0.248 C 
ATOM     30  O   UNL     1      34.184 -11.395  -1.659  0.00  0.00    -0.270 OA
ATOM     31  H   UNL     1      31.159 -11.040  -0.788  0.00  0.00    +0.155 HD
BRANCH  14  15
ATOM     15  C   UNL     1      32.728  -9.754  -2.406  0.00  0.00    +0.037 A 
ATOM     16  C   UNL     1      32.481  -8.472  -1.742  0.00  0.00    +0.013 A 
ATOM     17  C   UNL     1      32.174  -7.300  -2.524  0.00  0.00    +0.005 A 
ATOM     18  C   UNL     1      32.113  -7.407  -3.980  0.00  0.00    -0.033 A 
ATOM     28  C   UNL     1      32.367  -8.690  -4.612  0.00  0.00    +0.005 A 
ATOM     29  C   UNL     1      32.668  -9.841  -3.849  0.00  0.00    +0.013 A 
BRANCH  18  19
ATOM     19  C   UNL     1      31.771  -6.213  -4.892  0.00  0.00    +0.119 C 
BRANCH  19  20
ATOM     20  N   UNL     1      30.459  -5.535  -4.668  0.00  0.00    -0.302 NA
ATOM     21  C   UNL     1      29.276  -6.472  -4.931  0.00  0.00    +0.066 C 
ATOM     22  C   UNL     1      27.913  -5.753  -4.670  0.00  0.00    -0.064 C 
ATOM     23  N   UNL     1      27.821  -4.504  -5.549  0.00  0.00    +0.379 N 
ATOM     24  C   UNL     1      26.516  -3.858  -5.349  0.00  0.00    -0.096 C 
ATOM     25  H   UNL     1      27.876  -4.835  -6.612  0.00  0.00    -0.082 HD
ATOM     26  C   UNL     1      28.995  -3.569  -5.296  0.00  0.00    -0.064 C 
ATOM     27  C   UNL     1      30.346  -4.302  -5.529  0.00  0.00    +0.066 C 
ENDBRANCH  19  20
ENDBRANCH  18  19
ENDBRANCH  14  15
ENDBRANCH  12  13
TORSDOF 6
ENDMDL
MODEL 5
REMARK VINA RESULT:      -7.7      4.026      6.834
REMARK  Name = C:\Users\Docking\Desktop\test protocol\1iep_ligandH.pdb
REMARK  8 active torsions:
REMARK  status: ('A' for Active; 'I' for Inactive)
REMARK    1  A    between atoms: _5  and  _11
REMARK    2  A    between atoms: _19  and  _21
REMARK    3  A    between atoms: _22  and  _66
REMARK    4  A    between atoms: _27  and  _30
REMARK    5  A    between atoms: _32  and  _33
REMARK    6  A    between atoms: _38  and  _43
REMARK    7  A    between atoms: _43  and  _46
REMARK    8  A    between atoms: _53  and  _55
REMARK                            x       y       z     vdW  Elec       q    Type
REMARK                         _______ _______ _______ _____ _____    ______ ____
ROOT
ATOM     10  C   UNL     1      33.397 -11.467  -0.337  0.00  0.00    +0.038 A 
ATOM     11  C   UNL     1      32.490 -12.556  -0.283  0.00  0.00    +0.047 A 
ATOM     12  C   UNL     1      31.635 -12.881  -1.414  0.00  0.00    +0.035 A 
ATOM     32  C   UNL     1      31.730 -12.075  -2.586  0.00  0.00    +0.024 A 
ATOM     33  C   UNL     1      32.645 -10.963  -2.658  0.00  0.00    +0.007 A 
ATOM     34  C   UNL     1      33.490 -10.637  -1.544  0.00  0.00    -0.029 A 
ATOM     35  C   UNL     1      34.447  -9.429  -1.675  0.00  0.00    +0.045 C 
ENDROOT
BRANCH  10   9
ATOM      4  C   UNL     1      34.389  -9.017   3.669  0.00  0.00    +0.077 A 
ATOM      5  C   UNL     1      33.235  -8.179   3.513  0.00  0.00    +0.048 A 
ATOM      6  C   UNL     1      32.416  -8.406   2.385  0.00  0.00    +0.116 A 
ATOM      7  N   UNL     1      32.736  -9.400   1.486  0.00  0.00    -0.223 NA
ATOM      8  C   UNL     1      33.858 -10.189   1.665  0.00  0.00    +0.220 A 
ATOM      9  N   UNL     1      34.194 -11.200   0.778  0.00  0.00    -0.283 N 
ATOM     36  H   UNL     1      35.034 -11.756   0.942  0.00  0.00    +0.155 HD
ATOM     37  N   UNL     1      34.657  -9.991   2.734  0.00  0.00    -0.214 NA
BRANCH   4   3
ATOM      1  C   UNL     1      37.439  -9.578   6.053  0.00  0.00    +0.020 A 
ATOM      2  C   UNL     1      36.543  -9.730   4.930  0.00  0.00    +0.013 A 
ATOM      3  C   UNL     1      35.350  -8.902   4.812  0.00  0.00    +0.019 A 
ATOM     38  C   UNL     1      35.090  -7.921   5.855  0.00  0.00    +0.120 A 
ATOM     39  N   UNL     1      35.970  -7.798   6.926  0.00  0.00    -0.263 NA
ATOM     40  C   UNL     1      37.121  -8.591   7.051  0.00  0.00    +0.111 A 
ENDBRANCH   4   3
ENDBRANCH  10   9
BRANCH  12  13
ATOM     13  N   UNL     1      30.690 -13.970  -1.414  0.00  0.00    -0.281 N 
ATOM     14  C   UNL     1      29.470 -14.039  -0.761  0.00  0.00    +0.248 C 
ATOM     30  O   UNL     1      29.101 -13.254   0.099  0.00  0.00    -0.270 OA
ATOM     31  H   UNL     1      30.953 -14.790  -1.962  0.00  0.00    +0.155 HD
BRANCH  14  15
ATOM     15  C   UNL     1      28.530 -15.149  -1.104  0.00  0.00    +0.037 A 
ATOM     16  C   UNL     1      28.999 -16.532  -1.225  0.00  0.00    +0.013 A 
ATOM     17  C   UNL     1      28.074 -17.581  -1.574  0.00  0.00    +0.005 A 
ATOM     18  C   UNL     1      26.669 -17.251  -1.803  0.00  0.00    -0.033 A 
ATOM     28  C   UNL     1      26.230 -15.872  -1.671  0.00  0.00    +0.005 A 
ATOM     29  C   UNL     1      27.134 -14.841  -1.330  0.00  0.00    +0.013 A 
BRANCH  18  19
ATOM     19  C   UNL     1      25.617 -18.303  -2.199  0.00  0.00    +0.119 C 
BRANCH  19  20
ATOM     20  N   UNL     1      25.824 -19.026  -3.490  0.00  0.00    -0.302 NA
ATOM     21  C   UNL     1      26.178 -18.070  -4.632  0.00  0.00    +0.066 C 
ATOM     22  C   UNL     1      26.413 -18.844  -5.970  0.00  0.00    -0.064 C 
ATOM     23  N   UNL     1      25.164 -19.659  -6.311  0.00  0.00    +0.379 N 
ATOM     24  C   UNL     1      25.361 -20.342  -7.598  0.00  0.00    -0.096 C 
ATOM     25  H   UNL     1      24.318 -18.944  -6.434  0.00  0.00    -0.082 HD
ATOM     26  C   UNL     1      24.804 -20.610  -5.179  0.00  0.00    -0.064 C 
ATOM     27  C   UNL     1      24.601 -19.833  -3.848  0.00  0.00    +0.066 C 
ENDBRANCH  19  20
ENDBRANCH  18  19
ENDBRANCH  14  15
ENDBRANCH  12  13
TORSDOF 6
ENDMDL
