MODEL 1
REMARK VINA RESULT:      -8.0      0.000      0.000
REMARK  Name = C:\Users\Docking\Desktop\test protocol\1iep_ligandH.pdb
REMARK  8 active torsions:
REMARK  status: ('A' for Active; 'I' for Inactive)
REMARK    1  A    between atoms: _5  and  _11
REMARK    2  A    between atoms: _19  and  _21
REMARK    3  A    between atoms: _22  and  _66
REMARK    4  A    between atoms: _27  and  _30
REMARK    5  A    between atoms: _32  and  _33
REMARK    6  A    between atoms: _38  and  _43
REMARK    7  A    between atoms: _43  and  _46
REMARK    8  A    between atoms: _53  and  _55
REMARK                            x       y       z     vdW  Elec       q    Type
REMARK                         _______ _______ _______ _____ _____    ______ ____
ROOT
ATOM     10  C   UNL     1      43.602  46.507   1.518  0.00  0.00    +0.038 A 
ATOM     11  C   UNL     1      44.383  47.278   0.619  0.00  0.00    +0.047 A 
ATOM     12  C   UNL     1      45.569  47.989   1.071  0.00  0.00    +0.035 A 
ATOM     32  C   UNL     1      45.932  47.891   2.446  0.00  0.00    +0.024 A 
ATOM     33  C   UNL     1      45.149  47.113   3.374  0.00  0.00    +0.007 A 
ATOM     34  C   UNL     1      43.977  46.411   2.934  0.00  0.00    -0.029 A 
ATOM     35  C   UNL     1      43.172  45.598   3.974  0.00  0.00    +0.045 C 
ENDROOT
BRANCH  10   9
ATOM      4  C   UNL     1      38.959  46.384   0.311  0.00  0.00    +0.077 A 
ATOM      5  C   UNL     1      38.757  47.746   0.713  0.00  0.00    +0.048 A 
ATOM      6  C   UNL     1      39.872  48.442   1.232  0.00  0.00    +0.116 A 
ATOM      7  N   UNL     1      41.094  47.812   1.336  0.00  0.00    -0.223 NA
ATOM      8  C   UNL     1      41.253  46.496   0.941  0.00  0.00    +0.220 A 
ATOM      9  N   UNL     1      42.474  45.845   1.029  0.00  0.00    -0.283 N 
ATOM     36  H   UNL     1      42.549  44.872   0.734  0.00  0.00    +0.155 HD
ATOM     37  N   UNL     1      40.203  45.810   0.444  0.00  0.00    -0.214 NA
BRANCH   4   3
ATOM      1  C   UNL     1      35.615  45.175  -1.320  0.00  0.00    +0.020 A 
ATOM      2  C   UNL     1      36.627  46.054  -0.780  0.00  0.00    +0.013 A 
ATOM      3  C   UNL     1      37.878  45.519  -0.259  0.00  0.00    +0.019 A 
ATOM     38  C   UNL     1      38.077  44.078  -0.299  0.00  0.00    +0.120 A 
ATOM     39  N   UNL     1      37.084  43.256  -0.824  0.00  0.00    -0.263 NA
ATOM     40  C   UNL     1      35.876  43.759  -1.327  0.00  0.00    +0.111 A 
ENDBRANCH   4   3
ENDBRANCH  10   9
BRANCH  12  13
ATOM     13  N   UNL     1      46.396  48.794   0.207  0.00  0.00    -0.281 N 
ATOM     14  C   UNL     1      46.028  49.444  -0.960  0.00  0.00    +0.248 C 
ATOM     30  O   UNL     1      44.978  49.255  -1.555  0.00  0.00    -0.270 OA
ATOM     31  H   UNL     1      47.371  48.897   0.489  0.00  0.00    +0.155 HD
BRANCH  14  15
ATOM     15  C   UNL     1      46.971  50.436  -1.561  0.00  0.00    +0.037 A 
ATOM     16  C   UNL     1      47.805  51.298  -0.720  0.00  0.00    +0.013 A 
ATOM     17  C   UNL     1      48.693  52.258  -1.326  0.00  0.00    +0.005 A 
ATOM     18  C   UNL     1      48.752  52.361  -2.782  0.00  0.00    -0.033 A 
ATOM     28  C   UNL     1      47.917  51.491  -3.592  0.00  0.00    +0.005 A 
ATOM     29  C   UNL     1      47.044  50.549  -3.002  0.00  0.00    +0.013 A 
BRANCH  18  19
ATOM     19  C   UNL     1      49.655  53.372  -3.513  0.00  0.00    +0.119 C 
BRANCH  19  20
ATOM     20  N   UNL     1      51.112  53.055  -3.592  0.00  0.00    -0.302 NA
ATOM     21  C   UNL     1      51.956  54.018  -2.752  0.00  0.00    +0.066 C 
ATOM     22  C   UNL     1      53.475  53.659  -2.828  0.00  0.00    -0.064 C 
ATOM     23  N   UNL     1      53.928  53.676  -4.289  0.00  0.00    +0.379 N 
ATOM     24  C   UNL     1      55.369  53.395  -4.360  0.00  0.00    -0.096 C 
ATOM     25  H   UNL     1      53.764  54.706  -4.682  0.00  0.00    -0.082 HD
ATOM     26  C   UNL     1      53.092  52.723  -5.132  0.00  0.00    -0.064 C 
ATOM     27  C   UNL     1      51.581  53.071  -5.026  0.00  0.00    +0.066 C 
ENDBRANCH  19  20
ENDBRANCH  18  19
ENDBRANCH  14  15
ENDBRANCH  12  13
TORSDOF 6
ENDMDL
MODEL 2
REMARK VINA RESULT:      -7.8      5.185     13.248
REMARK  Name = C:\Users\Docking\Desktop\test protocol\1iep_ligandH.pdb
REMARK  8 active torsions:
REMARK  status: ('A' for Active; 'I' for Inactive)
REMARK    1  A    between atoms: _5  and  _11
REMARK    2  A    between atoms: _19  and  _21
REMARK    3  A    between atoms: _22  and  _66
REMARK    4  A    between atoms: _27  and  _30
REMARK    5  A    between atoms: _32  and  _33
REMARK    6  A    between atoms: _38  and  _43
REMARK    7  A    between atoms: _43  and  _46
REMARK    8  A    between atoms: _53  and  _55
REMARK                            x       y       z     vdW  Elec       q    Type
REMARK                         _______ _______ _______ _____ _____    ______ ____
ROOT
ATOM     10  C   UNL     1      41.006  46.594  -0.014  0.00  0.00    +0.038 A 
ATOM     11  C   UNL     1      40.737  45.300  -0.528  0.00  0.00    +0.047 A 
ATOM     12  C   UNL     1      39.676  44.475   0.029  0.00  0.00    +0.035 A 
ATOM     32  C   UNL     1      38.906  45.001   1.107  0.00  0.00    +0.024 A 
ATOM     33  C   UNL     1      39.167  46.314   1.642  0.00  0.00    +0.007 A 
ATOM     34  C   UNL     1      40.214  47.131   1.099  0.00  0.00    -0.029 A 
ATOM     35  C   UNL     1      40.453  48.528   1.717  0.00  0.00    +0.045 C 
ENDROOT
BRANCH  10   9
ATOM      4  C   UNL     1      45.431  48.452   0.059  0.00  0.00    +0.077 A 
ATOM      5  C   UNL     1      45.702  47.907   1.358  0.00  0.00    +0.048 A 
ATOM      6  C   UNL     1      44.674  47.161   1.976  0.00  0.00    +0.116 A 
ATOM      7  N   UNL     1      43.469  46.979   1.334  0.00  0.00    -0.223 NA
ATOM      8  C   UNL     1      43.239  47.520   0.082  0.00  0.00    +0.220 A 
ATOM      9  N   UNL     1      42.037  47.343  -0.586  0.00  0.00    -0.283 N 
ATOM     36  H   UNL     1      41.904  47.764  -1.505  0.00  0.00    +0.155 HD
ATOM     37  N   UNL     1      44.204  48.237  -0.529  0.00  0.00    -0.214 NA
BRANCH   4   3
ATOM      1  C   UNL     1      48.111  51.117  -0.948  0.00  0.00    +0.020 A 
ATOM      2  C   UNL     1      47.170  50.368  -0.148  0.00  0.00    +0.013 A 
ATOM      3  C   UNL     1      46.418  49.261  -0.725  0.00  0.00    +0.019 A 
ATOM     38  C   UNL     1      46.645  48.933  -2.124  0.00  0.00    +0.120 A 
ATOM     39  N   UNL     1      47.557  49.673  -2.870  0.00  0.00    -0.263 NA
ATOM     40  C   UNL     1      48.285  50.742  -2.327  0.00  0.00    +0.111 A 
ENDBRANCH   4   3
ENDBRANCH  10   9
BRANCH  12  13
ATOM     13  N   UNL     1      39.361  43.150  -0.447  0.00  0.00    -0.281 N 
ATOM     14  C   UNL     1      38.179  42.708  -1.016  0.00  0.00    +0.248 C 
ATOM     30  O   UNL     1      37.130  43.336  -1.008  0.00  0.00    -0.270 OA
ATOM     31  H   UNL     1      40.101  42.454  -0.352  0.00  0.00    +0.155 HD
BRANCH  14  15
ATOM     15  C   UNL     1      38.152  41.368  -1.678  0.00  0.00    +0.037 A 
ATOM     16  C   UNL     1      38.949  40.251  -1.164  0.00  0.00    +0.013 A 
ATOM     17  C   UNL     1      38.919  38.974  -1.832  0.00  0.00    +0.005 A 
ATOM     18  C   UNL     1      38.086  38.807  -3.020  0.00  0.00    -0.033 A 
ATOM     28  C   UNL     1      37.302  39.930  -3.505  0.00  0.00    +0.005 A 
ATOM     29  C   UNL     1      37.330  41.184  -2.854  0.00  0.00    +0.013 A 
BRANCH  18  19
ATOM     19  C   UNL     1      38.009  37.486  -3.808  0.00  0.00    +0.119 C 
BRANCH  19  20
ATOM     20  N   UNL     1      39.300  36.866  -4.232  0.00  0.00    -0.302 NA
ATOM     21  C   UNL     1      39.960  37.638  -5.377  0.00  0.00    +0.066 C 
ATOM     22  C   UNL     1      41.321  36.989  -5.792  0.00  0.00    -0.064 C 
ATOM     23  N   UNL     1      41.087  35.530  -6.187  0.00  0.00    +0.379 N 
ATOM     24  C   UNL     1      42.354  34.933  -6.633  0.00  0.00    -0.096 C 
ATOM     25  H   UNL     1      40.386  35.522  -7.054  0.00  0.00    -0.082 HD
ATOM     26  C   UNL     1      40.428  34.755  -5.054  0.00  0.00    -0.064 C 
ATOM     27  C   UNL     1      39.092  35.425  -4.630  0.00  0.00    +0.066 C 
ENDBRANCH  19  20
ENDBRANCH  18  19
ENDBRANCH  14  15
ENDBRANCH  12  13
TORSDOF 6
ENDMDL
MODEL 3
REMARK VINA RESULT:      -7.7     15.109     20.048
REMARK  Name = C:\Users\Docking\Desktop\test protocol\1iep_ligandH.pdb
REMARK  8 active torsions:
REMARK  status: ('A' for Active; 'I' for Inactive)
REMARK    1  A    between atoms: _5  and  _11
REMARK    2  A    between atoms: _19  and  _21
REMARK    3  A    between atoms: _22  and  _66
REMARK    4  A    between atoms: _27  and  _30
REMARK    5  A    between atoms: _32  and  _33
REMARK    6  A    between atoms: _38  and  _43
REMARK    7  A    between atoms: _43  and  _46
REMARK    8  A    between atoms: _53  and  _55
REMARK                            x       y       z     vdW  Elec       q    Type
REMARK                         _______ _______ _______ _____ _____    ______ ____
ROOT
ATOM     10  C   UNL     1      40.669  35.176  -6.092  0.00  0.00    +0.038 A 
ATOM     11  C   UNL     1      41.307  33.910  -6.049  0.00  0.00    +0.047 A 
ATOM     12  C   UNL     1      42.713  33.788  -5.696  0.00  0.00    +0.035 A 
ATOM     32  C   UNL     1      43.438  34.976  -5.388  0.00  0.00    +0.024 A 
ATOM     33  C   UNL     1      42.805  36.271  -5.427  0.00  0.00    +0.007 A 
ATOM     34  C   UNL     1      41.419  36.398  -5.778  0.00  0.00    -0.029 A 
ATOM     35  C   UNL     1      40.794  37.812  -5.810  0.00  0.00    +0.045 C 
ENDROOT
BRANCH  10   9
ATOM      4  C   UNL     1      36.015  34.546  -5.101  0.00  0.00    +0.077 A 
ATOM      5  C   UNL     1      36.302  34.031  -3.794  0.00  0.00    +0.048 A 
ATOM      6  C   UNL     1      37.661  33.937  -3.417  0.00  0.00    +0.116 A 
ATOM      7  N   UNL     1      38.650  34.333  -4.291  0.00  0.00    -0.223 NA
ATOM      8  C   UNL     1      38.338  34.824  -5.546  0.00  0.00    +0.220 A 
ATOM      9  N   UNL     1      39.317  35.235  -6.438  0.00  0.00    -0.283 N 
ATOM     36  H   UNL     1      39.046  35.585  -7.357  0.00  0.00    +0.155 HD
ATOM     37  N   UNL     1      37.049  34.922  -5.929  0.00  0.00    -0.214 NA
BRANCH   4   3
ATOM      1  C   UNL     1      32.920  34.569  -7.494  0.00  0.00    +0.020 A 
ATOM      2  C   UNL     1      34.274  34.394  -7.021  0.00  0.00    +0.013 A 
ATOM      3  C   UNL     1      34.628  34.709  -5.643  0.00  0.00    +0.019 A 
ATOM     38  C   UNL     1      33.581  35.202  -4.761  0.00  0.00    +0.120 A 
ATOM     39  N   UNL     1      32.286  35.361  -5.245  0.00  0.00    -0.263 NA
ATOM     40  C   UNL     1      31.933  35.063  -6.570  0.00  0.00    +0.111 A 
ENDBRANCH   4   3
ENDBRANCH  10   9
BRANCH  12  13
ATOM     13  N   UNL     1      43.417  32.530  -5.644  0.00  0.00    -0.281 N 
ATOM     14  C   UNL     1      43.288  31.520  -4.705  0.00  0.00    +0.248 C 
ATOM     30  O   UNL     1      42.698  31.637  -3.641  0.00  0.00    -0.270 OA
ATOM     31  H   UNL     1      44.092  32.365  -6.390  0.00  0.00    +0.155 HD
BRANCH  14  15
ATOM     15  C   UNL     1      43.917  30.193  -4.981  0.00  0.00    +0.037 A 
ATOM     16  C   UNL     1      43.177  28.945  -4.781  0.00  0.00    +0.013 A 
ATOM     17  C   UNL     1      43.813  27.677  -5.039  0.00  0.00    +0.005 A 
ATOM     18  C   UNL     1      45.199  27.652  -5.501  0.00  0.00    -0.033 A 
ATOM     28  C   UNL     1      45.908  28.906  -5.696  0.00  0.00    +0.005 A 
ATOM     29  C   UNL     1      45.288  30.150  -5.443  0.00  0.00    +0.013 A 
BRANCH  18  19
ATOM     19  C   UNL     1      45.964  26.345  -5.780  0.00  0.00    +0.119 C 
BRANCH  19  20
ATOM     20  N   UNL     1      45.611  25.599  -7.025  0.00  0.00    -0.302 NA
ATOM     21  C   UNL     1      45.404  26.537  -8.218  0.00  0.00    +0.066 C 
ATOM     22  C   UNL     1      45.058  25.738  -9.516  0.00  0.00    -0.064 C 
ATOM     23  N   UNL     1      43.809  24.889  -9.272  0.00  0.00    +0.379 N 
ATOM     24  C   UNL     1      43.447  24.181 -10.509  0.00  0.00    -0.096 C 
ATOM     25  H   UNL     1      42.973  25.582  -9.022  0.00  0.00    -0.082 HD
ATOM     26  C   UNL     1      44.005  23.955  -8.086  0.00  0.00    -0.064 C 
ATOM     27  C   UNL     1      44.378  24.757  -6.807  0.00  0.00    +0.066 C 
ENDBRANCH  19  20
ENDBRANCH  18  19
ENDBRANCH  14  15
ENDBRANCH  12  13
TORSDOF 6
ENDMDL
MODEL 4
REMARK VINA RESULT:      -7.6     12.039     14.522
REMARK  Name = C:\Users\Docking\Desktop\test protocol\1iep_ligandH.pdb
REMARK  8 active torsions:
REMARK  status: ('A' for Active; 'I' for Inactive)
REMARK    1  A    between atoms: _5  and  _11
REMARK    2  A    between atoms: _19  and  _21
REMARK    3  A    between atoms: _22  and  _66
REMARK    4  A    between atoms: _27  and  _30
REMARK    5  A    between atoms: _32  and  _33
REMARK    6  A    between atoms: _38  and  _43
REMARK    7  A    between atoms: _43  and  _46
REMARK    8  A    between atoms: _53  and  _55
REMARK                            x       y       z     vdW  Elec       q    Type
REMARK                         _______ _______ _______ _____ _____    ______ ____
ROOT
ATOM     10  C   UNL     1      37.538  41.358  -1.484  0.00  0.00    +0.038 A 
ATOM     11  C   UNL     1      36.816  42.261  -2.304  0.00  0.00    +0.047 A 
ATOM     12  C   UNL     1      35.689  43.018  -1.781  0.00  0.00    +0.035 A 
ATOM     32  C   UNL     1      35.327  42.831  -0.415  0.00  0.00    +0.024 A 
ATOM     33  C   UNL     1      36.050  41.917   0.434  0.00  0.00    +0.007 A 
ATOM     34  C   UNL     1      37.161  41.166  -0.078  0.00  0.00    -0.029 A 
ATOM     35  C   UNL     1      37.895  40.195   0.875  0.00  0.00    +0.045 C 
ENDROOT
BRANCH  10   9
ATOM      4  C   UNL     1      39.352  37.742  -4.067  0.00  0.00    +0.077 A 
ATOM      5  C   UNL     1      38.052  37.185  -4.309  0.00  0.00    +0.048 A 
ATOM      6  C   UNL     1      36.943  37.856  -3.745  0.00  0.00    +0.116 A 
ATOM      7  N   UNL     1      37.132  38.998  -2.997  0.00  0.00    -0.223 NA
ATOM      8  C   UNL     1      38.400  39.507  -2.781  0.00  0.00    +0.220 A 
ATOM      9  N   UNL     1      38.612  40.658  -2.038  0.00  0.00    -0.283 N 
ATOM     36  H   UNL     1      39.563  40.998  -1.896  0.00  0.00    +0.155 HD
ATOM     37  N   UNL     1      39.475  38.885  -3.308  0.00  0.00    -0.214 NA
BRANCH   4   3
ATOM      1  C   UNL     1      42.219  36.602  -6.471  0.00  0.00    +0.020 A 
ATOM      2  C   UNL     1      40.982  37.188  -6.010  0.00  0.00    +0.013 A 
ATOM      3  C   UNL     1      40.620  37.150  -4.598  0.00  0.00    +0.019 A 
ATOM     38  C   UNL     1      41.540  36.508  -3.672  0.00  0.00    +0.120 A 
ATOM     39  N   UNL     1      42.724  35.951  -4.145  0.00  0.00    -0.263 NA
ATOM     40  C   UNL     1      43.082  35.979  -5.501  0.00  0.00    +0.111 A 
ENDBRANCH   4   3
ENDBRANCH  10   9
BRANCH  12  13
ATOM     13  N   UNL     1      34.912  43.943  -2.568  0.00  0.00    -0.281 N 
ATOM     14  C   UNL     1      35.112  45.305  -2.724  0.00  0.00    +0.248 C 
ATOM     30  O   UNL     1      35.866  45.976  -2.036  0.00  0.00    -0.270 OA
ATOM     31  H   UNL     1      34.120  43.545  -3.072  0.00  0.00    +0.155 HD
BRANCH  14  15
ATOM     15  C   UNL     1      34.353  46.028  -3.790  0.00  0.00    +0.037 A 
ATOM     16  C   UNL     1      34.851  47.283  -4.358  0.00  0.00    +0.013 A 
ATOM     17  C   UNL     1      34.091  47.970  -5.372  0.00  0.00    +0.005 A 
ATOM     18  C   UNL     1      32.825  47.400  -5.826  0.00  0.00    -0.033 A 
ATOM     28  C   UNL     1      32.357  46.151  -5.250  0.00  0.00    +0.005 A 
ATOM     29  C   UNL     1      33.099  45.476  -4.254  0.00  0.00    +0.013 A 
BRANCH  18  19
ATOM     19  C   UNL     1      31.938  48.075  -6.889  0.00  0.00    +0.119 C 
BRANCH  19  20
ATOM     20  N   UNL     1      31.996  47.526  -8.277  0.00  0.00    -0.302 NA
ATOM     21  C   UNL     1      31.062  46.327  -8.460  0.00  0.00    +0.066 C 
ATOM     22  C   UNL     1      31.118  45.779  -9.923  0.00  0.00    -0.064 C 
ATOM     23  N   UNL     1      32.559  45.400 -10.268  0.00  0.00    +0.379 N 
ATOM     24  C   UNL     1      32.606  44.831 -11.622  0.00  0.00    -0.096 C 
ATOM     25  H   UNL     1      32.880  44.605  -9.555  0.00  0.00    -0.082 HD
ATOM     26  C   UNL     1      33.495  46.587 -10.086  0.00  0.00    -0.064 C 
ATOM     27  C   UNL     1      33.410  47.142  -8.637  0.00  0.00    +0.066 C 
ENDBRANCH  19  20
ENDBRANCH  18  19
ENDBRANCH  14  15
ENDBRANCH  12  13
TORSDOF 6
ENDMDL
MODEL 5
REMARK VINA RESULT:      -7.5      4.759     13.604
REMARK  Name = C:\Users\Docking\Desktop\test protocol\1iep_ligandH.pdb
REMARK  8 active torsions:
REMARK  status: ('A' for Active; 'I' for Inactive)
REMARK    1  A    between atoms: _5  and  _11
REMARK    2  A    between atoms: _19  and  _21
REMARK    3  A    between atoms: _22  and  _66
REMARK    4  A    between atoms: _27  and  _30
REMARK    5  A    between atoms: _32  and  _33
REMARK    6  A    between atoms: _38  and  _43
REMARK    7  A    between atoms: _43  and  _46
REMARK    8  A    between atoms: _53  and  _55
REMARK                            x       y       z     vdW  Elec       q    Type
REMARK                         _______ _______ _______ _____ _____    ______ ____
ROOT
ATOM     10  C   UNL     1      50.184  53.512   0.021  0.00  0.00    +0.038 A 
ATOM     11  C   UNL     1      49.149  52.603   0.359  0.00  0.00    +0.047 A 
ATOM     12  C   UNL     1      48.305  52.009  -0.666  0.00  0.00    +0.035 A 
ATOM     32  C   UNL     1      48.544  52.361  -2.026  0.00  0.00    +0.024 A 
ATOM     33  C   UNL     1      49.591  53.284  -2.388  0.00  0.00    +0.007 A 
ATOM     34  C   UNL     1      50.425  53.876  -1.381  0.00  0.00    -0.029 A 
ATOM     35  C   UNL     1      51.528  54.864  -1.826  0.00  0.00    +0.045 C 
ENDROOT
BRANCH  10   9
ATOM      4  C   UNL     1      51.001  56.769   3.450  0.00  0.00    +0.077 A 
ATOM      5  C   UNL     1      49.783  57.468   3.159  0.00  0.00    +0.048 A 
ATOM      6  C   UNL     1      48.978  56.962   2.114  0.00  0.00    +0.116 A 
ATOM      7  N   UNL     1      49.371  55.838   1.420  0.00  0.00    -0.223 NA
ATOM      8  C   UNL     1      50.553  55.189   1.725  0.00  0.00    +0.220 A 
ATOM      9  N   UNL     1      50.965  54.053   1.045  0.00  0.00    -0.283 N 
ATOM     36  H   UNL     1      51.847  53.607   1.295  0.00  0.00    +0.155 HD
ATOM     37  N   UNL     1      51.340  55.654   2.717  0.00  0.00    -0.214 NA
BRANCH   4   3
ATOM      1  C   UNL     1      52.591  57.511   6.946  0.00  0.00    +0.020 A 
ATOM      2  C   UNL     1      51.632  57.102   5.946  0.00  0.00    +0.013 A 
ATOM      3  C   UNL     1      51.956  57.180   4.527  0.00  0.00    +0.019 A 
ATOM     38  C   UNL     1      53.270  57.680   4.151  0.00  0.00    +0.120 A 
ATOM     39  N   UNL     1      54.172  58.068   5.137  0.00  0.00    -0.263 NA
ATOM     40  C   UNL     1      53.871  57.999   6.505  0.00  0.00    +0.111 A 
ENDBRANCH   4   3
ENDBRANCH  10   9
BRANCH  12  13
ATOM     13  N   UNL     1      47.234  51.086  -0.382  0.00  0.00    -0.281 N 
ATOM     14  C   UNL     1      47.173  49.734  -0.680  0.00  0.00    +0.248 C 
ATOM     30  O   UNL     1      47.945  49.157  -1.432  0.00  0.00    -0.270 OA
ATOM     31  H   UNL     1      46.423  51.476   0.098  0.00  0.00    +0.155 HD
BRANCH  14  15
ATOM     15  C   UNL     1      46.090  48.908  -0.067  0.00  0.00    +0.037 A 
ATOM     16  C   UNL     1      46.192  48.422   1.312  0.00  0.00    +0.013 A 
ATOM     17  C   UNL     1      45.141  47.612   1.873  0.00  0.00    +0.005 A 
ATOM     18  C   UNL     1      43.975  47.284   1.056  0.00  0.00    -0.033 A 
ATOM     28  C   UNL     1      43.896  47.783  -0.307  0.00  0.00    +0.005 A 
ATOM     29  C   UNL     1      44.926  48.576  -0.861  0.00  0.00    +0.013 A 
BRANCH  18  19
ATOM     19  C   UNL     1      42.815  46.408   1.566  0.00  0.00    +0.119 C 
BRANCH  19  20
ATOM     20  N   UNL     1      41.523  46.484   0.823  0.00  0.00    -0.302 NA
ATOM     21  C   UNL     1      40.614  47.592   1.363  0.00  0.00    +0.066 C 
ATOM     22  C   UNL     1      39.275  47.673   0.559  0.00  0.00    -0.064 C 
ATOM     23  N   UNL     1      38.568  46.317   0.614  0.00  0.00    +0.379 N 
ATOM     24  C   UNL     1      37.282  46.406  -0.092  0.00  0.00    -0.096 C 
ATOM     25  H   UNL     1      38.352  46.092   1.684  0.00  0.00    -0.082 HD
ATOM     26  C   UNL     1      39.466  45.210   0.081  0.00  0.00    -0.064 C 
ATOM     27  C   UNL     1      40.806  45.157   0.867  0.00  0.00    +0.066 C 
ENDBRANCH  19  20
ENDBRANCH  18  19
ENDBRANCH  14  15
ENDBRANCH  12  13
TORSDOF 6
ENDMDL
