MODEL 1
REMARK VINA RESULT:      -9.4      0.000      0.000
REMARK  Name = C:\Users\Docking\Desktop\test protocol\1iep_ligandH.pdb
REMARK  8 active torsions:
REMARK  status: ('A' for Active; 'I' for Inactive)
REMARK    1  A    between atoms: _5  and  _11
REMARK    2  A    between atoms: _19  and  _21
REMARK    3  A    between atoms: _22  and  _66
REMARK    4  A    between atoms: _27  and  _30
REMARK    5  A    between atoms: _32  and  _33
REMARK    6  A    between atoms: _38  and  _43
REMARK    7  A    between atoms: _43  and  _46
REMARK    8  A    between atoms: _53  and  _55
REMARK                            x       y       z     vdW  Elec       q    Type
REMARK                         _______ _______ _______ _____ _____    ______ ____
ROOT
ATOM     10  C   UNL     1      14.340  17.935  16.471  0.00  0.00    +0.038 A 
ATOM     11  C   UNL     1      13.987  19.190  17.030  0.00  0.00    +0.047 A 
ATOM     12  C   UNL     1      14.888  20.329  16.950  0.00  0.00    +0.035 A 
ATOM     32  C   UNL     1      16.141  20.155  16.291  0.00  0.00    +0.024 A 
ATOM     33  C   UNL     1      16.516  18.886  15.719  0.00  0.00    +0.007 A 
ATOM     34  C   UNL     1      15.632  17.758  15.796  0.00  0.00    -0.029 A 
ATOM     35  C   UNL     1      16.089  16.420  15.171  0.00  0.00    +0.045 C 
ENDROOT
BRANCH  10   9
ATOM      4  C   UNL     1      10.859  15.148  14.695  0.00  0.00    +0.077 A 
ATOM      5  C   UNL     1      10.818  15.883  13.463  0.00  0.00    +0.048 A 
ATOM      6  C   UNL     1      11.704  16.975  13.329  0.00  0.00    +0.116 A 
ATOM      7  N   UNL     1      12.563  17.299  14.357  0.00  0.00    -0.223 NA
ATOM      8  C   UNL     1      12.576  16.571  15.533  0.00  0.00    +0.220 A 
ATOM      9  N   UNL     1      13.436  16.875  16.576  0.00  0.00    -0.283 N 
ATOM     36  H   UNL     1      13.410  16.318  17.430  0.00  0.00    +0.155 HD
ATOM     37  N   UNL     1      11.738  15.524  15.685  0.00  0.00    -0.214 NA
BRANCH   4   3
ATOM      1  C   UNL     1       7.757  12.908  15.507  0.00  0.00    +0.020 A 
ATOM      2  C   UNL     1       8.554  14.081  15.232  0.00  0.00    +0.013 A 
ATOM      3  C   UNL     1       9.986  13.967  14.985  0.00  0.00    +0.019 A 
ATOM     38  C   UNL     1      10.585  12.641  15.025  0.00  0.00    +0.120 A 
ATOM     39  N   UNL     1       9.792  11.530  15.294  0.00  0.00    -0.263 NA
ATOM     40  C   UNL     1       8.414  11.627  15.534  0.00  0.00    +0.111 A 
ENDBRANCH   4   3
ENDBRANCH  10   9
BRANCH  12  13
ATOM     13  N   UNL     1      14.588  21.625  17.506  0.00  0.00    -0.281 N 
ATOM     14  C   UNL     1      13.621  22.526  17.091  0.00  0.00    +0.248 C 
ATOM     30  O   UNL     1      13.006  22.444  16.038  0.00  0.00    -0.270 OA
ATOM     31  H   UNL     1      15.158  21.913  18.301  0.00  0.00    +0.155 HD
BRANCH  14  15
ATOM     15  C   UNL     1      13.301  23.695  17.965  0.00  0.00    +0.037 A 
ATOM     16  C   UNL     1      12.402  24.760  17.512  0.00  0.00    +0.013 A 
ATOM     17  C   UNL     1      12.124  25.885  18.369  0.00  0.00    +0.005 A 
ATOM     18  C   UNL     1      12.746  25.951  19.689  0.00  0.00    -0.033 A 
ATOM     28  C   UNL     1      13.630  24.878  20.116  0.00  0.00    +0.005 A 
ATOM     29  C   UNL     1      13.905  23.774  19.278  0.00  0.00    +0.013 A 
BRANCH  18  19
ATOM     19  C   UNL     1      12.523  27.124  20.661  0.00  0.00    +0.119 C 
BRANCH  19  20
ATOM     20  N   UNL     1      13.390  28.328  20.490  0.00  0.00    -0.302 NA
ATOM     21  C   UNL     1      14.877  27.990  20.630  0.00  0.00    +0.066 C 
ATOM     22  C   UNL     1      15.770  29.256  20.426  0.00  0.00    -0.064 C 
ATOM     23  N   UNL     1      15.363  30.333  21.434  0.00  0.00    +0.379 N 
ATOM     24  C   UNL     1      16.239  31.503  21.283  0.00  0.00    -0.096 C 
ATOM     25  H   UNL     1      15.525  29.918  22.455  0.00  0.00    -0.082 HD
ATOM     26  C   UNL     1      13.885  30.673  21.303  0.00  0.00    -0.064 C 
ATOM     27  C   UNL     1      13.007  29.402  21.478  0.00  0.00    +0.066 C 
ENDBRANCH  19  20
ENDBRANCH  18  19
ENDBRANCH  14  15
ENDBRANCH  12  13
TORSDOF 6
ENDMDL
MODEL 2
REMARK VINA RESULT:      -9.2      6.440     11.488
REMARK  Name = C:\Users\Docking\Desktop\test protocol\1iep_ligandH.pdb
REMARK  8 active torsions:
REMARK  status: ('A' for Active; 'I' for Inactive)
REMARK    1  A    between atoms: _5  and  _11
REMARK    2  A    between atoms: _19  and  _21
REMARK    3  A    between atoms: _22  and  _66
REMARK    4  A    between atoms: _27  and  _30
REMARK    5  A    between atoms: _32  and  _33
REMARK    6  A    between atoms: _38  and  _43
REMARK    7  A    between atoms: _43  and  _46
REMARK    8  A    between atoms: _53  and  _55
REMARK                            x       y       z     vdW  Elec       q    Type
REMARK                         _______ _______ _______ _____ _____    ______ ____
ROOT
ATOM     10  C   UNL     1      14.737  17.006  15.892  0.00  0.00    +0.038 A 
ATOM     11  C   UNL     1      15.795  16.522  15.079  0.00  0.00    +0.047 A 
ATOM     12  C   UNL     1      16.846  17.409  14.606  0.00  0.00    +0.035 A 
ATOM     32  C   UNL     1      16.790  18.783  14.981  0.00  0.00    +0.024 A 
ATOM     33  C   UNL     1      15.722  19.292  15.805  0.00  0.00    +0.007 A 
ATOM     34  C   UNL     1      14.681  18.422  16.273  0.00  0.00    -0.029 A 
ATOM     35  C   UNL     1      13.557  19.023  17.148  0.00  0.00    +0.045 C 
ENDROOT
BRANCH  10   9
ATOM      4  C   UNL     1      10.611  14.636  15.266  0.00  0.00    +0.077 A 
ATOM      5  C   UNL     1      10.379  15.256  13.993  0.00  0.00    +0.048 A 
ATOM      6  C   UNL     1      11.343  16.184  13.538  0.00  0.00    +0.116 A 
ATOM      7  N   UNL     1      12.451  16.464  14.308  0.00  0.00    -0.223 NA
ATOM      8  C   UNL     1      12.643  15.849  15.532  0.00  0.00    +0.220 A 
ATOM      9  N   UNL     1      13.755  16.110  16.318  0.00  0.00    -0.283 N 
ATOM     36  H   UNL     1      13.856  15.641  17.219  0.00  0.00    +0.155 HD
ATOM     37  N   UNL     1      11.737  14.960  15.989  0.00  0.00    -0.214 NA
BRANCH   4   3
ATOM      1  C   UNL     1       8.604  12.507  17.862  0.00  0.00    +0.020 A 
ATOM      2  C   UNL     1       9.511  13.493  17.320  0.00  0.00    +0.013 A 
ATOM      3  C   UNL     1       9.686  13.632  15.880  0.00  0.00    +0.019 A 
ATOM     38  C   UNL     1       8.922  12.752  15.009  0.00  0.00    +0.120 A 
ATOM     39  N   UNL     1       8.057  11.811  15.560  0.00  0.00    -0.263 NA
ATOM     40  C   UNL     1       7.882  11.667  16.944  0.00  0.00    +0.111 A 
ENDBRANCH   4   3
ENDBRANCH  10   9
BRANCH  12  13
ATOM     13  N   UNL     1      17.940  16.977  13.772  0.00  0.00    -0.281 N 
ATOM     14  C   UNL     1      18.010  16.983  12.388  0.00  0.00    +0.248 C 
ATOM     30  O   UNL     1      17.054  17.162  11.649  0.00  0.00    -0.270 OA
ATOM     31  H   UNL     1      18.763  16.625  14.261  0.00  0.00    +0.155 HD
BRANCH  14  15
ATOM     15  C   UNL     1      19.331  16.739  11.731  0.00  0.00    +0.037 A 
ATOM     16  C   UNL     1      20.554  17.378  12.224  0.00  0.00    +0.013 A 
ATOM     17  C   UNL     1      21.811  17.140  11.561  0.00  0.00    +0.005 A 
ATOM     18  C   UNL     1      21.852  16.256  10.399  0.00  0.00    -0.033 A 
ATOM     28  C   UNL     1      20.624  15.630   9.935  0.00  0.00    +0.005 A 
ATOM     29  C   UNL     1      19.390  15.863  10.581  0.00  0.00    +0.013 A 
BRANCH  18  19
ATOM     19  C   UNL     1      23.146  15.961   9.617  0.00  0.00    +0.119 C 
BRANCH  19  20
ATOM     20  N   UNL     1      23.323  16.648   8.303  0.00  0.00    -0.302 NA
ATOM     21  C   UNL     1      24.161  15.817   7.328  0.00  0.00    +0.066 C 
ATOM     22  C   UNL     1      24.317  16.541   5.951  0.00  0.00    -0.064 C 
ATOM     23  N   UNL     1      24.948  17.917   6.171  0.00  0.00    +0.379 N 
ATOM     24  C   UNL     1      25.150  18.577   4.873  0.00  0.00    -0.096 C 
ATOM     25  H   UNL     1      25.952  17.759   6.630  0.00  0.00    -0.082 HD
ATOM     26  C   UNL     1      24.123  18.749   7.142  0.00  0.00    -0.064 C 
ATOM     27  C   UNL     1      23.949  18.008   8.496  0.00  0.00    +0.066 C 
ENDBRANCH  19  20
ENDBRANCH  18  19
ENDBRANCH  14  15
ENDBRANCH  12  13
TORSDOF 6
ENDMDL
MODEL 3
REMARK VINA RESULT:      -9.1      2.415      3.429
REMARK  Name = C:\Users\Docking\Desktop\test protocol\1iep_ligandH.pdb
REMARK  8 active torsions:
REMARK  status: ('A' for Active; 'I' for Inactive)
REMARK    1  A    between atoms: _5  and  _11
REMARK    2  A    between atoms: _19  and  _21
REMARK    3  A    between atoms: _22  and  _66
REMARK    4  A    between atoms: _27  and  _30
REMARK    5  A    between atoms: _32  and  _33
REMARK    6  A    between atoms: _38  and  _43
REMARK    7  A    between atoms: _43  and  _46
REMARK    8  A    between atoms: _53  and  _55
REMARK                            x       y       z     vdW  Elec       q    Type
REMARK                         _______ _______ _______ _____ _____    ______ ____
ROOT
ATOM     10  C   UNL     1      13.634  17.449  16.067  0.00  0.00    +0.038 A 
ATOM     11  C   UNL     1      13.271  18.744  16.515  0.00  0.00    +0.047 A 
ATOM     12  C   UNL     1      14.281  19.727  16.876  0.00  0.00    +0.035 A 
ATOM     32  C   UNL     1      15.653  19.356  16.768  0.00  0.00    +0.024 A 
ATOM     33  C   UNL     1      16.040  18.043  16.316  0.00  0.00    +0.007 A 
ATOM     34  C   UNL     1      15.048  17.069  15.960  0.00  0.00    -0.029 A 
ATOM     35  C   UNL     1      15.521  15.675  15.488  0.00  0.00    +0.045 C 
ENDROOT
BRANCH  10   9
ATOM      4  C   UNL     1      10.245  14.262  17.249  0.00  0.00    +0.077 A 
ATOM      5  C   UNL     1      10.531  14.389  18.649  0.00  0.00    +0.048 A 
ATOM      6  C   UNL     1      11.562  15.279  19.023  0.00  0.00    +0.116 A 
ATOM      7  N   UNL     1      12.250  15.985  18.060  0.00  0.00    -0.223 NA
ATOM      8  C   UNL     1      11.950  15.839  16.718  0.00  0.00    +0.220 A 
ATOM      9  N   UNL     1      12.623  16.545  15.733  0.00  0.00    -0.283 N 
ATOM     36  H   UNL     1      12.377  16.403  14.754  0.00  0.00    +0.155 HD
ATOM     37  N   UNL     1      10.970  14.994  16.335  0.00  0.00    -0.214 NA
BRANCH   4   3
ATOM      1  C   UNL     1       7.704  12.535  14.828  0.00  0.00    +0.020 A 
ATOM      2  C   UNL     1       8.735  13.425  15.311  0.00  0.00    +0.013 A 
ATOM      3  C   UNL     1       9.181  13.365  16.697  0.00  0.00    +0.019 A 
ATOM     38  C   UNL     1       8.560  12.385  17.575  0.00  0.00    +0.120 A 
ATOM     39  N   UNL     1       7.569  11.541  17.082  0.00  0.00    -0.263 NA
ATOM     40  C   UNL     1       7.130  11.591  15.751  0.00  0.00    +0.111 A 
ENDBRANCH   4   3
ENDBRANCH  10   9
BRANCH  12  13
ATOM     13  N   UNL     1      13.971  21.055  17.345  0.00  0.00    -0.281 N 
ATOM     14  C   UNL     1      13.294  22.059  16.672  0.00  0.00    +0.248 C 
ATOM     30  O   UNL     1      13.036  22.038  15.478  0.00  0.00    -0.270 OA
ATOM     31  H   UNL     1      14.291  21.283  18.287  0.00  0.00    +0.155 HD
BRANCH  14  15
ATOM     15  C   UNL     1      12.852  23.266  17.434  0.00  0.00    +0.037 A 
ATOM     16  C   UNL     1      11.674  24.035  17.022  0.00  0.00    +0.013 A 
ATOM     17  C   UNL     1      11.279  25.206  17.764  0.00  0.00    +0.005 A 
ATOM     18  C   UNL     1      12.063  25.615  18.927  0.00  0.00    -0.033 A 
ATOM     28  C   UNL     1      13.223  24.831  19.317  0.00  0.00    +0.005 A 
ATOM     29  C   UNL     1      13.614  23.683  18.591  0.00  0.00    +0.013 A 
BRANCH  18  19
ATOM     19  C   UNL     1      11.727  26.862  19.766  0.00  0.00    +0.119 C 
BRANCH  19  20
ATOM     20  N   UNL     1      10.686  26.714  20.826  0.00  0.00    -0.302 NA
ATOM     21  C   UNL     1       9.268  26.796  20.255  0.00  0.00    +0.066 C 
ATOM     22  C   UNL     1       8.192  26.616  21.375  0.00  0.00    -0.064 C 
ATOM     23  N   UNL     1       8.403  27.677  22.456  0.00  0.00    +0.379 N 
ATOM     24  C   UNL     1       7.358  27.548  23.482  0.00  0.00    -0.096 C 
ATOM     25  H   UNL     1       8.284  28.677  21.977  0.00  0.00    -0.082 HD
ATOM     26  C   UNL     1       9.812  27.605  23.028  0.00  0.00    -0.064 C 
ATOM     27  C   UNL     1      10.873  27.755  21.902  0.00  0.00    +0.066 C 
ENDBRANCH  19  20
ENDBRANCH  18  19
ENDBRANCH  14  15
ENDBRANCH  12  13
TORSDOF 6
ENDMDL
MODEL 4
REMARK VINA RESULT:      -8.8      6.372     10.830
REMARK  Name = C:\Users\Docking\Desktop\test protocol\1iep_ligandH.pdb
REMARK  8 active torsions:
REMARK  status: ('A' for Active; 'I' for Inactive)
REMARK    1  A    between atoms: _5  and  _11
REMARK    2  A    between atoms: _19  and  _21
REMARK    3  A    between atoms: _22  and  _66
REMARK    4  A    between atoms: _27  and  _30
REMARK    5  A    between atoms: _32  and  _33
REMARK    6  A    between atoms: _38  and  _43
REMARK    7  A    between atoms: _43  and  _46
REMARK    8  A    between atoms: _53  and  _55
REMARK                            x       y       z     vdW  Elec       q    Type
REMARK                         _______ _______ _______ _____ _____    ______ ____
ROOT
ATOM     10  C   UNL     1      14.828  17.398  15.862  0.00  0.00    +0.038 A 
ATOM     11  C   UNL     1      16.005  16.967  15.199  0.00  0.00    +0.047 A 
ATOM     12  C   UNL     1      17.017  17.919  14.768  0.00  0.00    +0.035 A 
ATOM     32  C   UNL     1      16.798  19.303  15.031  0.00  0.00    +0.024 A 
ATOM     33  C   UNL     1      15.607  19.758  15.704  0.00  0.00    +0.007 A 
ATOM     34  C   UNL     1      14.604  18.824  16.129  0.00  0.00    -0.029 A 
ATOM     35  C   UNL     1      13.344  19.369  16.840  0.00  0.00    +0.045 C 
ENDROOT
BRANCH  10   9
ATOM      4  C   UNL     1      10.845  14.824  15.122  0.00  0.00    +0.077 A 
ATOM      5  C   UNL     1      10.598  15.459  13.859  0.00  0.00    +0.048 A 
ATOM      6  C   UNL     1      11.516  16.448  13.440  0.00  0.00    +0.116 A 
ATOM      7  N   UNL     1      12.597  16.769  14.232  0.00  0.00    -0.223 NA
ATOM      8  C   UNL     1      12.805  16.139  15.445  0.00  0.00    +0.220 A 
ATOM      9  N   UNL     1      13.889  16.441  16.254  0.00  0.00    -0.283 N 
ATOM     36  H   UNL     1      14.003  15.958  17.145  0.00  0.00    +0.155 HD
ATOM     37  N   UNL     1      11.942  15.192  15.868  0.00  0.00    -0.214 NA
BRANCH   4   3
ATOM      1  C   UNL     1       9.018  12.449  17.636  0.00  0.00    +0.020 A 
ATOM      2  C   UNL     1       9.882  13.490  17.130  0.00  0.00    +0.013 A 
ATOM      3  C   UNL     1       9.967  13.757  15.699  0.00  0.00    +0.019 A 
ATOM     38  C   UNL     1       9.158  12.947  14.802  0.00  0.00    +0.120 A 
ATOM     39  N   UNL     1       8.337  11.950  15.318  0.00  0.00    -0.263 NA
ATOM     40  C   UNL     1       8.248  11.682  16.692  0.00  0.00    +0.111 A 
ENDBRANCH   4   3
ENDBRANCH  10   9
BRANCH  12  13
ATOM     13  N   UNL     1      18.228  17.542  14.082  0.00  0.00    -0.281 N 
ATOM     14  C   UNL     1      18.426  17.398  12.719  0.00  0.00    +0.248 C 
ATOM     30  O   UNL     1      17.528  17.365  11.890  0.00  0.00    -0.270 OA
ATOM     31  H   UNL     1      19.038  17.358  14.675  0.00  0.00    +0.155 HD
BRANCH  14  15
ATOM     15  C   UNL     1      19.821  17.256  12.203  0.00  0.00    +0.037 A 
ATOM     16  C   UNL     1      20.845  18.263  12.493  0.00  0.00    +0.013 A 
ATOM     17  C   UNL     1      22.179  18.111  11.968  0.00  0.00    +0.005 A 
ATOM     18  C   UNL     1      22.497  16.944  11.148  0.00  0.00    -0.033 A 
ATOM     28  C   UNL     1      21.464  15.958  10.880  0.00  0.00    +0.005 A 
ATOM     29  C   UNL     1      20.155  16.104  11.392  0.00  0.00    +0.013 A 
BRANCH  18  19
ATOM     19  C   UNL     1      23.888  16.711  10.530  0.00  0.00    +0.119 C 
BRANCH  19  20
ATOM     20  N   UNL     1      25.022  17.516  11.074  0.00  0.00    -0.302 NA
ATOM     21  C   UNL     1      25.624  18.446  10.017  0.00  0.00    +0.066 C 
ATOM     22  C   UNL     1      26.795  19.298  10.609  0.00  0.00    -0.064 C 
ATOM     23  N   UNL     1      27.863  18.363  11.180  0.00  0.00    +0.379 N 
ATOM     24  C   UNL     1      28.991  19.159  11.686  0.00  0.00    -0.096 C 
ATOM     25  H   UNL     1      28.242  17.732  10.344  0.00  0.00    -0.082 HD
ATOM     26  C   UNL     1      27.271  17.433  12.230  0.00  0.00    -0.064 C 
ATOM     27  C   UNL     1      26.090  16.613  11.640  0.00  0.00    +0.066 C 
ENDBRANCH  19  20
ENDBRANCH  18  19
ENDBRANCH  14  15
ENDBRANCH  12  13
TORSDOF 6
ENDMDL
MODEL 5
REMARK VINA RESULT:      -8.6     28.543     32.053
REMARK  Name = C:\Users\Docking\Desktop\test protocol\1iep_ligandH.pdb
REMARK  8 active torsions:
REMARK  status: ('A' for Active; 'I' for Inactive)
REMARK    1  A    between atoms: _5  and  _11
REMARK    2  A    between atoms: _19  and  _21
REMARK    3  A    between atoms: _22  and  _66
REMARK    4  A    between atoms: _27  and  _30
REMARK    5  A    between atoms: _32  and  _33
REMARK    6  A    between atoms: _38  and  _43
REMARK    7  A    between atoms: _43  and  _46
REMARK    8  A    between atoms: _53  and  _55
REMARK                            x       y       z     vdW  Elec       q    Type
REMARK                         _______ _______ _______ _____ _____    ______ ____
ROOT
ATOM     10  C   UNL     1     -13.059  15.572  30.939  0.00  0.00    +0.038 A 
ATOM     11  C   UNL     1     -14.087  16.462  30.537  0.00  0.00    +0.047 A 
ATOM     12  C   UNL     1     -15.423  16.374  31.105  0.00  0.00    +0.035 A 
ATOM     32  C   UNL     1     -15.677  15.368  32.083  0.00  0.00    +0.024 A 
ATOM     33  C   UNL     1     -14.644  14.454  32.502  0.00  0.00    +0.007 A 
ATOM     34  C   UNL     1     -13.325  14.534  31.944  0.00  0.00    -0.029 A 
ATOM     35  C   UNL     1     -12.258  13.524  32.426  0.00  0.00    +0.045 C 
ENDROOT
BRANCH  10   9
ATOM      4  C   UNL     1      -9.769  14.397  27.648  0.00  0.00    +0.077 A 
ATOM      5  C   UNL     1     -10.634  13.424  27.045  0.00  0.00    +0.048 A 
ATOM      6  C   UNL     1     -11.914  13.251  27.617  0.00  0.00    +0.116 A 
ATOM      7  N   UNL     1     -12.292  14.001  28.709  0.00  0.00    -0.223 NA
ATOM      8  C   UNL     1     -11.433  14.930  29.267  0.00  0.00    +0.220 A 
ATOM      9  N   UNL     1     -11.794  15.701  30.361  0.00  0.00    -0.283 N 
ATOM     36  H   UNL     1     -11.129  16.370  30.748  0.00  0.00    +0.155 HD
ATOM     37  N   UNL     1     -10.204  15.113  28.741  0.00  0.00    -0.214 NA
BRANCH   4   3
ATOM      1  C   UNL     1      -6.358  16.183  26.956  0.00  0.00    +0.020 A 
ATOM      2  C   UNL     1      -7.693  15.943  27.455  0.00  0.00    +0.013 A 
ATOM      3  C   UNL     1      -8.387  14.697  27.156  0.00  0.00    +0.019 A 
ATOM     38  C   UNL     1      -7.697  13.706  26.344  0.00  0.00    +0.120 A 
ATOM     39  N   UNL     1      -6.413  13.965  25.876  0.00  0.00    -0.263 NA
ATOM     40  C   UNL     1      -5.736  15.161  26.156  0.00  0.00    +0.111 A 
ENDBRANCH   4   3
ENDBRANCH  10   9
BRANCH  12  13
ATOM     13  N   UNL     1     -16.509  17.246  30.730  0.00  0.00    -0.281 N 
ATOM     14  C   UNL     1     -17.740  16.894  30.201  0.00  0.00    +0.248 C 
ATOM     30  O   UNL     1     -18.015  15.784  29.769  0.00  0.00    -0.270 OA
ATOM     31  H   UNL     1     -16.351  18.244  30.872  0.00  0.00    +0.155 HD
BRANCH  14  15
ATOM     15  C   UNL     1     -18.817  17.927  30.129  0.00  0.00    +0.037 A 
ATOM     16  C   UNL     1     -19.340  18.566  31.339  0.00  0.00    +0.013 A 
ATOM     17  C   UNL     1     -20.391  19.548  31.243  0.00  0.00    +0.005 A 
ATOM     18  C   UNL     1     -20.926  19.897  29.929  0.00  0.00    -0.033 A 
ATOM     28  C   UNL     1     -20.385  19.252  28.744  0.00  0.00    +0.005 A 
ATOM     29  C   UNL     1     -19.356  18.289  28.835  0.00  0.00    +0.013 A 
BRANCH  18  19
ATOM     19  C   UNL     1     -22.062  20.918  29.733  0.00  0.00    +0.119 C 
BRANCH  19  20
ATOM     20  N   UNL     1     -22.035  21.742  28.488  0.00  0.00    -0.302 NA
ATOM     21  C   UNL     1     -21.673  23.202  28.772  0.00  0.00    +0.066 C 
ATOM     22  C   UNL     1     -21.626  24.044  27.456  0.00  0.00    -0.064 C 
ATOM     23  N   UNL     1     -22.978  23.950  26.746  0.00  0.00    +0.379 N 
ATOM     24  C   UNL     1     -22.957  24.787  25.537  0.00  0.00    -0.096 C 
ATOM     25  H   UNL     1     -23.750  24.367  27.433  0.00  0.00    -0.082 HD
ATOM     26  C   UNL     1     -23.347  22.501  26.461  0.00  0.00    -0.064 C 
ATOM     27  C   UNL     1     -23.362  21.666  27.773  0.00  0.00    +0.066 C 
ENDBRANCH  19  20
ENDBRANCH  18  19
ENDBRANCH  14  15
ENDBRANCH  12  13
TORSDOF 6
ENDMDL
