MODEL 1
REMARK VINA RESULT:      -7.6      0.000      0.000
REMARK  Name = C:\Users\Docking\Desktop\test protocol\1iep_ligandH.pdb
REMARK  8 active torsions:
REMARK  status: ('A' for Active; 'I' for Inactive)
REMARK    1  A    between atoms: _5  and  _11
REMARK    2  A    between atoms: _19  and  _21
REMARK    3  A    between atoms: _22  and  _66
REMARK    4  A    between atoms: _27  and  _30
REMARK    5  A    between atoms: _32  and  _33
REMARK    6  A    between atoms: _38  and  _43
REMARK    7  A    between atoms: _43  and  _46
REMARK    8  A    between atoms: _53  and  _55
REMARK                            x       y       z     vdW  Elec       q    Type
REMARK                         _______ _______ _______ _____ _____    ______ ____
ROOT
ATOM     10  C   UNL     1     -13.295 -21.635  -8.462  0.00  0.00    +0.038 A 
ATOM     11  C   UNL     1     -13.249 -21.179  -7.120  0.00  0.00    +0.047 A 
ATOM     12  C   UNL     1     -13.186 -22.115  -6.008  0.00  0.00    +0.035 A 
ATOM     32  C   UNL     1     -13.169 -23.510  -6.300  0.00  0.00    +0.024 A 
ATOM     33  C   UNL     1     -13.216 -23.992  -7.658  0.00  0.00    +0.007 A 
ATOM     34  C   UNL     1     -13.281 -23.073  -8.759  0.00  0.00    -0.029 A 
ATOM     35  C   UNL     1     -13.336 -23.646 -10.194  0.00  0.00    +0.045 C 
ENDROOT
BRANCH  10   9
ATOM      4  C   UNL     1     -15.738 -18.819 -11.485  0.00  0.00    +0.077 A 
ATOM      5  C   UNL     1     -17.002 -19.285 -10.992  0.00  0.00    +0.048 A 
ATOM      6  C   UNL     1     -16.980 -20.255  -9.965  0.00  0.00    +0.116 A 
ATOM      7  N   UNL     1     -15.777 -20.717  -9.475  0.00  0.00    -0.223 NA
ATOM      8  C   UNL     1     -14.576 -20.248  -9.974  0.00  0.00    +0.220 A 
ATOM      9  N   UNL     1     -13.355 -20.692  -9.490  0.00  0.00    -0.283 N 
ATOM     36  H   UNL     1     -12.491 -20.327  -9.890  0.00  0.00    +0.155 HD
ATOM     37  N   UNL     1     -14.571 -19.322 -10.956  0.00  0.00    -0.214 NA
BRANCH   4   3
ATOM      1  C   UNL     1     -15.904 -15.468 -13.496  0.00  0.00    +0.020 A 
ATOM      2  C   UNL     1     -16.065 -16.420 -12.422  0.00  0.00    +0.013 A 
ATOM      3  C   UNL     1     -15.597 -17.793 -12.566  0.00  0.00    +0.019 A 
ATOM     38  C   UNL     1     -14.964 -18.173 -13.820  0.00  0.00    +0.120 A 
ATOM     39  N   UNL     1     -14.823 -17.235 -14.838  0.00  0.00    -0.263 NA
ATOM     40  C   UNL     1     -15.272 -15.912 -14.711  0.00  0.00    +0.111 A 
ENDBRANCH   4   3
ENDBRANCH  10   9
BRANCH  12  13
ATOM     13  N   UNL     1     -13.145 -21.710  -4.625  0.00  0.00    -0.281 N 
ATOM     14  C   UNL     1     -14.207 -21.347  -3.812  0.00  0.00    +0.248 C 
ATOM     30  O   UNL     1     -15.336 -21.108  -4.215  0.00  0.00    -0.270 OA
ATOM     31  H   UNL     1     -12.222 -21.689  -4.192  0.00  0.00    +0.155 HD
BRANCH  14  15
ATOM     15  C   UNL     1     -13.978 -21.216  -2.341  0.00  0.00    +0.037 A 
ATOM     16  C   UNL     1     -12.811 -21.823  -1.696  0.00  0.00    +0.013 A 
ATOM     17  C   UNL     1     -12.623 -21.695  -0.273  0.00  0.00    +0.005 A 
ATOM     18  C   UNL     1     -13.606 -20.956   0.516  0.00  0.00    -0.033 A 
ATOM     28  C   UNL     1     -14.752 -20.360  -0.150  0.00  0.00    +0.005 A 
ATOM     29  C   UNL     1     -14.940 -20.484  -1.545  0.00  0.00    +0.013 A 
BRANCH  18  19
ATOM     19  C   UNL     1     -13.497 -20.788   2.043  0.00  0.00    +0.119 C 
BRANCH  19  20
ATOM     20  N   UNL     1     -14.770 -20.625   2.805  0.00  0.00    -0.302 NA
ATOM     21  C   UNL     1     -14.613 -19.666   3.989  0.00  0.00    +0.066 C 
ATOM     22  C   UNL     1     -15.960 -19.489   4.762  0.00  0.00    -0.064 C 
ATOM     23  N   UNL     1     -16.456 -20.856   5.235  0.00  0.00    +0.379 N 
ATOM     24  C   UNL     1     -17.693 -20.687   6.012  0.00  0.00    -0.096 C 
ATOM     25  H   UNL     1     -15.683 -21.279   5.918  0.00  0.00    -0.082 HD
ATOM     26  C   UNL     1     -16.614 -21.817   4.065  0.00  0.00    -0.064 C 
ATOM     27  C   UNL     1     -15.277 -21.963   3.286  0.00  0.00    +0.066 C 
ENDBRANCH  19  20
ENDBRANCH  18  19
ENDBRANCH  14  15
ENDBRANCH  12  13
TORSDOF 6
ENDMDL
MODEL 2
REMARK VINA RESULT:      -7.5     29.161     33.922
REMARK  Name = C:\Users\Docking\Desktop\test protocol\1iep_ligandH.pdb
REMARK  8 active torsions:
REMARK  status: ('A' for Active; 'I' for Inactive)
REMARK    1  A    between atoms: _5  and  _11
REMARK    2  A    between atoms: _19  and  _21
REMARK    3  A    between atoms: _22  and  _66
REMARK    4  A    between atoms: _27  and  _30
REMARK    5  A    between atoms: _32  and  _33
REMARK    6  A    between atoms: _38  and  _43
REMARK    7  A    between atoms: _43  and  _46
REMARK    8  A    between atoms: _53  and  _55
REMARK                            x       y       z     vdW  Elec       q    Type
REMARK                         _______ _______ _______ _____ _____    ______ ____
ROOT
ATOM     10  C   UNL     1     -11.077   9.661 -18.228  0.00  0.00    +0.038 A 
ATOM     11  C   UNL     1     -11.565   8.710 -19.160  0.00  0.00    +0.047 A 
ATOM     12  C   UNL     1     -12.832   8.909 -19.845  0.00  0.00    +0.035 A 
ATOM     32  C   UNL     1     -13.576  10.091 -19.560  0.00  0.00    +0.024 A 
ATOM     33  C   UNL     1     -13.096  11.068 -18.615  0.00  0.00    +0.007 A 
ATOM     34  C   UNL     1     -11.848  10.876 -17.934  0.00  0.00    -0.029 A 
ATOM     35  C   UNL     1     -11.385  11.954 -16.926  0.00  0.00    +0.045 C 
ENDROOT
BRANCH  10   9
ATOM      4  C   UNL     1      -6.356  10.374 -17.736  0.00  0.00    +0.077 A 
ATOM      5  C   UNL     1      -6.319  11.284 -18.844  0.00  0.00    +0.048 A 
ATOM      6  C   UNL     1      -7.534  11.537 -19.518  0.00  0.00    +0.116 A 
ATOM      7  N   UNL     1      -8.695  10.920 -19.106  0.00  0.00    -0.223 NA
ATOM      8  C   UNL     1      -8.697  10.046 -18.035  0.00  0.00    +0.220 A 
ATOM      9  N   UNL     1      -9.854   9.420 -17.598  0.00  0.00    -0.283 N 
ATOM     36  H   UNL     1      -9.812   8.776 -16.809  0.00  0.00    +0.155 HD
ATOM     37  N   UNL     1      -7.549   9.786 -17.375  0.00  0.00    -0.214 NA
BRANCH   4   3
ATOM      1  C   UNL     1      -3.561   8.330 -15.917  0.00  0.00    +0.020 A 
ATOM      2  C   UNL     1      -4.729   8.630 -16.713  0.00  0.00    +0.013 A 
ATOM      3  C   UNL     1      -5.155  10.008 -16.921  0.00  0.00    +0.019 A 
ATOM     38  C   UNL     1      -4.370  11.068 -16.307  0.00  0.00    +0.120 A 
ATOM     39  N   UNL     1      -3.250  10.749 -15.545  0.00  0.00    -0.263 NA
ATOM     40  C   UNL     1      -2.832   9.427 -15.336  0.00  0.00    +0.111 A 
ENDBRANCH   4   3
ENDBRANCH  10   9
BRANCH  12  13
ATOM     13  N   UNL     1     -13.382   7.973 -20.795  0.00  0.00    -0.281 N 
ATOM     14  C   UNL     1     -12.854   7.592 -22.018  0.00  0.00    +0.248 C 
ATOM     30  O   UNL     1     -11.929   8.161 -22.579  0.00  0.00    -0.270 OA
ATOM     31  H   UNL     1     -14.268   7.540 -20.535  0.00  0.00    +0.155 HD
BRANCH  14  15
ATOM     15  C   UNL     1     -13.447   6.417 -22.725  0.00  0.00    +0.037 A 
ATOM     16  C   UNL     1     -12.772   5.798 -23.869  0.00  0.00    +0.013 A 
ATOM     17  C   UNL     1     -13.375   4.676 -24.544  0.00  0.00    +0.005 A 
ATOM     18  C   UNL     1     -14.661   4.165 -24.076  0.00  0.00    -0.033 A 
ATOM     28  C   UNL     1     -15.307   4.795 -22.936  0.00  0.00    +0.005 A 
ATOM     29  C   UNL     1     -14.719   5.895 -22.272  0.00  0.00    +0.013 A 
BRANCH  18  19
ATOM     19  C   UNL     1     -15.388   2.986 -24.750  0.00  0.00    +0.119 C 
BRANCH  19  20
ATOM     20  N   UNL     1     -14.545   1.855 -25.242  0.00  0.00    -0.302 NA
ATOM     21  C   UNL     1     -14.627   1.697 -26.763  0.00  0.00    +0.066 C 
ATOM     22  C   UNL     1     -13.722   0.524 -27.263  0.00  0.00    -0.064 C 
ATOM     23  N   UNL     1     -14.137  -0.770 -26.561  0.00  0.00    +0.379 N 
ATOM     24  C   UNL     1     -13.327  -1.886 -27.072  0.00  0.00    -0.096 C 
ATOM     25  H   UNL     1     -15.200  -0.974 -26.828  0.00  0.00    -0.082 HD
ATOM     26  C   UNL     1     -14.061  -0.622 -25.048  0.00  0.00    -0.064 C 
ATOM     27  C   UNL     1     -14.941   0.565 -24.565  0.00  0.00    +0.066 C 
ENDBRANCH  19  20
ENDBRANCH  18  19
ENDBRANCH  14  15
ENDBRANCH  12  13
TORSDOF 6
ENDMDL
MODEL 3
REMARK VINA RESULT:      -7.5     27.564     33.599
REMARK  Name = C:\Users\Docking\Desktop\test protocol\1iep_ligandH.pdb
REMARK  8 active torsions:
REMARK  status: ('A' for Active; 'I' for Inactive)
REMARK    1  A    between atoms: _5  and  _11
REMARK    2  A    between atoms: _19  and  _21
REMARK    3  A    between atoms: _22  and  _66
REMARK    4  A    between atoms: _27  and  _30
REMARK    5  A    between atoms: _32  and  _33
REMARK    6  A    between atoms: _38  and  _43
REMARK    7  A    between atoms: _43  and  _46
REMARK    8  A    between atoms: _53  and  _55
REMARK                            x       y       z     vdW  Elec       q    Type
REMARK                         _______ _______ _______ _____ _____    ______ ____
ROOT
ATOM     10  C   UNL     1     -10.540   9.692 -17.908  0.00  0.00    +0.038 A 
ATOM     11  C   UNL     1     -11.084   8.809 -18.876  0.00  0.00    +0.047 A 
ATOM     12  C   UNL     1     -12.381   9.064 -19.482  0.00  0.00    +0.035 A 
ATOM     32  C   UNL     1     -13.097  10.230 -19.082  0.00  0.00    +0.024 A 
ATOM     33  C   UNL     1     -12.559  11.137 -18.099  0.00  0.00    +0.007 A 
ATOM     34  C   UNL     1     -11.281  10.890 -17.495  0.00  0.00    -0.029 A 
ATOM     35  C   UNL     1     -10.757  11.893 -16.442  0.00  0.00    +0.045 C 
ENDROOT
BRANCH  10   9
ATOM      4  C   UNL     1      -5.783  10.283 -17.654  0.00  0.00    +0.077 A 
ATOM      5  C   UNL     1      -5.785  11.237 -18.725  0.00  0.00    +0.048 A 
ATOM      6  C   UNL     1      -7.030  11.543 -19.319  0.00  0.00    +0.116 A 
ATOM      7  N   UNL     1      -8.181  10.934 -18.868  0.00  0.00    -0.223 NA
ATOM      8  C   UNL     1      -8.144  10.017 -17.834  0.00  0.00    +0.220 A 
ATOM      9  N   UNL     1      -9.290   9.398 -17.359  0.00  0.00    -0.283 N 
ATOM     36  H   UNL     1      -9.220   8.722 -16.599  0.00  0.00    +0.155 HD
ATOM     37  N   UNL     1      -6.967   9.706 -17.251  0.00  0.00    -0.214 NA
BRANCH   4   3
ATOM      1  C   UNL     1      -3.324   8.431 -15.242  0.00  0.00    +0.020 A 
ATOM      2  C   UNL     1      -4.545   8.803 -15.918  0.00  0.00    +0.013 A 
ATOM      3  C   UNL     1      -4.548   9.858 -16.923  0.00  0.00    +0.019 A 
ATOM     38  C   UNL     1      -3.288  10.521 -17.224  0.00  0.00    +0.120 A 
ATOM     39  N   UNL     1      -2.128  10.142 -16.556  0.00  0.00    -0.263 NA
ATOM     40  C   UNL     1      -2.113   9.130 -15.585  0.00  0.00    +0.111 A 
ENDBRANCH   4   3
ENDBRANCH  10   9
BRANCH  12  13
ATOM     13  N   UNL     1     -12.988   8.199 -20.464  0.00  0.00    -0.281 N 
ATOM     14  C   UNL     1     -12.494   7.847 -21.709  0.00  0.00    +0.248 C 
ATOM     30  O   UNL     1     -11.550   8.394 -22.259  0.00  0.00    -0.270 OA
ATOM     31  H   UNL     1     -13.891   7.798 -20.210  0.00  0.00    +0.155 HD
BRANCH  14  15
ATOM     15  C   UNL     1     -13.153   6.734 -22.459  0.00  0.00    +0.037 A 
ATOM     16  C   UNL     1     -12.556   6.179 -23.676  0.00  0.00    +0.013 A 
ATOM     17  C   UNL     1     -13.222   5.118 -24.389  0.00  0.00    +0.005 A 
ATOM     18  C   UNL     1     -14.493   4.604 -23.885  0.00  0.00    -0.033 A 
ATOM     28  C   UNL     1     -15.060   5.169 -22.672  0.00  0.00    +0.005 A 
ATOM     29  C   UNL     1     -14.411   6.210 -21.971  0.00  0.00    +0.013 A 
BRANCH  18  19
ATOM     19  C   UNL     1     -15.283   3.487 -24.594  0.00  0.00    +0.119 C 
BRANCH  19  20
ATOM     20  N   UNL     1     -15.922   2.449 -23.731  0.00  0.00    -0.302 NA
ATOM     21  C   UNL     1     -15.523   1.031 -24.148  0.00  0.00    +0.066 C 
ATOM     22  C   UNL     1     -16.183  -0.042 -23.221  0.00  0.00    -0.064 C 
ATOM     23  N   UNL     1     -17.703   0.125 -23.254  0.00  0.00    +0.379 N 
ATOM     24  C   UNL     1     -18.329  -0.918 -22.429  0.00  0.00    -0.096 C 
ATOM     25  H   UNL     1     -18.037  -0.029 -24.306  0.00  0.00    -0.082 HD
ATOM     26  C   UNL     1     -18.108   1.534 -22.843  0.00  0.00    -0.064 C 
ATOM     27  C   UNL     1     -17.424   2.593 -23.752  0.00  0.00    +0.066 C 
ENDBRANCH  19  20
ENDBRANCH  18  19
ENDBRANCH  14  15
ENDBRANCH  12  13
TORSDOF 6
ENDMDL
MODEL 4
REMARK VINA RESULT:      -7.5     31.199     33.289
REMARK  Name = C:\Users\Docking\Desktop\test protocol\1iep_ligandH.pdb
REMARK  8 active torsions:
REMARK  status: ('A' for Active; 'I' for Inactive)
REMARK    1  A    between atoms: _5  and  _11
REMARK    2  A    between atoms: _19  and  _21
REMARK    3  A    between atoms: _22  and  _66
REMARK    4  A    between atoms: _27  and  _30
REMARK    5  A    between atoms: _32  and  _33
REMARK    6  A    between atoms: _38  and  _43
REMARK    7  A    between atoms: _43  and  _46
REMARK    8  A    between atoms: _53  and  _55
REMARK                            x       y       z     vdW  Elec       q    Type
REMARK                         _______ _______ _______ _____ _____    ______ ____
ROOT
ATOM     10  C   UNL     1     -11.771   9.202 -18.717  0.00  0.00    +0.038 A 
ATOM     11  C   UNL     1     -10.426   8.883 -18.399  0.00  0.00    +0.047 A 
ATOM     12  C   UNL     1      -9.541   9.868 -17.797  0.00  0.00    +0.035 A 
ATOM     32  C   UNL     1     -10.059  11.169 -17.530  0.00  0.00    +0.024 A 
ATOM     33  C   UNL     1     -11.423  11.511 -17.848  0.00  0.00    +0.007 A 
ATOM     34  C   UNL     1     -12.300  10.544 -18.444  0.00  0.00    -0.029 A 
ATOM     35  C   UNL     1     -13.752  10.968 -18.770  0.00  0.00    +0.045 C 
ENDROOT
BRANCH  10   9
ATOM      4  C   UNL     1     -13.464   6.809 -22.518  0.00  0.00    +0.077 A 
ATOM      5  C   UNL     1     -12.699   7.605 -23.434  0.00  0.00    +0.048 A 
ATOM      6  C   UNL     1     -11.888   8.624 -22.887  0.00  0.00    +0.116 A 
ATOM      7  N   UNL     1     -11.852   8.824 -21.524  0.00  0.00    -0.223 NA
ATOM      8  C   UNL     1     -12.603   8.040 -20.669  0.00  0.00    +0.220 A 
ATOM      9  N   UNL     1     -12.576   8.218 -19.294  0.00  0.00    -0.283 N 
ATOM     36  H   UNL     1     -13.151   7.624 -18.697  0.00  0.00    +0.155 HD
ATOM     37  N   UNL     1     -13.387   7.061 -21.166  0.00  0.00    -0.214 NA
BRANCH   4   3
ATOM      1  C   UNL     1     -16.448   4.287 -22.707  0.00  0.00    +0.020 A 
ATOM      2  C   UNL     1     -15.613   5.376 -22.256  0.00  0.00    +0.013 A 
ATOM      3  C   UNL     1     -14.366   5.692 -22.942  0.00  0.00    +0.019 A 
ATOM     38  C   UNL     1     -13.990   4.879 -24.089  0.00  0.00    +0.120 A 
ATOM     39  N   UNL     1     -14.813   3.835 -24.499  0.00  0.00    -0.263 NA
ATOM     40  C   UNL     1     -16.015   3.522 -23.846  0.00  0.00    +0.111 A 
ENDBRANCH   4   3
ENDBRANCH  10   9
BRANCH  12  13
ATOM     13  N   UNL     1      -8.164   9.604 -17.460  0.00  0.00    -0.281 N 
ATOM     14  C   UNL     1      -7.027  10.141 -18.041  0.00  0.00    +0.248 C 
ATOM     30  O   UNL     1      -7.017  10.772 -19.087  0.00  0.00    -0.270 OA
ATOM     31  H   UNL     1      -8.009   8.940 -16.701  0.00  0.00    +0.155 HD
BRANCH  14  15
ATOM     15  C   UNL     1      -5.707   9.935 -17.370  0.00  0.00    +0.037 A 
ATOM     16  C   UNL     1      -5.275   8.603 -16.937  0.00  0.00    +0.013 A 
ATOM     17  C   UNL     1      -4.004   8.435 -16.277  0.00  0.00    +0.005 A 
ATOM     18  C   UNL     1      -3.156   9.602 -16.047  0.00  0.00    -0.033 A 
ATOM     28  C   UNL     1      -3.608  10.910 -16.492  0.00  0.00    +0.005 A 
ATOM     29  C   UNL     1      -4.852  11.079 -17.138  0.00  0.00    +0.013 A 
BRANCH  18  19
ATOM     19  C   UNL     1      -1.795   9.519 -15.332  0.00  0.00    +0.119 C 
BRANCH  19  20
ATOM     20  N   UNL     1      -1.808   9.488 -13.839  0.00  0.00    -0.302 NA
ATOM     21  C   UNL     1      -1.888  10.893 -13.235  0.00  0.00    +0.066 C 
ATOM     22  C   UNL     1      -1.923  10.841 -11.673  0.00  0.00    -0.064 C 
ATOM     23  N   UNL     1      -0.685  10.102 -11.162  0.00  0.00    +0.379 N 
ATOM     24  C   UNL     1      -0.686  10.102  -9.692  0.00  0.00    -0.096 C 
ATOM     25  H   UNL     1       0.212  10.672 -11.500  0.00  0.00    -0.082 HD
ATOM     26  C   UNL     1      -0.596   8.705 -11.759  0.00  0.00    -0.064 C 
ATOM     27  C   UNL     1      -0.592   8.766 -13.312  0.00  0.00    +0.066 C 
ENDBRANCH  19  20
ENDBRANCH  18  19
ENDBRANCH  14  15
ENDBRANCH  12  13
TORSDOF 6
ENDMDL
MODEL 5
REMARK VINA RESULT:      -7.4     29.082     32.187
REMARK  Name = C:\Users\Docking\Desktop\test protocol\1iep_ligandH.pdb
REMARK  8 active torsions:
REMARK  status: ('A' for Active; 'I' for Inactive)
REMARK    1  A    between atoms: _5  and  _11
REMARK    2  A    between atoms: _19  and  _21
REMARK    3  A    between atoms: _22  and  _66
REMARK    4  A    between atoms: _27  and  _30
REMARK    5  A    between atoms: _32  and  _33
REMARK    6  A    between atoms: _38  and  _43
REMARK    7  A    between atoms: _43  and  _46
REMARK    8  A    between atoms: _53  and  _55
REMARK                            x       y       z     vdW  Elec       q    Type
REMARK                         _______ _______ _______ _____ _____    ______ ____
ROOT
ATOM     10  C   UNL     1      -3.612   6.854  -3.747  0.00  0.00    +0.038 A 
ATOM     11  C   UNL     1      -2.513   6.666  -4.624  0.00  0.00    +0.047 A 
ATOM     12  C   UNL     1      -1.146   6.878  -4.174  0.00  0.00    +0.035 A 
ATOM     32  C   UNL     1      -0.935   7.279  -2.823  0.00  0.00    +0.024 A 
ATOM     33  C   UNL     1      -2.040   7.476  -1.918  0.00  0.00    +0.007 A 
ATOM     34  C   UNL     1      -3.390   7.271  -2.357  0.00  0.00    -0.029 A 
ATOM     35  C   UNL     1      -4.537   7.503  -1.345  0.00  0.00    +0.045 C 
ENDROOT
BRANCH  10   9
ATOM      4  C   UNL     1      -7.682   8.380  -5.783  0.00  0.00    +0.077 A 
ATOM      5  C   UNL     1      -7.205   9.730  -5.864  0.00  0.00    +0.048 A 
ATOM      6  C   UNL     1      -5.909   9.992  -5.364  0.00  0.00    +0.116 A 
ATOM      7  N   UNL     1      -5.156   8.971  -4.825  0.00  0.00    -0.223 NA
ATOM      8  C   UNL     1      -5.647   7.680  -4.761  0.00  0.00    +0.220 A 
ATOM      9  N   UNL     1      -4.904   6.636  -4.232  0.00  0.00    -0.283 N 
ATOM     36  H   UNL     1      -5.304   5.699  -4.196  0.00  0.00    +0.155 HD
ATOM     37  N   UNL     1      -6.881   7.405  -5.231  0.00  0.00    -0.214 NA
BRANCH   4   3
ATOM      1  C   UNL     1     -10.691   6.181  -6.971  0.00  0.00    +0.020 A 
ATOM      2  C   UNL     1      -9.376   6.547  -6.498  0.00  0.00    +0.013 A 
ATOM      3  C   UNL     1      -9.028   7.945  -6.273  0.00  0.00    +0.019 A 
ATOM     38  C   UNL     1     -10.042   8.955  -6.538  0.00  0.00    +0.120 A 
ATOM     39  N   UNL     1     -11.299   8.572  -6.994  0.00  0.00    -0.263 NA
ATOM     40  C   UNL     1     -11.645   7.230  -7.216  0.00  0.00    +0.111 A 
ENDBRANCH   4   3
ENDBRANCH  10   9
BRANCH  12  13
ATOM     13  N   UNL     1       0.008   6.710  -5.021  0.00  0.00    -0.281 N 
ATOM     14  C   UNL     1       0.406   7.503  -6.085  0.00  0.00    +0.248 C 
ATOM     30  O   UNL     1      -0.291   8.360  -6.607  0.00  0.00    -0.270 OA
ATOM     31  H   UNL     1       0.605   5.910  -4.811  0.00  0.00    +0.155 HD
BRANCH  14  15
ATOM     15  C   UNL     1       1.770   7.305  -6.662  0.00  0.00    +0.037 A 
ATOM     16  C   UNL     1       1.968   6.556  -7.905  0.00  0.00    +0.013 A 
ATOM     17  C   UNL     1       3.297   6.365  -8.431  0.00  0.00    +0.005 A 
ATOM     18  C   UNL     1       4.439   6.927  -7.714  0.00  0.00    -0.033 A 
ATOM     28  C   UNL     1       4.213   7.671  -6.486  0.00  0.00    +0.005 A 
ATOM     29  C   UNL     1       2.913   7.859  -5.967  0.00  0.00    +0.013 A 
BRANCH  18  19
ATOM     19  C   UNL     1       5.893   6.755  -8.190  0.00  0.00    +0.119 C 
BRANCH  19  20
ATOM     20  N   UNL     1       6.693   5.660  -7.564  0.00  0.00    -0.302 NA
ATOM     21  C   UNL     1       8.062   6.150  -7.085  0.00  0.00    +0.066 C 
ATOM     22  C   UNL     1       8.876   4.997  -6.413  0.00  0.00    -0.064 C 
ATOM     23  N   UNL     1       9.030   3.841  -7.403  0.00  0.00    +0.379 N 
ATOM     24  C   UNL     1       9.845   2.779  -6.794  0.00  0.00    -0.096 C 
ATOM     25  H   UNL     1       9.585   4.227  -8.289  0.00  0.00    -0.082 HD
ATOM     26  C   UNL     1       7.673   3.349  -7.886  0.00  0.00    -0.064 C 
ATOM     27  C   UNL     1       6.861   4.510  -8.526  0.00  0.00    +0.066 C 
ENDBRANCH  19  20
ENDBRANCH  18  19
ENDBRANCH  14  15
ENDBRANCH  12  13
TORSDOF 6
ENDMDL
