MODEL 1
REMARK VINA RESULT:     -10.6      0.000      0.000
REMARK  Name = C:\Users\Docking\Desktop\test protocol\1iep_ligandH.pdb
REMARK  8 active torsions:
REMARK  status: ('A' for Active; 'I' for Inactive)
REMARK    1  A    between atoms: _5  and  _11
REMARK    2  A    between atoms: _19  and  _21
REMARK    3  A    between atoms: _22  and  _66
REMARK    4  A    between atoms: _27  and  _30
REMARK    5  A    between atoms: _32  and  _33
REMARK    6  A    between atoms: _38  and  _43
REMARK    7  A    between atoms: _43  and  _46
REMARK    8  A    between atoms: _53  and  _55
REMARK                            x       y       z     vdW  Elec       q    Type
REMARK                         _______ _______ _______ _____ _____    ______ ____
ROOT
ATOM     10  C   UNL     1      13.809  17.237  14.315  0.00  0.00    +0.038 A 
ATOM     11  C   UNL     1      14.681  17.553  15.388  0.00  0.00    +0.047 A 
ATOM     12  C   UNL     1      15.990  18.139  15.146  0.00  0.00    +0.035 A 
ATOM     32  C   UNL     1      16.378  18.392  13.798  0.00  0.00    +0.024 A 
ATOM     33  C   UNL     1      15.505  18.076  12.695  0.00  0.00    +0.007 A 
ATOM     34  C   UNL     1      14.213  17.496  12.927  0.00  0.00    -0.029 A 
ATOM     35  C   UNL     1      13.321  17.172  11.707  0.00  0.00    +0.045 C 
ENDROOT
BRANCH  10   9
ATOM      4  C   UNL     1      11.031  13.557  15.648  0.00  0.00    +0.077 A 
ATOM      5  C   UNL     1      12.154  12.670  15.751  0.00  0.00    +0.048 A 
ATOM      6  C   UNL     1      13.428  13.198  15.444  0.00  0.00    +0.116 A 
ATOM      7  N   UNL     1      13.558  14.517  15.066  0.00  0.00    -0.223 NA
ATOM      8  C   UNL     1      12.455  15.345  14.976  0.00  0.00    +0.220 A 
ATOM      9  N   UNL     1      12.563  16.676  14.604  0.00  0.00    -0.283 N 
ATOM     36  H   UNL     1      11.724  17.252  14.543  0.00  0.00    +0.155 HD
ATOM     37  N   UNL     1      11.227  14.864  15.261  0.00  0.00    -0.214 NA
BRANCH   4   3
ATOM      1  C   UNL     1       7.211  12.800  15.285  0.00  0.00    +0.020 A 
ATOM      2  C   UNL     1       8.556  13.207  14.949  0.00  0.00    +0.013 A 
ATOM      3  C   UNL     1       9.621  13.149  15.942  0.00  0.00    +0.019 A 
ATOM     38  C   UNL     1       9.290  12.669  17.275  0.00  0.00    +0.120 A 
ATOM     39  N   UNL     1       7.985  12.285  17.570  0.00  0.00    -0.263 NA
ATOM     40  C   UNL     1       6.951  12.339  16.623  0.00  0.00    +0.111 A 
ENDBRANCH   4   3
ENDBRANCH  10   9
BRANCH  12  13
ATOM     13  N   UNL     1      16.921  18.474  16.195  0.00  0.00    -0.281 N 
ATOM     14  C   UNL     1      17.072  19.688  16.845  0.00  0.00    +0.248 C 
ATOM     30  O   UNL     1      16.570  20.738  16.473  0.00  0.00    -0.270 OA
ATOM     31  H   UNL     1      17.545  17.724  16.494  0.00  0.00    +0.155 HD
BRANCH  14  15
ATOM     15  C   UNL     1      17.914  19.747  18.078  0.00  0.00    +0.037 A 
ATOM     16  C   UNL     1      17.792  20.854  19.029  0.00  0.00    +0.013 A 
ATOM     17  C   UNL     1      18.628  20.896  20.203  0.00  0.00    +0.005 A 
ATOM     18  C   UNL     1      19.594  19.824  20.432  0.00  0.00    -0.033 A 
ATOM     28  C   UNL     1      19.691  18.734  19.475  0.00  0.00    +0.005 A 
ATOM     29  C   UNL     1      18.873  18.691  18.323  0.00  0.00    +0.013 A 
BRANCH  18  19
ATOM     19  C   UNL     1      20.541  19.797  21.646  0.00  0.00    +0.119 C 
BRANCH  19  20
ATOM     20  N   UNL     1      21.719  20.715  21.614  0.00  0.00    -0.302 NA
ATOM     21  C   UNL     1      22.530  20.564  20.324  0.00  0.00    +0.066 C 
ATOM     22  C   UNL     1      23.745  21.548  20.298  0.00  0.00    -0.064 C 
ATOM     23  N   UNL     1      24.626  21.299  21.524  0.00  0.00    +0.379 N 
ATOM     24  C   UNL     1      25.800  22.182  21.472  0.00  0.00    -0.096 C 
ATOM     25  H   UNL     1      24.991  20.247  21.469  0.00  0.00    -0.082 HD
ATOM     26  C   UNL     1      23.827  21.444  22.811  0.00  0.00    -0.064 C 
ATOM     27  C   UNL     1      22.605  20.483  22.814  0.00  0.00    +0.066 C 
ENDBRANCH  19  20
ENDBRANCH  18  19
ENDBRANCH  14  15
ENDBRANCH  12  13
TORSDOF 6
ENDMDL
MODEL 2
REMARK VINA RESULT:      -9.9      1.864      2.320
REMARK  Name = C:\Users\Docking\Desktop\test protocol\1iep_ligandH.pdb
REMARK  8 active torsions:
REMARK  status: ('A' for Active; 'I' for Inactive)
REMARK    1  A    between atoms: _5  and  _11
REMARK    2  A    between atoms: _19  and  _21
REMARK    3  A    between atoms: _22  and  _66
REMARK    4  A    between atoms: _27  and  _30
REMARK    5  A    between atoms: _32  and  _33
REMARK    6  A    between atoms: _38  and  _43
REMARK    7  A    between atoms: _43  and  _46
REMARK    8  A    between atoms: _53  and  _55
REMARK                            x       y       z     vdW  Elec       q    Type
REMARK                         _______ _______ _______ _____ _____    ______ ____
ROOT
ATOM     10  C   UNL     1      14.157  17.177  14.720  0.00  0.00    +0.038 A 
ATOM     11  C   UNL     1      15.174  17.425  15.677  0.00  0.00    +0.047 A 
ATOM     12  C   UNL     1      16.456  17.989  15.284  0.00  0.00    +0.035 A 
ATOM     32  C   UNL     1      16.668  18.291  13.907  0.00  0.00    +0.024 A 
ATOM     33  C   UNL     1      15.645  18.044  12.921  0.00  0.00    +0.007 A 
ATOM     34  C   UNL     1      14.380  17.485  13.302  0.00  0.00    -0.029 A 
ATOM     35  C   UNL     1      13.323  17.235  12.202  0.00  0.00    +0.045 C 
ENDROOT
BRANCH  10   9
ATOM      4  C   UNL     1      11.424  13.473  16.079  0.00  0.00    +0.077 A 
ATOM      5  C   UNL     1      12.492  12.536  15.883  0.00  0.00    +0.048 A 
ATOM      6  C   UNL     1      13.728  13.047  15.425  0.00  0.00    +0.116 A 
ATOM      7  N   UNL     1      13.872  14.396  15.185  0.00  0.00    -0.223 NA
ATOM      8  C   UNL     1      12.820  15.272  15.382  0.00  0.00    +0.220 A 
ATOM      9  N   UNL     1      12.946  16.634  15.153  0.00  0.00    -0.283 N 
ATOM     36  H   UNL     1      12.144  17.246  15.304  0.00  0.00    +0.155 HD
ATOM     37  N   UNL     1      11.630  14.809  15.817  0.00  0.00    -0.214 NA
BRANCH   4   3
ATOM      1  C   UNL     1       8.469  12.245  18.329  0.00  0.00    +0.020 A 
ATOM      2  C   UNL     1       9.805  12.604  17.913  0.00  0.00    +0.013 A 
ATOM      3  C   UNL     1      10.060  13.087  16.562  0.00  0.00    +0.019 A 
ATOM     38  C   UNL     1       8.932  13.197  15.649  0.00  0.00    +0.120 A 
ATOM     39  N   UNL     1       7.656  12.842  16.078  0.00  0.00    -0.263 NA
ATOM     40  C   UNL     1       7.400  12.375  17.375  0.00  0.00    +0.111 A 
ENDBRANCH   4   3
ENDBRANCH  10   9
BRANCH  12  13
ATOM     13  N   UNL     1      17.529  18.256  16.210  0.00  0.00    -0.281 N 
ATOM     14  C   UNL     1      18.789  18.760  15.931  0.00  0.00    +0.248 C 
ATOM     30  O   UNL     1      19.261  18.859  14.808  0.00  0.00    -0.270 OA
ATOM     31  H   UNL     1      17.336  18.048  17.190  0.00  0.00    +0.155 HD
BRANCH  14  15
ATOM     15  C   UNL     1      19.655  19.206  17.065  0.00  0.00    +0.037 A 
ATOM     16  C   UNL     1      19.319  18.879  18.453  0.00  0.00    +0.013 A 
ATOM     17  C   UNL     1      20.162  19.336  19.528  0.00  0.00    +0.005 A 
ATOM     18  C   UNL     1      21.352  20.125  19.219  0.00  0.00    -0.033 A 
ATOM     28  C   UNL     1      21.665  20.431  17.833  0.00  0.00    +0.005 A 
ATOM     29  C   UNL     1      20.840  19.986  16.776  0.00  0.00    +0.013 A 
BRANCH  18  19
ATOM     19  C   UNL     1      22.298  20.672  20.305  0.00  0.00    +0.119 C 
BRANCH  19  20
ATOM     20  N   UNL     1      22.274  22.145  20.553  0.00  0.00    -0.302 NA
ATOM     21  C   UNL     1      23.111  22.535  21.775  0.00  0.00    +0.066 C 
ATOM     22  C   UNL     1      23.093  24.081  22.007  0.00  0.00    -0.064 C 
ATOM     23  N   UNL     1      21.647  24.553  22.167  0.00  0.00    +0.379 N 
ATOM     24  C   UNL     1      21.631  25.997  22.443  0.00  0.00    -0.096 C 
ATOM     25  H   UNL     1      21.219  24.034  23.056  0.00  0.00    -0.082 HD
ATOM     26  C   UNL     1      20.808  24.167  20.958  0.00  0.00    -0.064 C 
ATOM     27  C   UNL     1      20.856  22.632  20.719  0.00  0.00    +0.066 C 
ENDBRANCH  19  20
ENDBRANCH  18  19
ENDBRANCH  14  15
ENDBRANCH  12  13
TORSDOF 6
ENDMDL
MODEL 3
REMARK VINA RESULT:      -9.1      1.917      2.606
REMARK  Name = C:\Users\Docking\Desktop\test protocol\1iep_ligandH.pdb
REMARK  8 active torsions:
REMARK  status: ('A' for Active; 'I' for Inactive)
REMARK    1  A    between atoms: _5  and  _11
REMARK    2  A    between atoms: _19  and  _21
REMARK    3  A    between atoms: _22  and  _66
REMARK    4  A    between atoms: _27  and  _30
REMARK    5  A    between atoms: _32  and  _33
REMARK    6  A    between atoms: _38  and  _43
REMARK    7  A    between atoms: _43  and  _46
REMARK    8  A    between atoms: _53  and  _55
REMARK                            x       y       z     vdW  Elec       q    Type
REMARK                         _______ _______ _______ _____ _____    ______ ____
ROOT
ATOM     10  C   UNL     1      14.200  19.269  16.201  0.00  0.00    +0.038 A 
ATOM     11  C   UNL     1      15.266  19.453  17.118  0.00  0.00    +0.047 A 
ATOM     12  C   UNL     1      16.341  20.394  16.844  0.00  0.00    +0.035 A 
ATOM     32  C   UNL     1      16.296  21.134  15.626  0.00  0.00    +0.024 A 
ATOM     33  C   UNL     1      15.220  20.959  14.682  0.00  0.00    +0.007 A 
ATOM     34  C   UNL     1      14.159  20.030  14.947  0.00  0.00    -0.029 A 
ATOM     35  C   UNL     1      13.034  19.879  13.896  0.00  0.00    +0.045 C 
ENDROOT
BRANCH  10   9
ATOM      4  C   UNL     1      12.298  14.864  16.075  0.00  0.00    +0.077 A 
ATOM      5  C   UNL     1      13.387  14.352  15.294  0.00  0.00    +0.048 A 
ATOM      6  C   UNL     1      14.413  15.257  14.940  0.00  0.00    +0.116 A 
ATOM      7  N   UNL     1      14.345  16.573  15.342  0.00  0.00    -0.223 NA
ATOM      8  C   UNL     1      13.279  17.035  16.093  0.00  0.00    +0.220 A 
ATOM      9  N   UNL     1      13.194  18.352  16.515  0.00  0.00    -0.283 N 
ATOM     36  H   UNL     1      12.388  18.656  17.061  0.00  0.00    +0.155 HD
ATOM     37  N   UNL     1      12.286  16.191  16.443  0.00  0.00    -0.214 NA
BRANCH   4   3
ATOM      1  C   UNL     1       9.921  12.649  18.253  0.00  0.00    +0.020 A 
ATOM      2  C   UNL     1      11.061  13.445  17.863  0.00  0.00    +0.013 A 
ATOM      3  C   UNL     1      11.140  14.031  16.531  0.00  0.00    +0.019 A 
ATOM     38  C   UNL     1      10.039  13.792  15.610  0.00  0.00    +0.120 A 
ATOM     39  N   UNL     1       8.954  13.020  16.013  0.00  0.00    -0.263 NA
ATOM     40  C   UNL     1       8.868  12.449  17.292  0.00  0.00    +0.111 A 
ENDBRANCH   4   3
ENDBRANCH  10   9
BRANCH  12  13
ATOM     13  N   UNL     1      17.453  20.617  17.733  0.00  0.00    -0.281 N 
ATOM     14  C   UNL     1      17.426  21.136  19.018  0.00  0.00    +0.248 C 
ATOM     30  O   UNL     1      16.459  21.689  19.519  0.00  0.00    -0.270 OA
ATOM     31  H   UNL     1      18.372  20.361  17.372  0.00  0.00    +0.155 HD
BRANCH  14  15
ATOM     15  C   UNL     1      18.656  21.039  19.861  0.00  0.00    +0.037 A 
ATOM     16  C   UNL     1      19.422  22.233  20.227  0.00  0.00    +0.013 A 
ATOM     17  C   UNL     1      20.615  22.110  21.028  0.00  0.00    +0.005 A 
ATOM     18  C   UNL     1      21.047  20.786  21.470  0.00  0.00    -0.033 A 
ATOM     28  C   UNL     1      20.265  19.619  21.097  0.00  0.00    +0.005 A 
ATOM     29  C   UNL     1      19.097  19.736  20.311  0.00  0.00    +0.013 A 
BRANCH  18  19
ATOM     19  C   UNL     1      22.318  20.559  22.309  0.00  0.00    +0.119 C 
BRANCH  19  20
ATOM     20  N   UNL     1      23.208  21.736  22.535  0.00  0.00    -0.302 NA
ATOM     21  C   UNL     1      24.376  21.772  21.546  0.00  0.00    +0.066 C 
ATOM     22  C   UNL     1      25.284  23.022  21.782  0.00  0.00    -0.064 C 
ATOM     23  N   UNL     1      25.796  23.012  23.223  0.00  0.00    +0.379 N 
ATOM     24  C   UNL     1      26.697  24.155  23.432  0.00  0.00    -0.096 C 
ATOM     25  H   UNL     1      26.393  22.081  23.363  0.00  0.00    -0.082 HD
ATOM     26  C   UNL     1      24.641  22.974  24.214  0.00  0.00    -0.064 C 
ATOM     27  C   UNL     1      23.729  21.744  23.952  0.00  0.00    +0.066 C 
ENDBRANCH  19  20
ENDBRANCH  18  19
ENDBRANCH  14  15
ENDBRANCH  12  13
TORSDOF 6
ENDMDL
MODEL 4
REMARK VINA RESULT:      -8.8     38.269     41.249
REMARK  Name = C:\Users\Docking\Desktop\test protocol\1iep_ligandH.pdb
REMARK  8 active torsions:
REMARK  status: ('A' for Active; 'I' for Inactive)
REMARK    1  A    between atoms: _5  and  _11
REMARK    2  A    between atoms: _19  and  _21
REMARK    3  A    between atoms: _22  and  _66
REMARK    4  A    between atoms: _27  and  _30
REMARK    5  A    between atoms: _32  and  _33
REMARK    6  A    between atoms: _38  and  _43
REMARK    7  A    between atoms: _43  and  _46
REMARK    8  A    between atoms: _53  and  _55
REMARK                            x       y       z     vdW  Elec       q    Type
REMARK                         _______ _______ _______ _____ _____    ______ ____
ROOT
ATOM     10  C   UNL     1      -1.046  55.576  23.816  0.00  0.00    +0.038 A 
ATOM     11  C   UNL     1      -1.021  54.681  22.716  0.00  0.00    +0.047 A 
ATOM     12  C   UNL     1      -0.612  53.295  22.882  0.00  0.00    +0.035 A 
ATOM     32  C   UNL     1      -0.237  52.853  24.184  0.00  0.00    +0.024 A 
ATOM     33  C   UNL     1      -0.255  53.750  25.314  0.00  0.00    +0.007 A 
ATOM     34  C   UNL     1      -0.655  55.119  25.155  0.00  0.00    -0.029 A 
ATOM     35  C   UNL     1      -0.650  56.036  26.400  0.00  0.00    +0.045 C 
ENDROOT
BRANCH  10   9
ATOM      4  C   UNL     1      -0.263  60.027  22.200  0.00  0.00    +0.077 A 
ATOM      5  C   UNL     1       1.069  59.702  21.776  0.00  0.00    +0.048 A 
ATOM      6  C   UNL     1       1.516  58.381  21.998  0.00  0.00    +0.116 A 
ATOM      7  N   UNL     1       0.686  57.461  22.600  0.00  0.00    -0.223 NA
ATOM      8  C   UNL     1      -0.592  57.807  22.999  0.00  0.00    +0.220 A 
ATOM      9  N   UNL     1      -1.447  56.896  23.599  0.00  0.00    -0.283 N 
ATOM     36  H   UNL     1      -2.380  57.193  23.886  0.00  0.00    +0.155 HD
ATOM     37  N   UNL     1      -1.043  59.063  22.799  0.00  0.00    -0.214 NA
BRANCH   4   3
ATOM      1  C   UNL     1      -2.369  63.025  20.829  0.00  0.00    +0.020 A 
ATOM      2  C   UNL     1      -1.800  61.702  20.946  0.00  0.00    +0.013 A 
ATOM      3  C   UNL     1      -0.881  61.380  22.031  0.00  0.00    +0.019 A 
ATOM     38  C   UNL     1      -0.557  62.428  22.988  0.00  0.00    +0.120 A 
ATOM     39  N   UNL     1      -1.119  63.693  22.848  0.00  0.00    -0.263 NA
ATOM     40  C   UNL     1      -2.003  64.014  21.808  0.00  0.00    +0.111 A 
ENDBRANCH   4   3
ENDBRANCH  10   9
BRANCH  12  13
ATOM     13  N   UNL     1      -0.559  52.343  21.801  0.00  0.00    -0.281 N 
ATOM     14  C   UNL     1       0.558  51.893  21.116  0.00  0.00    +0.248 C 
ATOM     30  O   UNL     1       1.665  52.405  21.188  0.00  0.00    -0.270 OA
ATOM     31  H   UNL     1      -1.454  51.953  21.504  0.00  0.00    +0.155 HD
BRANCH  14  15
ATOM     15  C   UNL     1       0.421  50.713  20.209  0.00  0.00    +0.037 A 
ATOM     16  C   UNL     1       0.992  50.721  18.860  0.00  0.00    +0.013 A 
ATOM     17  C   UNL     1       0.832  49.576  17.999  0.00  0.00    +0.005 A 
ATOM     18  C   UNL     1       0.098  48.411  18.487  0.00  0.00    -0.033 A 
ATOM     28  C   UNL     1      -0.454  48.427  19.832  0.00  0.00    +0.005 A 
ATOM     29  C   UNL     1      -0.299  49.548  20.678  0.00  0.00    +0.013 A 
BRANCH  18  19
ATOM     19  C   UNL     1      -0.140  47.154  17.630  0.00  0.00    +0.119 C 
BRANCH  19  20
ATOM     20  N   UNL     1       1.054  46.329  17.280  0.00  0.00    -0.302 NA
ATOM     21  C   UNL     1       2.041  46.223  18.446  0.00  0.00    +0.066 C 
ATOM     22  C   UNL     1       3.274  45.338  18.069  0.00  0.00    -0.064 C 
ATOM     23  N   UNL     1       3.958  45.921  16.832  0.00  0.00    +0.379 N 
ATOM     24  C   UNL     1       5.151  45.125  16.510  0.00  0.00    -0.096 C 
ATOM     25  H   UNL     1       4.298  46.952  17.088  0.00  0.00    -0.082 HD
ATOM     26  C   UNL     1       2.983  46.032  15.668  0.00  0.00    -0.064 C 
ATOM     27  C   UNL     1       1.748  46.889  16.062  0.00  0.00    +0.066 C 
ENDBRANCH  19  20
ENDBRANCH  18  19
ENDBRANCH  14  15
ENDBRANCH  12  13
TORSDOF 6
ENDMDL
MODEL 5
REMARK VINA RESULT:      -8.7      2.256     13.031
REMARK  Name = C:\Users\Docking\Desktop\test protocol\1iep_ligandH.pdb
REMARK  8 active torsions:
REMARK  status: ('A' for Active; 'I' for Inactive)
REMARK    1  A    between atoms: _5  and  _11
REMARK    2  A    between atoms: _19  and  _21
REMARK    3  A    between atoms: _22  and  _66
REMARK    4  A    between atoms: _27  and  _30
REMARK    5  A    between atoms: _32  and  _33
REMARK    6  A    between atoms: _38  and  _43
REMARK    7  A    between atoms: _43  and  _46
REMARK    8  A    between atoms: _53  and  _55
REMARK                            x       y       z     vdW  Elec       q    Type
REMARK                         _______ _______ _______ _____ _____    ______ ____
ROOT
ATOM     10  C   UNL     1      17.486  22.817  20.013  0.00  0.00    +0.038 A 
ATOM     11  C   UNL     1      16.879  21.720  19.349  0.00  0.00    +0.047 A 
ATOM     12  C   UNL     1      15.686  21.900  18.537  0.00  0.00    +0.035 A 
ATOM     32  C   UNL     1      15.139  23.211  18.420  0.00  0.00    +0.024 A 
ATOM     33  C   UNL     1      15.743  24.337  19.088  0.00  0.00    +0.007 A 
ATOM     34  C   UNL     1      16.919  24.165  19.893  0.00  0.00    -0.029 A 
ATOM     35  C   UNL     1      17.520  25.407  20.592  0.00  0.00    +0.045 C 
ENDROOT
BRANCH  10   9
ATOM      4  C   UNL     1      22.244  22.419  20.503  0.00  0.00    +0.077 A 
ATOM      5  C   UNL     1      22.468  22.662  19.106  0.00  0.00    +0.048 A 
ATOM      6  C   UNL     1      21.331  22.878  18.295  0.00  0.00    +0.116 A 
ATOM      7  N   UNL     1      20.070  22.850  18.850  0.00  0.00    -0.223 NA
ATOM      8  C   UNL     1      19.890  22.612  20.200  0.00  0.00    +0.220 A 
ATOM      9  N   UNL     1      18.631  22.588  20.780  0.00  0.00    -0.283 N 
ATOM     36  H   UNL     1      18.539  22.400  21.778  0.00  0.00    +0.155 HD
ATOM     37  N   UNL     1      20.959  22.401  20.995  0.00  0.00    -0.214 NA
BRANCH   4   3
ATOM      1  C   UNL     1      25.771  21.854  22.097  0.00  0.00    +0.020 A 
ATOM      2  C   UNL     1      24.748  22.089  21.105  0.00  0.00    +0.013 A 
ATOM      3  C   UNL     1      23.344  22.176  21.489  0.00  0.00    +0.019 A 
ATOM     38  C   UNL     1      23.008  22.021  22.896  0.00  0.00    +0.120 A 
ATOM     39  N   UNL     1      24.015  21.793  23.829  0.00  0.00    -0.263 NA
ATOM     40  C   UNL     1      25.369  21.706  23.471  0.00  0.00    +0.111 A 
ENDBRANCH   4   3
ENDBRANCH  10   9
BRANCH  12  13
ATOM     13  N   UNL     1      15.021  20.823  17.846  0.00  0.00    -0.281 N 
ATOM     14  C   UNL     1      15.503  20.058  16.797  0.00  0.00    +0.248 C 
ATOM     30  O   UNL     1      16.503  20.326  16.149  0.00  0.00    -0.270 OA
ATOM     31  H   UNL     1      14.080  20.597  18.171  0.00  0.00    +0.155 HD
BRANCH  14  15
ATOM     15  C   UNL     1      14.758  18.824  16.402  0.00  0.00    +0.037 A 
ATOM     16  C   UNL     1      13.365  18.614  16.807  0.00  0.00    +0.013 A 
ATOM     17  C   UNL     1      12.675  17.407  16.426  0.00  0.00    +0.005 A 
ATOM     18  C   UNL     1      13.378  16.400  15.634  0.00  0.00    -0.033 A 
ATOM     28  C   UNL     1      14.757  16.636  15.241  0.00  0.00    +0.005 A 
ATOM     29  C   UNL     1      15.437  17.818  15.613  0.00  0.00    +0.013 A 
BRANCH  18  19
ATOM     19  C   UNL     1      12.727  15.073  15.201  0.00  0.00    +0.119 C 
BRANCH  19  20
ATOM     20  N   UNL     1      11.514  14.629  15.951  0.00  0.00    -0.302 NA
ATOM     21  C   UNL     1      11.876  13.943  17.272  0.00  0.00    +0.066 C 
ATOM     22  C   UNL     1      10.595  13.505  18.055  0.00  0.00    -0.064 C 
ATOM     23  N   UNL     1       9.755  12.578  17.175  0.00  0.00    +0.379 N 
ATOM     24  C   UNL     1       8.580  12.119  17.929  0.00  0.00    -0.096 C 
ATOM     25  H   UNL     1      10.376  11.683  16.938  0.00  0.00    -0.082 HD
ATOM     26  C   UNL     1       9.393  13.252  15.859  0.00  0.00    -0.064 C 
ATOM     27  C   UNL     1      10.672  13.709  15.103  0.00  0.00    +0.066 C 
ENDBRANCH  19  20
ENDBRANCH  18  19
ENDBRANCH  14  15
ENDBRANCH  12  13
TORSDOF 6
ENDMDL
