MODEL 1
REMARK VINA RESULT:      -9.5      0.000      0.000
REMARK  Name = C:\Users\Docking\Desktop\test protocol\1iep_ligandH.pdb
REMARK  8 active torsions:
REMARK  status: ('A' for Active; 'I' for Inactive)
REMARK    1  A    between atoms: _5  and  _11
REMARK    2  A    between atoms: _19  and  _21
REMARK    3  A    between atoms: _22  and  _66
REMARK    4  A    between atoms: _27  and  _30
REMARK    5  A    between atoms: _32  and  _33
REMARK    6  A    between atoms: _38  and  _43
REMARK    7  A    between atoms: _43  and  _46
REMARK    8  A    between atoms: _53  and  _55
REMARK                            x       y       z     vdW  Elec       q    Type
REMARK                         _______ _______ _______ _____ _____    ______ ____
ROOT
ATOM     10  C   UNL     1      50.391  42.668  56.070  0.00  0.00    +0.038 A 
ATOM     11  C   UNL     1      50.231  43.648  55.058  0.00  0.00    +0.047 A 
ATOM     12  C   UNL     1      50.436  43.322  53.655  0.00  0.00    +0.035 A 
ATOM     32  C   UNL     1      50.801  41.986  53.319  0.00  0.00    +0.024 A 
ATOM     33  C   UNL     1      50.969  40.977  54.335  0.00  0.00    +0.007 A 
ATOM     34  C   UNL     1      50.770  41.293  55.720  0.00  0.00    -0.029 A 
ATOM     35  C   UNL     1      50.970  40.173  56.767  0.00  0.00    +0.045 C 
ENDROOT
BRANCH  10   9
ATOM      4  C   UNL     1      47.685  42.872  60.029  0.00  0.00    +0.077 A 
ATOM      5  C   UNL     1      46.586  42.213  59.384  0.00  0.00    +0.048 A 
ATOM      6  C   UNL     1      46.755  41.845  58.030  0.00  0.00    +0.116 A 
ATOM      7  N   UNL     1      47.939  42.119  57.381  0.00  0.00    -0.223 NA
ATOM      8  C   UNL     1      48.979  42.757  58.032  0.00  0.00    +0.220 A 
ATOM      9  N   UNL     1      50.181  43.036  57.401  0.00  0.00    -0.283 N 
ATOM     36  H   UNL     1      50.921  43.515  57.914  0.00  0.00    +0.155 HD
ATOM     37  N   UNL     1      48.842  43.120  59.325  0.00  0.00    -0.214 NA
BRANCH   4   3
ATOM      1  C   UNL     1      46.456  43.974  63.575  0.00  0.00    +0.020 A 
ATOM      2  C   UNL     1      46.425  43.542  62.197  0.00  0.00    +0.013 A 
ATOM      3  C   UNL     1      47.661  43.320  61.458  0.00  0.00    +0.019 A 
ATOM     38  C   UNL     1      48.922  43.544  62.148  0.00  0.00    +0.120 A 
ATOM     39  N   UNL     1      48.922  43.962  63.475  0.00  0.00    -0.263 NA
ATOM     40  C   UNL     1      47.738  44.181  64.196  0.00  0.00    +0.111 A 
ENDBRANCH   4   3
ENDBRANCH  10   9
BRANCH  12  13
ATOM     13  N   UNL     1      50.297  44.278  52.585  0.00  0.00    -0.281 N 
ATOM     14  C   UNL     1      51.149  45.320  52.256  0.00  0.00    +0.248 C 
ATOM     30  O   UNL     1      52.057  45.720  52.969  0.00  0.00    -0.270 OA
ATOM     31  H   UNL     1      49.469  44.174  51.998  0.00  0.00    +0.155 HD
BRANCH  14  15
ATOM     15  C   UNL     1      50.956  46.027  50.954  0.00  0.00    +0.037 A 
ATOM     16  C   UNL     1      50.845  47.487  50.892  0.00  0.00    +0.013 A 
ATOM     17  C   UNL     1      50.642  48.143  49.625  0.00  0.00    +0.005 A 
ATOM     18  C   UNL     1      50.550  47.339  48.408  0.00  0.00    -0.033 A 
ATOM     28  C   UNL     1      50.669  45.893  48.498  0.00  0.00    +0.005 A 
ATOM     29  C   UNL     1      50.867  45.247  49.739  0.00  0.00    +0.013 A 
BRANCH  18  19
ATOM     19  C   UNL     1      50.313  47.953  47.016  0.00  0.00    +0.119 C 
BRANCH  19  20
ATOM     20  N   UNL     1      51.090  47.382  45.875  0.00  0.00    -0.302 NA
ATOM     21  C   UNL     1      50.457  46.097  45.336  0.00  0.00    +0.066 C 
ATOM     22  C   UNL     1      51.270  45.525  44.129  0.00  0.00    -0.064 C 
ATOM     23  N   UNL     1      52.716  45.277  44.563  0.00  0.00    +0.379 N 
ATOM     24  C   UNL     1      53.469  44.685  43.447  0.00  0.00    -0.096 C 
ATOM     25  H   UNL     1      52.696  44.531  45.391  0.00  0.00    -0.082 HD
ATOM     26  C   UNL     1      53.352  46.550  45.104  0.00  0.00    -0.064 C 
ATOM     27  C   UNL     1      52.520  47.125  46.284  0.00  0.00    +0.066 C 
ENDBRANCH  19  20
ENDBRANCH  18  19
ENDBRANCH  14  15
ENDBRANCH  12  13
TORSDOF 6
ENDMDL
MODEL 2
REMARK VINA RESULT:      -9.2      2.140     13.520
REMARK  Name = C:\Users\Docking\Desktop\test protocol\1iep_ligandH.pdb
REMARK  8 active torsions:
REMARK  status: ('A' for Active; 'I' for Inactive)
REMARK    1  A    between atoms: _5  and  _11
REMARK    2  A    between atoms: _19  and  _21
REMARK    3  A    between atoms: _22  and  _66
REMARK    4  A    between atoms: _27  and  _30
REMARK    5  A    between atoms: _32  and  _33
REMARK    6  A    between atoms: _38  and  _43
REMARK    7  A    between atoms: _43  and  _46
REMARK    8  A    between atoms: _53  and  _55
REMARK                            x       y       z     vdW  Elec       q    Type
REMARK                         _______ _______ _______ _____ _____    ______ ____
ROOT
ATOM     10  C   UNL     1      51.736  44.981  53.463  0.00  0.00    +0.038 A 
ATOM     11  C   UNL     1      50.669  44.607  54.320  0.00  0.00    +0.047 A 
ATOM     12  C   UNL     1      50.802  44.682  55.766  0.00  0.00    +0.035 A 
ATOM     32  C   UNL     1      52.037  45.147  56.307  0.00  0.00    +0.024 A 
ATOM     33  C   UNL     1      53.132  45.531  55.452  0.00  0.00    +0.007 A 
ATOM     34  C   UNL     1      53.007  45.456  54.024  0.00  0.00    -0.029 A 
ATOM     35  C   UNL     1      54.216  45.874  53.156  0.00  0.00    +0.045 C 
ENDROOT
BRANCH  10   9
ATOM      4  C   UNL     1      50.738  46.919  49.187  0.00  0.00    +0.077 A 
ATOM      5  C   UNL     1      50.538  48.220  49.757  0.00  0.00    +0.048 A 
ATOM      6  C   UNL     1      50.695  48.347  51.156  0.00  0.00    +0.116 A 
ATOM      7  N   UNL     1      51.027  47.248  51.917  0.00  0.00    -0.223 NA
ATOM      8  C   UNL     1      51.211  46.006  51.336  0.00  0.00    +0.220 A 
ATOM      9  N   UNL     1      51.553  44.889  52.082  0.00  0.00    -0.283 N 
ATOM     36  H   UNL     1      51.672  43.989  51.617  0.00  0.00    +0.155 HD
ATOM     37  N   UNL     1      51.065  45.859  50.003  0.00  0.00    -0.214 NA
BRANCH   4   3
ATOM      1  C   UNL     1      50.703  45.071  45.740  0.00  0.00    +0.020 A 
ATOM      2  C   UNL     1      50.839  45.301  47.159  0.00  0.00    +0.013 A 
ATOM      3  C   UNL     1      50.611  46.626  47.724  0.00  0.00    +0.019 A 
ATOM     38  C   UNL     1      50.245  47.704  46.818  0.00  0.00    +0.120 A 
ATOM     39  N   UNL     1      50.123  47.452  45.455  0.00  0.00    -0.263 NA
ATOM     40  C   UNL     1      50.341  46.183  44.900  0.00  0.00    +0.111 A 
ENDBRANCH   4   3
ENDBRANCH  10   9
BRANCH  12  13
ATOM     13  N   UNL     1      49.757  44.308  56.685  0.00  0.00    -0.281 N 
ATOM     14  C   UNL     1      49.115  43.085  56.793  0.00  0.00    +0.248 C 
ATOM     30  O   UNL     1      49.197  42.187  55.969  0.00  0.00    -0.270 OA
ATOM     31  H   UNL     1      49.452  45.033  57.335  0.00  0.00    +0.155 HD
BRANCH  14  15
ATOM     15  C   UNL     1      48.247  42.827  57.982  0.00  0.00    +0.037 A 
ATOM     16  C   UNL     1      47.030  42.019  57.873  0.00  0.00    +0.013 A 
ATOM     17  C   UNL     1      46.201  41.800  59.032  0.00  0.00    +0.005 A 
ATOM     18  C   UNL     1      46.588  42.390  60.312  0.00  0.00    -0.033 A 
ATOM     28  C   UNL     1      47.804  43.183  60.392  0.00  0.00    +0.005 A 
ATOM     29  C   UNL     1      48.618  43.400  59.258  0.00  0.00    +0.013 A 
BRANCH  18  19
ATOM     19  C   UNL     1      45.753  42.226  61.595  0.00  0.00    +0.119 C 
BRANCH  19  20
ATOM     20  N   UNL     1      46.480  42.300  62.898  0.00  0.00    -0.302 NA
ATOM     21  C   UNL     1      46.190  41.087  63.787  0.00  0.00    +0.066 C 
ATOM     22  C   UNL     1      46.976  41.170  65.136  0.00  0.00    -0.064 C 
ATOM     23  N   UNL     1      46.611  42.469  65.857  0.00  0.00    +0.379 N 
ATOM     24  C   UNL     1      47.304  42.523  67.152  0.00  0.00    -0.096 C 
ATOM     25  H   UNL     1      45.515  42.447  66.059  0.00  0.00    -0.082 HD
ATOM     26  C   UNL     1      46.893  43.680  64.979  0.00  0.00    -0.064 C 
ATOM     27  C   UNL     1      46.131  43.574  63.628  0.00  0.00    +0.066 C 
ENDBRANCH  19  20
ENDBRANCH  18  19
ENDBRANCH  14  15
ENDBRANCH  12  13
TORSDOF 6
ENDMDL
MODEL 3
REMARK VINA RESULT:      -9.1      2.512     13.611
REMARK  Name = C:\Users\Docking\Desktop\test protocol\1iep_ligandH.pdb
REMARK  8 active torsions:
REMARK  status: ('A' for Active; 'I' for Inactive)
REMARK    1  A    between atoms: _5  and  _11
REMARK    2  A    between atoms: _19  and  _21
REMARK    3  A    between atoms: _22  and  _66
REMARK    4  A    between atoms: _27  and  _30
REMARK    5  A    between atoms: _32  and  _33
REMARK    6  A    between atoms: _38  and  _43
REMARK    7  A    between atoms: _43  and  _46
REMARK    8  A    between atoms: _53  and  _55
REMARK                            x       y       z     vdW  Elec       q    Type
REMARK                         _______ _______ _______ _____ _____    ______ ____
ROOT
ATOM     10  C   UNL     1      49.661  42.662  54.457  0.00  0.00    +0.038 A 
ATOM     11  C   UNL     1      49.172  43.123  55.706  0.00  0.00    +0.047 A 
ATOM     12  C   UNL     1      49.287  42.309  56.906  0.00  0.00    +0.035 A 
ATOM     32  C   UNL     1      49.910  41.031  56.799  0.00  0.00    +0.024 A 
ATOM     33  C   UNL     1      50.412  40.547  55.537  0.00  0.00    +0.007 A 
ATOM     34  C   UNL     1      50.299  41.344  54.350  0.00  0.00    -0.029 A 
ATOM     35  C   UNL     1      50.849  40.771  53.023  0.00  0.00    +0.045 C 
ENDROOT
BRANCH  10   9
ATOM      4  C   UNL     1      51.317  45.993  51.424  0.00  0.00    +0.077 A 
ATOM      5  C   UNL     1      52.549  46.124  52.147  0.00  0.00    +0.048 A 
ATOM      6  C   UNL     1      52.714  45.322  53.299  0.00  0.00    +0.116 A 
ATOM      7  N   UNL     1      51.715  44.456  53.688  0.00  0.00    -0.223 NA
ATOM      8  C   UNL     1      50.539  44.355  52.968  0.00  0.00    +0.220 A 
ATOM      9  N   UNL     1      49.524  43.485  53.337  0.00  0.00    -0.283 N 
ATOM     36  H   UNL     1      48.668  43.445  52.784  0.00  0.00    +0.155 HD
ATOM     37  N   UNL     1      50.356  45.111  51.866  0.00  0.00    -0.214 NA
BRANCH   4   3
ATOM      1  C   UNL     1      50.287  48.874  48.986  0.00  0.00    +0.020 A 
ATOM      2  C   UNL     1      50.586  48.169  50.212  0.00  0.00    +0.013 A 
ATOM      3  C   UNL     1      50.995  46.770  50.185  0.00  0.00    +0.019 A 
ATOM     38  C   UNL     1      51.093  46.109  48.893  0.00  0.00    +0.120 A 
ATOM     39  N   UNL     1      50.798  46.813  47.730  0.00  0.00    -0.263 NA
ATOM     40  C   UNL     1      50.401  48.158  47.743  0.00  0.00    +0.111 A 
ENDBRANCH   4   3
ENDBRANCH  10   9
BRANCH  12  13
ATOM     13  N   UNL     1      48.801  42.721  58.200  0.00  0.00    -0.281 N 
ATOM     14  C   UNL     1      47.581  42.425  58.785  0.00  0.00    +0.248 C 
ATOM     30  O   UNL     1      46.631  41.934  58.193  0.00  0.00    -0.270 OA
ATOM     31  H   UNL     1      49.434  43.301  58.751  0.00  0.00    +0.155 HD
BRANCH  14  15
ATOM     15  C   UNL     1      47.382  42.730  60.235  0.00  0.00    +0.037 A 
ATOM     16  C   UNL     1      48.446  43.341  61.035  0.00  0.00    +0.013 A 
ATOM     17  C   UNL     1      48.234  43.610  62.436  0.00  0.00    +0.005 A 
ATOM     18  C   UNL     1      46.951  43.269  63.044  0.00  0.00    -0.033 A 
ATOM     28  C   UNL     1      45.910  42.668  62.225  0.00  0.00    +0.005 A 
ATOM     29  C   UNL     1      46.115  42.403  60.853  0.00  0.00    +0.013 A 
BRANCH  18  19
ATOM     19  C   UNL     1      46.644  43.500  64.535  0.00  0.00    +0.119 C 
BRANCH  19  20
ATOM     20  N   UNL     1      46.093  44.834  64.921  0.00  0.00    -0.302 NA
ATOM     21  C   UNL     1      47.107  45.669  65.708  0.00  0.00    +0.066 C 
ATOM     22  C   UNL     1      46.522  47.069  66.083  0.00  0.00    -0.064 C 
ATOM     23  N   UNL     1      45.234  46.881  66.888  0.00  0.00    +0.379 N 
ATOM     24  C   UNL     1      44.713  48.195  67.292  0.00  0.00    -0.096 C 
ATOM     25  H   UNL     1      45.494  46.320  67.816  0.00  0.00    -0.082 HD
ATOM     26  C   UNL     1      44.221  46.050  66.114  0.00  0.00    -0.064 C 
ATOM     27  C   UNL     1      44.823  44.672  65.720  0.00  0.00    +0.066 C 
ENDBRANCH  19  20
ENDBRANCH  18  19
ENDBRANCH  14  15
ENDBRANCH  12  13
TORSDOF 6
ENDMDL
MODEL 4
REMARK VINA RESULT:      -9.0     23.505     26.527
REMARK  Name = C:\Users\Docking\Desktop\test protocol\1iep_ligandH.pdb
REMARK  8 active torsions:
REMARK  status: ('A' for Active; 'I' for Inactive)
REMARK    1  A    between atoms: _5  and  _11
REMARK    2  A    between atoms: _19  and  _21
REMARK    3  A    between atoms: _22  and  _66
REMARK    4  A    between atoms: _27  and  _30
REMARK    5  A    between atoms: _32  and  _33
REMARK    6  A    between atoms: _38  and  _43
REMARK    7  A    between atoms: _43  and  _46
REMARK    8  A    between atoms: _53  and  _55
REMARK                            x       y       z     vdW  Elec       q    Type
REMARK                         _______ _______ _______ _____ _____    ______ ____
ROOT
ATOM     10  C   UNL     1      27.086  47.045  45.811  0.00  0.00    +0.038 A 
ATOM     11  C   UNL     1      26.814  45.960  46.684  0.00  0.00    +0.047 A 
ATOM     12  C   UNL     1      26.182  44.743  46.199  0.00  0.00    +0.035 A 
ATOM     32  C   UNL     1      25.843  44.664  44.817  0.00  0.00    +0.024 A 
ATOM     33  C   UNL     1      26.111  45.757  43.915  0.00  0.00    +0.007 A 
ATOM     34  C   UNL     1      26.731  46.961  44.389  0.00  0.00    -0.029 A 
ATOM     35  C   UNL     1      26.989  48.103  43.380  0.00  0.00    +0.045 C 
ENDROOT
BRANCH  10   9
ATOM      4  C   UNL     1      30.826  49.337  47.759  0.00  0.00    +0.077 A 
ATOM      5  C   UNL     1      31.627  48.146  47.767  0.00  0.00    +0.048 A 
ATOM      6  C   UNL     1      31.037  46.964  47.267  0.00  0.00    +0.116 A 
ATOM      7  N   UNL     1      29.741  46.982  46.797  0.00  0.00    -0.223 NA
ATOM      8  C   UNL     1      28.996  48.146  46.806  0.00  0.00    +0.220 A 
ATOM      9  N   UNL     1      27.694  48.189  46.331  0.00  0.00    -0.283 N 
ATOM     36  H   UNL     1      27.175  49.067  46.362  0.00  0.00    +0.155 HD
ATOM     37  N   UNL     1      29.536  49.289  47.279  0.00  0.00    -0.214 NA
BRANCH   4   3
ATOM      1  C   UNL     1      33.082  52.187  49.204  0.00  0.00    +0.020 A 
ATOM      2  C   UNL     1      32.665  50.883  48.740  0.00  0.00    +0.013 A 
ATOM      3  C   UNL     1      31.310  50.665  48.252  0.00  0.00    +0.019 A 
ATOM     38  C   UNL     1      30.393  51.796  48.245  0.00  0.00    +0.120 A 
ATOM     39  N   UNL     1      30.822  53.039  48.699  0.00  0.00    -0.263 NA
ATOM     40  C   UNL     1      32.124  53.260  49.173  0.00  0.00    +0.111 A 
ENDBRANCH   4   3
ENDBRANCH  10   9
BRANCH  12  13
ATOM     13  N   UNL     1      25.875  43.613  47.040  0.00  0.00    -0.281 N 
ATOM     14  C   UNL     1      24.920  43.531  48.040  0.00  0.00    +0.248 C 
ATOM     30  O   UNL     1      24.327  44.490  48.510  0.00  0.00    -0.270 OA
ATOM     31  H   UNL     1      26.428  42.772  46.878  0.00  0.00    +0.155 HD
BRANCH  14  15
ATOM     15  C   UNL     1      24.586  42.190  48.610  0.00  0.00    +0.037 A 
ATOM     16  C   UNL     1      24.942  40.955  47.908  0.00  0.00    +0.013 A 
ATOM     17  C   UNL     1      24.593  39.675  48.472  0.00  0.00    +0.005 A 
ATOM     18  C   UNL     1      23.883  39.625  49.748  0.00  0.00    -0.033 A 
ATOM     28  C   UNL     1      23.546  40.866  50.426  0.00  0.00    +0.005 A 
ATOM     29  C   UNL     1      23.886  42.122  49.875  0.00  0.00    +0.013 A 
BRANCH  18  19
ATOM     19  C   UNL     1      23.452  38.305  50.414  0.00  0.00    +0.119 C 
BRANCH  19  20
ATOM     20  N   UNL     1      23.329  37.104  49.534  0.00  0.00    -0.302 NA
ATOM     21  C   UNL     1      22.002  37.084  48.771  0.00  0.00    +0.066 C 
ATOM     22  C   UNL     1      21.900  35.833  47.839  0.00  0.00    -0.064 C 
ATOM     23  N   UNL     1      22.062  34.563  48.676  0.00  0.00    +0.379 N 
ATOM     24  C   UNL     1      21.909  33.383  47.812  0.00  0.00    -0.096 C 
ATOM     25  H   UNL     1      21.237  34.543  49.425  0.00  0.00    -0.082 HD
ATOM     26  C   UNL     1      23.379  34.575  49.440  0.00  0.00    -0.064 C 
ATOM     27  C   UNL     1      23.483  35.838  50.341  0.00  0.00    +0.066 C 
ENDBRANCH  19  20
ENDBRANCH  18  19
ENDBRANCH  14  15
ENDBRANCH  12  13
TORSDOF 6
ENDMDL
MODEL 5
REMARK VINA RESULT:      -9.0      1.744      2.469
REMARK  Name = C:\Users\Docking\Desktop\test protocol\1iep_ligandH.pdb
REMARK  8 active torsions:
REMARK  status: ('A' for Active; 'I' for Inactive)
REMARK    1  A    between atoms: _5  and  _11
REMARK    2  A    between atoms: _19  and  _21
REMARK    3  A    between atoms: _22  and  _66
REMARK    4  A    between atoms: _27  and  _30
REMARK    5  A    between atoms: _32  and  _33
REMARK    6  A    between atoms: _38  and  _43
REMARK    7  A    between atoms: _43  and  _46
REMARK    8  A    between atoms: _53  and  _55
REMARK                            x       y       z     vdW  Elec       q    Type
REMARK                         _______ _______ _______ _____ _____    ______ ____
ROOT
ATOM     10  C   UNL     1      51.513  44.956  56.000  0.00  0.00    +0.038 A 
ATOM     11  C   UNL     1      50.989  45.190  54.703  0.00  0.00    +0.047 A 
ATOM     12  C   UNL     1      51.868  45.383  53.560  0.00  0.00    +0.035 A 
ATOM     32  C   UNL     1      53.276  45.329  53.773  0.00  0.00    +0.024 A 
ATOM     33  C   UNL     1      53.826  45.093  55.085  0.00  0.00    +0.007 A 
ATOM     34  C   UNL     1      52.964  44.904  56.217  0.00  0.00    -0.029 A 
ATOM     35  C   UNL     1      53.608  44.662  57.601  0.00  0.00    +0.045 C 
ENDROOT
BRANCH  10   9
ATOM      4  C   UNL     1      48.180  42.425  58.349  0.00  0.00    +0.077 A 
ATOM      5  C   UNL     1      48.193  41.382  57.364  0.00  0.00    +0.048 A 
ATOM      6  C   UNL     1      49.066  41.539  56.264  0.00  0.00    +0.116 A 
ATOM      7  N   UNL     1      49.863  42.659  56.168  0.00  0.00    -0.223 NA
ATOM      8  C   UNL     1      49.825  43.647  57.134  0.00  0.00    +0.220 A 
ATOM      9  N   UNL     1      50.623  44.778  57.061  0.00  0.00    -0.283 N 
ATOM     36  H   UNL     1      50.560  45.488  57.791  0.00  0.00    +0.155 HD
ATOM     37  N   UNL     1      48.998  43.522  58.193  0.00  0.00    -0.214 NA
BRANCH   4   3
ATOM      1  C   UNL     1      45.375  41.517  60.920  0.00  0.00    +0.020 A 
ATOM      2  C   UNL     1      46.180  41.498  59.720  0.00  0.00    +0.013 A 
ATOM      3  C   UNL     1      47.313  42.403  59.570  0.00  0.00    +0.019 A 
ATOM     38  C   UNL     1      47.608  43.320  60.660  0.00  0.00    +0.120 A 
ATOM     39  N   UNL     1      46.814  43.316  61.803  0.00  0.00    -0.263 NA
ATOM     40  C   UNL     1      45.720  42.451  61.959  0.00  0.00    +0.111 A 
ENDBRANCH   4   3
ENDBRANCH  10   9
BRANCH  12  13
ATOM     13  N   UNL     1      51.394  45.632  52.221  0.00  0.00    -0.281 N 
ATOM     14  C   UNL     1      51.161  46.855  51.614  0.00  0.00    +0.248 C 
ATOM     30  O   UNL     1      51.122  47.924  52.205  0.00  0.00    -0.270 OA
ATOM     31  H   UNL     1      51.207  44.807  51.652  0.00  0.00    +0.155 HD
BRANCH  14  15
ATOM     15  C   UNL     1      50.923  46.896  50.139  0.00  0.00    +0.037 A 
ATOM     16  C   UNL     1      50.580  48.147  49.458  0.00  0.00    +0.013 A 
ATOM     17  C   UNL     1      50.339  48.155  48.037  0.00  0.00    +0.005 A 
ATOM     18  C   UNL     1      50.441  46.906  47.286  0.00  0.00    -0.033 A 
ATOM     28  C   UNL     1      50.788  45.679  47.986  0.00  0.00    +0.005 A 
ATOM     29  C   UNL     1      51.024  45.668  49.379  0.00  0.00    +0.013 A 
BRANCH  18  19
ATOM     19  C   UNL     1      50.180  46.816  45.771  0.00  0.00    +0.119 C 
BRANCH  19  20
ATOM     20  N   UNL     1      51.347  46.501  44.893  0.00  0.00    -0.302 NA
ATOM     21  C   UNL     1      51.369  45.029  44.475  0.00  0.00    +0.066 C 
ATOM     22  C   UNL     1      52.583  44.721  43.539  0.00  0.00    -0.064 C 
ATOM     23  N   UNL     1      53.882  45.102  44.251  0.00  0.00    +0.379 N 
ATOM     24  C   UNL     1      55.029  44.761  43.397  0.00  0.00    -0.096 C 
ATOM     25  H   UNL     1      53.954  44.484  45.176  0.00  0.00    -0.082 HD
ATOM     26  C   UNL     1      53.867  46.564  44.673  0.00  0.00    -0.064 C 
ATOM     27  C   UNL     1      52.640  46.865  45.579  0.00  0.00    +0.066 C 
ENDBRANCH  19  20
ENDBRANCH  18  19
ENDBRANCH  14  15
ENDBRANCH  12  13
TORSDOF 6
ENDMDL
