MODEL 1
REMARK VINA RESULT:      -8.6      0.000      0.000
REMARK  Name = C:\Users\Docking\Desktop\test protocol\1iep_ligandH.pdb
REMARK  8 active torsions:
REMARK  status: ('A' for Active; 'I' for Inactive)
REMARK    1  A    between atoms: _5  and  _11
REMARK    2  A    between atoms: _19  and  _21
REMARK    3  A    between atoms: _22  and  _66
REMARK    4  A    between atoms: _27  and  _30
REMARK    5  A    between atoms: _32  and  _33
REMARK    6  A    between atoms: _38  and  _43
REMARK    7  A    between atoms: _43  and  _46
REMARK    8  A    between atoms: _53  and  _55
REMARK                            x       y       z     vdW  Elec       q    Type
REMARK                         _______ _______ _______ _____ _____    ______ ____
ROOT
ATOM     10  C   UNL     1      12.634  23.273   8.270  0.00  0.00    +0.038 A 
ATOM     11  C   UNL     1      13.818  23.565   7.545  0.00  0.00    +0.047 A 
ATOM     12  C   UNL     1      15.115  23.089   7.999  0.00  0.00    +0.035 A 
ATOM     32  C   UNL     1      15.170  22.314   9.194  0.00  0.00    +0.024 A 
ATOM     33  C   UNL     1      13.977  22.008   9.944  0.00  0.00    +0.007 A 
ATOM     34  C   UNL     1      12.695  22.478   9.502  0.00  0.00    -0.029 A 
ATOM     35  C   UNL     1      11.450  22.125  10.349  0.00  0.00    +0.045 C 
ENDROOT
BRANCH  10   9
ATOM      4  C   UNL     1       9.229  26.644   7.994  0.00  0.00    +0.077 A 
ATOM      5  C   UNL     1       9.925  27.505   8.906  0.00  0.00    +0.048 A 
ATOM      6  C   UNL     1      11.152  27.040   9.430  0.00  0.00    +0.116 A 
ATOM      7  N   UNL     1      11.638  25.805   9.061  0.00  0.00    -0.223 NA
ATOM      8  C   UNL     1      10.941  24.998   8.180  0.00  0.00    +0.220 A 
ATOM      9  N   UNL     1      11.415  23.756   7.789  0.00  0.00    -0.283 N 
ATOM     36  H   UNL     1      10.868  23.188   7.142  0.00  0.00    +0.155 HD
ATOM     37  N   UNL     1       9.766  25.419   7.667  0.00  0.00    -0.214 NA
BRANCH   4   3
ATOM      1  C   UNL     1       5.442  27.449   7.436  0.00  0.00    +0.020 A 
ATOM      2  C   UNL     1       6.677  27.106   8.103  0.00  0.00    +0.013 A 
ATOM      3  C   UNL     1       7.922  26.996   7.353  0.00  0.00    +0.019 A 
ATOM     38  C   UNL     1       7.883  27.242   5.920  0.00  0.00    +0.120 A 
ATOM     39  N   UNL     1       6.679  27.570   5.305  0.00  0.00    -0.263 NA
ATOM     40  C   UNL     1       5.474  27.677   6.015  0.00  0.00    +0.111 A 
ENDBRANCH   4   3
ENDBRANCH  10   9
BRANCH  12  13
ATOM     13  N   UNL     1      16.352  23.361   7.309  0.00  0.00    -0.281 N 
ATOM     14  C   UNL     1      16.996  22.571   6.372  0.00  0.00    +0.248 C 
ATOM     30  O   UNL     1      16.715  21.404   6.141  0.00  0.00    -0.270 OA
ATOM     31  H   UNL     1      16.807  24.245   7.540  0.00  0.00    +0.155 HD
BRANCH  14  15
ATOM     15  C   UNL     1      18.126  23.156   5.588  0.00  0.00    +0.037 A 
ATOM     16  C   UNL     1      17.946  24.367   4.783  0.00  0.00    +0.013 A 
ATOM     17  C   UNL     1      19.048  24.900   4.023  0.00  0.00    +0.005 A 
ATOM     18  C   UNL     1      20.342  24.224   4.066  0.00  0.00    -0.033 A 
ATOM     28  C   UNL     1      20.495  23.027   4.877  0.00  0.00    +0.005 A 
ATOM     29  C   UNL     1      19.416  22.500   5.623  0.00  0.00    +0.013 A 
BRANCH  18  19
ATOM     19  C   UNL     1      21.568  24.711   3.270  0.00  0.00    +0.119 C 
BRANCH  19  20
ATOM     20  N   UNL     1      22.478  23.667   2.709  0.00  0.00    -0.302 NA
ATOM     21  C   UNL     1      23.938  23.905   3.106  0.00  0.00    +0.066 C 
ATOM     22  C   UNL     1      24.872  22.792   2.530  0.00  0.00    -0.064 C 
ATOM     23  N   UNL     1      24.725  22.744   1.008  0.00  0.00    +0.379 N 
ATOM     24  C   UNL     1      25.646  21.738   0.458  0.00  0.00    -0.096 C 
ATOM     25  H   UNL     1      25.031  23.738   0.607  0.00  0.00    -0.082 HD
ATOM     26  C   UNL     1      23.276  22.511   0.605  0.00  0.00    -0.064 C 
ATOM     27  C   UNL     1      22.352  23.605   1.207  0.00  0.00    +0.066 C 
ENDBRANCH  19  20
ENDBRANCH  18  19
ENDBRANCH  14  15
ENDBRANCH  12  13
TORSDOF 6
ENDMDL
MODEL 2
REMARK VINA RESULT:      -8.5      1.915      2.795
REMARK  Name = C:\Users\Docking\Desktop\test protocol\1iep_ligandH.pdb
REMARK  8 active torsions:
REMARK  status: ('A' for Active; 'I' for Inactive)
REMARK    1  A    between atoms: _5  and  _11
REMARK    2  A    between atoms: _19  and  _21
REMARK    3  A    between atoms: _22  and  _66
REMARK    4  A    between atoms: _27  and  _30
REMARK    5  A    between atoms: _32  and  _33
REMARK    6  A    between atoms: _38  and  _43
REMARK    7  A    between atoms: _43  and  _46
REMARK    8  A    between atoms: _53  and  _55
REMARK                            x       y       z     vdW  Elec       q    Type
REMARK                         _______ _______ _______ _____ _____    ______ ____
ROOT
ATOM     10  C   UNL     1      12.074  23.424   8.632  0.00  0.00    +0.038 A 
ATOM     11  C   UNL     1      13.258  23.619   7.876  0.00  0.00    +0.047 A 
ATOM     12  C   UNL     1      14.549  23.170   8.372  0.00  0.00    +0.035 A 
ATOM     32  C   UNL     1      14.598  22.523   9.642  0.00  0.00    +0.024 A 
ATOM     33  C   UNL     1      13.404  22.318  10.424  0.00  0.00    +0.007 A 
ATOM     34  C   UNL     1      12.127  22.761   9.940  0.00  0.00    -0.029 A 
ATOM     35  C   UNL     1      10.881  22.521  10.824  0.00  0.00    +0.045 C 
ENDROOT
BRANCH  10   9
ATOM      4  C   UNL     1       8.741  26.818   7.988  0.00  0.00    +0.077 A 
ATOM      5  C   UNL     1       9.466  27.764   8.787  0.00  0.00    +0.048 A 
ATOM      6  C   UNL     1      10.688  27.336   9.352  0.00  0.00    +0.116 A 
ATOM      7  N   UNL     1      11.143  26.054   9.127  0.00  0.00    -0.223 NA
ATOM      8  C   UNL     1      10.418  25.166   8.353  0.00  0.00    +0.220 A 
ATOM      9  N   UNL     1      10.860  23.875   8.107  0.00  0.00    -0.283 N 
ATOM     36  H   UNL     1      10.294  23.248   7.537  0.00  0.00    +0.155 HD
ATOM     37  N   UNL     1       9.247  25.551   7.804  0.00  0.00    -0.214 NA
BRANCH   4   3
ATOM      1  C   UNL     1       4.933  27.442   7.347  0.00  0.00    +0.020 A 
ATOM      2  C   UNL     1       6.166  27.141   8.037  0.00  0.00    +0.013 A 
ATOM      3  C   UNL     1       7.436  27.123   7.322  0.00  0.00    +0.019 A 
ATOM     38  C   UNL     1       7.423  27.416   5.896  0.00  0.00    +0.120 A 
ATOM     39  N   UNL     1       6.220  27.700   5.258  0.00  0.00    -0.263 NA
ATOM     40  C   UNL     1       4.992  27.719   5.936  0.00  0.00    +0.111 A 
ENDBRANCH   4   3
ENDBRANCH  10   9
BRANCH  12  13
ATOM     13  N   UNL     1      15.787  23.347   7.653  0.00  0.00    -0.281 N 
ATOM     14  C   UNL     1      16.448  22.426   6.857  0.00  0.00    +0.248 C 
ATOM     30  O   UNL     1      16.184  21.234   6.814  0.00  0.00    -0.270 OA
ATOM     31  H   UNL     1      16.228  24.262   7.742  0.00  0.00    +0.155 HD
BRANCH  14  15
ATOM     15  C   UNL     1      17.575  22.895   5.995  0.00  0.00    +0.037 A 
ATOM     16  C   UNL     1      18.905  22.286   6.085  0.00  0.00    +0.013 A 
ATOM     17  C   UNL     1      19.979  22.769   5.253  0.00  0.00    +0.005 A 
ATOM     18  C   UNL     1      19.727  23.868   4.324  0.00  0.00    -0.033 A 
ATOM     28  C   UNL     1      18.397  24.450   4.251  0.00  0.00    +0.005 A 
ATOM     29  C   UNL     1      17.342  23.980   5.065  0.00  0.00    +0.013 A 
BRANCH  18  19
ATOM     19  C   UNL     1      20.819  24.461   3.414  0.00  0.00    +0.119 C 
BRANCH  19  20
ATOM     20  N   UNL     1      20.433  25.611   2.543  0.00  0.00    -0.302 NA
ATOM     21  C   UNL     1      21.324  25.716   1.302  0.00  0.00    +0.066 C 
ATOM     22  C   UNL     1      20.892  26.910   0.390  0.00  0.00    -0.064 C 
ATOM     23  N   UNL     1      20.935  28.208   1.200  0.00  0.00    +0.379 N 
ATOM     24  C   UNL     1      20.586  29.340   0.330  0.00  0.00    -0.096 C 
ATOM     25  H   UNL     1      21.985  28.356   1.544  0.00  0.00    -0.082 HD
ATOM     26  C   UNL     1      20.054  28.111   2.437  0.00  0.00    -0.064 C 
ATOM     27  C   UNL     1      20.473  26.903   3.321  0.00  0.00    +0.066 C 
ENDBRANCH  19  20
ENDBRANCH  18  19
ENDBRANCH  14  15
ENDBRANCH  12  13
TORSDOF 6
ENDMDL
MODEL 3
REMARK VINA RESULT:      -8.2      4.010     12.246
REMARK  Name = C:\Users\Docking\Desktop\test protocol\1iep_ligandH.pdb
REMARK  8 active torsions:
REMARK  status: ('A' for Active; 'I' for Inactive)
REMARK    1  A    between atoms: _5  and  _11
REMARK    2  A    between atoms: _19  and  _21
REMARK    3  A    between atoms: _22  and  _66
REMARK    4  A    between atoms: _27  and  _30
REMARK    5  A    between atoms: _32  and  _33
REMARK    6  A    between atoms: _38  and  _43
REMARK    7  A    between atoms: _43  and  _46
REMARK    8  A    between atoms: _53  and  _55
REMARK                            x       y       z     vdW  Elec       q    Type
REMARK                         _______ _______ _______ _____ _____    ______ ____
ROOT
ATOM     10  C   UNL     1      19.978  25.669   3.902  0.00  0.00    +0.038 A 
ATOM     11  C   UNL     1      18.764  25.447   4.602  0.00  0.00    +0.047 A 
ATOM     12  C   UNL     1      18.136  24.135   4.622  0.00  0.00    +0.035 A 
ATOM     32  C   UNL     1      18.773  23.071   3.920  0.00  0.00    +0.024 A 
ATOM     33  C   UNL     1      20.006  23.279   3.202  0.00  0.00    +0.007 A 
ATOM     34  C   UNL     1      20.629  24.571   3.177  0.00  0.00    -0.029 A 
ATOM     35  C   UNL     1      21.947  24.738   2.385  0.00  0.00    +0.045 C 
ENDROOT
BRANCH  10   9
ATOM      4  C   UNL     1      21.042  29.847   1.792  0.00  0.00    +0.077 A 
ATOM      5  C   UNL     1      20.458  29.435   0.548  0.00  0.00    +0.048 A 
ATOM      6  C   UNL     1      19.901  28.138   0.490  0.00  0.00    +0.116 A 
ATOM      7  N   UNL     1      19.930  27.322   1.601  0.00  0.00    -0.223 NA
ATOM      8  C   UNL     1      20.503  27.750   2.785  0.00  0.00    +0.220 A 
ATOM      9  N   UNL     1      20.537  26.949   3.916  0.00  0.00    -0.283 N 
ATOM     36  H   UNL     1      20.975  27.298   4.768  0.00  0.00    +0.155 HD
ATOM     37  N   UNL     1      21.043  28.983   2.864  0.00  0.00    -0.214 NA
BRANCH   4   3
ATOM      1  C   UNL     1      22.253  33.175   3.452  0.00  0.00    +0.020 A 
ATOM      2  C   UNL     1      21.633  31.880   3.293  0.00  0.00    +0.013 A 
ATOM      3  C   UNL     1      21.667  31.189   2.010  0.00  0.00    +0.019 A 
ATOM     38  C   UNL     1      22.343  31.841   0.899  0.00  0.00    +0.120 A 
ATOM     39  N   UNL     1      22.931  33.090   1.081  0.00  0.00    -0.263 NA
ATOM     40  C   UNL     1      22.902  33.765   2.310  0.00  0.00    +0.111 A 
ENDBRANCH   4   3
ENDBRANCH  10   9
BRANCH  12  13
ATOM     13  N   UNL     1      16.901  23.852   5.309  0.00  0.00    -0.281 N 
ATOM     14  C   UNL     1      16.609  22.772   6.126  0.00  0.00    +0.248 C 
ATOM     30  O   UNL     1      17.301  21.769   6.220  0.00  0.00    -0.270 OA
ATOM     31  H   UNL     1      16.150  24.530   5.176  0.00  0.00    +0.155 HD
BRANCH  14  15
ATOM     15  C   UNL     1      15.360  22.805   6.947  0.00  0.00    +0.037 A 
ATOM     16  C   UNL     1      15.413  22.798   8.411  0.00  0.00    +0.013 A 
ATOM     17  C   UNL     1      14.193  22.812   9.179  0.00  0.00    +0.005 A 
ATOM     18  C   UNL     1      12.909  22.836   8.483  0.00  0.00    -0.033 A 
ATOM     28  C   UNL     1      12.886  22.847   7.030  0.00  0.00    +0.005 A 
ATOM     29  C   UNL     1      14.079  22.832   6.274  0.00  0.00    +0.013 A 
BRANCH  18  19
ATOM     19  C   UNL     1      11.557  22.831   9.221  0.00  0.00    +0.119 C 
BRANCH  19  20
ATOM     20  N   UNL     1      10.842  24.136   9.346  0.00  0.00    -0.302 NA
ATOM     21  C   UNL     1       9.734  24.286   8.300  0.00  0.00    +0.066 C 
ATOM     22  C   UNL     1       8.981  25.647   8.460  0.00  0.00    -0.064 C 
ATOM     23  N   UNL     1       9.985  26.797   8.354  0.00  0.00    +0.379 N 
ATOM     24  C   UNL     1       9.272  28.080   8.446  0.00  0.00    -0.096 C 
ATOM     25  H   UNL     1      10.456  26.743   7.346  0.00  0.00    -0.082 HD
ATOM     26  C   UNL     1      11.092  26.654   9.389  0.00  0.00    -0.064 C 
ATOM     27  C   UNL     1      11.814  25.286   9.241  0.00  0.00    +0.066 C 
ENDBRANCH  19  20
ENDBRANCH  18  19
ENDBRANCH  14  15
ENDBRANCH  12  13
TORSDOF 6
ENDMDL
MODEL 4
REMARK VINA RESULT:      -8.0      4.047     12.186
REMARK  Name = C:\Users\Docking\Desktop\test protocol\1iep_ligandH.pdb
REMARK  8 active torsions:
REMARK  status: ('A' for Active; 'I' for Inactive)
REMARK    1  A    between atoms: _5  and  _11
REMARK    2  A    between atoms: _19  and  _21
REMARK    3  A    between atoms: _22  and  _66
REMARK    4  A    between atoms: _27  and  _30
REMARK    5  A    between atoms: _32  and  _33
REMARK    6  A    between atoms: _38  and  _43
REMARK    7  A    between atoms: _43  and  _46
REMARK    8  A    between atoms: _53  and  _55
REMARK                            x       y       z     vdW  Elec       q    Type
REMARK                         _______ _______ _______ _____ _____    ______ ____
ROOT
ATOM     10  C   UNL     1      19.851  25.396   4.333  0.00  0.00    +0.038 A 
ATOM     11  C   UNL     1      18.553  25.172   4.859  0.00  0.00    +0.047 A 
ATOM     12  C   UNL     1      17.996  23.831   4.942  0.00  0.00    +0.035 A 
ATOM     32  C   UNL     1      18.790  22.740   4.483  0.00  0.00    +0.024 A 
ATOM     33  C   UNL     1      20.111  22.950   3.945  0.00  0.00    +0.007 A 
ATOM     34  C   UNL     1      20.664  24.271   3.858  0.00  0.00    -0.029 A 
ATOM     35  C   UNL     1      22.083  24.437   3.266  0.00  0.00    +0.045 C 
ENDROOT
BRANCH  10   9
ATOM      4  C   UNL     1      20.828  29.449   1.954  0.00  0.00    +0.077 A 
ATOM      5  C   UNL     1      20.357  28.904   0.713  0.00  0.00    +0.048 A 
ATOM      6  C   UNL     1      19.878  27.574   0.728  0.00  0.00    +0.116 A 
ATOM      7  N   UNL     1      19.875  26.854   1.903  0.00  0.00    -0.223 NA
ATOM      8  C   UNL     1      20.337  27.409   3.082  0.00  0.00    +0.220 A 
ATOM      9  N   UNL     1      20.336  26.705   4.276  0.00  0.00    -0.283 N 
ATOM     36  H   UNL     1      20.692  27.147   5.123  0.00  0.00    +0.155 HD
ATOM     37  N   UNL     1      20.801  28.676   3.093  0.00  0.00    -0.214 NA
BRANCH   4   3
ATOM      1  C   UNL     1      21.677  32.991   3.379  0.00  0.00    +0.020 A 
ATOM      2  C   UNL     1      21.139  31.653   3.288  0.00  0.00    +0.013 A 
ATOM      3  C   UNL     1      21.362  30.840   2.099  0.00  0.00    +0.019 A 
ATOM     38  C   UNL     1      22.139  31.414   1.012  0.00  0.00    +0.120 A 
ATOM     39  N   UNL     1      22.643  32.706   1.127  0.00  0.00    -0.263 NA
ATOM     40  C   UNL     1      22.434  33.499   2.265  0.00  0.00    +0.111 A 
ENDBRANCH   4   3
ENDBRANCH  10   9
BRANCH  12  13
ATOM     13  N   UNL     1      16.681  23.543   5.459  0.00  0.00    -0.281 N 
ATOM     14  C   UNL     1      16.351  22.949   6.666  0.00  0.00    +0.248 C 
ATOM     30  O   UNL     1      17.149  22.377   7.395  0.00  0.00    -0.270 OA
ATOM     31  H   UNL     1      15.897  23.810   4.862  0.00  0.00    +0.155 HD
BRANCH  14  15
ATOM     15  C   UNL     1      14.929  22.981   7.123  0.00  0.00    +0.037 A 
ATOM     16  C   UNL     1      13.822  22.862   6.170  0.00  0.00    +0.013 A 
ATOM     17  C   UNL     1      12.459  22.914   6.635  0.00  0.00    +0.005 A 
ATOM     18  C   UNL     1      12.195  23.084   8.062  0.00  0.00    -0.033 A 
ATOM     28  C   UNL     1      13.311  23.194   8.986  0.00  0.00    +0.005 A 
ATOM     29  C   UNL     1      14.649  23.145   8.533  0.00  0.00    +0.013 A 
BRANCH  18  19
ATOM     19  C   UNL     1      10.772  23.171   8.645  0.00  0.00    +0.119 C 
BRANCH  19  20
ATOM     20  N   UNL     1      10.262  21.979   9.386  0.00  0.00    -0.302 NA
ATOM     21  C   UNL     1      10.515  22.088  10.893  0.00  0.00    +0.066 C 
ATOM     22  C   UNL     1       9.956  20.843  11.655  0.00  0.00    -0.064 C 
ATOM     23  N   UNL     1      10.594  19.573  11.090  0.00  0.00    +0.379 N 
ATOM     24  C   UNL     1      10.114  18.406  11.844  0.00  0.00    -0.096 C 
ATOM     25  H   UNL     1      11.695  19.649  11.248  0.00  0.00    -0.082 HD
ATOM     26  C   UNL     1      10.350  19.458   9.592  0.00  0.00    -0.064 C 
ATOM     27  C   UNL     1      10.883  20.714   8.847  0.00  0.00    +0.066 C 
ENDBRANCH  19  20
ENDBRANCH  18  19
ENDBRANCH  14  15
ENDBRANCH  12  13
TORSDOF 6
ENDMDL
MODEL 5
REMARK VINA RESULT:      -8.0      2.304     13.324
REMARK  Name = C:\Users\Docking\Desktop\test protocol\1iep_ligandH.pdb
REMARK  8 active torsions:
REMARK  status: ('A' for Active; 'I' for Inactive)
REMARK    1  A    between atoms: _5  and  _11
REMARK    2  A    between atoms: _19  and  _21
REMARK    3  A    between atoms: _22  and  _66
REMARK    4  A    between atoms: _27  and  _30
REMARK    5  A    between atoms: _32  and  _33
REMARK    6  A    between atoms: _38  and  _43
REMARK    7  A    between atoms: _43  and  _46
REMARK    8  A    between atoms: _53  and  _55
REMARK                            x       y       z     vdW  Elec       q    Type
REMARK                         _______ _______ _______ _____ _____    ______ ____
ROOT
ATOM     10  C   UNL     1      14.868  23.025   8.161  0.00  0.00    +0.038 A 
ATOM     11  C   UNL     1      13.693  23.789   7.945  0.00  0.00    +0.047 A 
ATOM     12  C   UNL     1      12.423  23.400   8.537  0.00  0.00    +0.035 A 
ATOM     32  C   UNL     1      12.386  22.226   9.345  0.00  0.00    +0.024 A 
ATOM     33  C   UNL     1      13.571  21.437   9.574  0.00  0.00    +0.007 A 
ATOM     34  C   UNL     1      14.826  21.815   8.991  0.00  0.00    -0.029 A 
ATOM     35  C   UNL     1      16.063  20.928   9.265  0.00  0.00    +0.045 C 
ENDROOT
BRANCH  10   9
ATOM      4  C   UNL     1      18.060  22.978   4.576  0.00  0.00    +0.077 A 
ATOM      5  C   UNL     1      17.300  22.015   3.833  0.00  0.00    +0.048 A 
ATOM      6  C   UNL     1      16.098  21.551   4.412  0.00  0.00    +0.116 A 
ATOM      7  N   UNL     1      15.694  22.023   5.642  0.00  0.00    -0.223 NA
ATOM      8  C   UNL     1      16.452  22.951   6.333  0.00  0.00    +0.220 A 
ATOM      9  N   UNL     1      16.061  23.445   7.568  0.00  0.00    -0.283 N 
ATOM     36  H   UNL     1      16.652  24.124   8.049  0.00  0.00    +0.155 HD
ATOM     37  N   UNL     1      17.605  23.408   5.803  0.00  0.00    -0.214 NA
BRANCH   4   3
ATOM      1  C   UNL     1      21.824  24.011   4.318  0.00  0.00    +0.020 A 
ATOM      2  C   UNL     1      20.605  23.425   4.826  0.00  0.00    +0.013 A 
ATOM      3  C   UNL     1      19.351  23.566   4.097  0.00  0.00    +0.019 A 
ATOM     38  C   UNL     1      19.365  24.311   2.847  0.00  0.00    +0.120 A 
ATOM     39  N   UNL     1      20.554  24.866   2.384  0.00  0.00    -0.263 NA
ATOM     40  C   UNL     1      21.766  24.739   3.078  0.00  0.00    +0.111 A 
ENDBRANCH   4   3
ENDBRANCH  10   9
BRANCH  12  13
ATOM     13  N   UNL     1      11.195  24.132   8.346  0.00  0.00    -0.281 N 
ATOM     14  C   UNL     1      10.930  25.450   8.678  0.00  0.00    +0.248 C 
ATOM     30  O   UNL     1      11.645  26.142   9.387  0.00  0.00    -0.270 OA
ATOM     31  H   UNL     1      10.429  23.615   7.915  0.00  0.00    +0.155 HD
BRANCH  14  15
ATOM     15  C   UNL     1       9.683  26.089   8.158  0.00  0.00    +0.037 A 
ATOM     16  C   UNL     1       9.481  26.305   6.723  0.00  0.00    +0.013 A 
ATOM     17  C   UNL     1       8.276  26.939   6.249  0.00  0.00    +0.005 A 
ATOM     18  C   UNL     1       7.262  27.359   7.213  0.00  0.00    -0.033 A 
ATOM     28  C   UNL     1       7.485  27.127   8.630  0.00  0.00    +0.005 A 
ATOM     29  C   UNL     1       8.665  26.507   9.098  0.00  0.00    +0.013 A 
BRANCH  18  19
ATOM     19  C   UNL     1       5.955  28.061   6.798  0.00  0.00    +0.119 C 
BRANCH  19  20
ATOM     20  N   UNL     1       4.673  27.433   7.235  0.00  0.00    -0.302 NA
ATOM     21  C   UNL     1       3.950  26.738   6.078  0.00  0.00    +0.066 C 
ATOM     22  C   UNL     1       2.622  26.067   6.557  0.00  0.00    -0.064 C 
ATOM     23  N   UNL     1       1.723  27.123   7.201  0.00  0.00    +0.379 N 
ATOM     24  C   UNL     1       0.449  26.507   7.601  0.00  0.00    -0.096 C 
ATOM     25  H   UNL     1       1.498  27.893   6.426  0.00  0.00    -0.082 HD
ATOM     26  C   UNL     1       2.435  27.821   8.351  0.00  0.00    -0.064 C 
ATOM     27  C   UNL     1       3.768  28.459   7.870  0.00  0.00    +0.066 C 
ENDBRANCH  19  20
ENDBRANCH  18  19
ENDBRANCH  14  15
ENDBRANCH  12  13
TORSDOF 6
ENDMDL
