MODEL 1
REMARK VINA RESULT:      -8.9      0.000      0.000
REMARK  Name = C:\Users\Docking\Desktop\test protocol\1iep_ligandH.pdb
REMARK  8 active torsions:
REMARK  status: ('A' for Active; 'I' for Inactive)
REMARK    1  A    between atoms: _5  and  _11
REMARK    2  A    between atoms: _19  and  _21
REMARK    3  A    between atoms: _22  and  _66
REMARK    4  A    between atoms: _27  and  _30
REMARK    5  A    between atoms: _32  and  _33
REMARK    6  A    between atoms: _38  and  _43
REMARK    7  A    between atoms: _43  and  _46
REMARK    8  A    between atoms: _53  and  _55
REMARK                            x       y       z     vdW  Elec       q    Type
REMARK                         _______ _______ _______ _____ _____    ______ ____
ROOT
ATOM     10  C   UNL     1      19.967  25.290   4.087  0.00  0.00    +0.038 A 
ATOM     11  C   UNL     1      18.741  25.087   4.770  0.00  0.00    +0.047 A 
ATOM     12  C   UNL     1      18.140  23.766   4.860  0.00  0.00    +0.035 A 
ATOM     32  C   UNL     1      18.817  22.672   4.246  0.00  0.00    +0.024 A 
ATOM     33  C   UNL     1      20.064  22.861   3.548  0.00  0.00    +0.007 A 
ATOM     34  C   UNL     1      20.660  24.162   3.453  0.00  0.00    -0.029 A 
ATOM     35  C   UNL     1      21.995  24.307   2.686  0.00  0.00    +0.045 C 
ENDROOT
BRANCH  10   9
ATOM      4  C   UNL     1      20.941  29.370   1.753  0.00  0.00    +0.077 A 
ATOM      5  C   UNL     1      20.364  28.879   0.534  0.00  0.00    +0.048 A 
ATOM      6  C   UNL     1      19.835  27.569   0.548  0.00  0.00    +0.116 A 
ATOM      7  N   UNL     1      19.883  26.815   1.701  0.00  0.00    -0.223 NA
ATOM      8  C   UNL     1      20.447  27.318   2.859  0.00  0.00    +0.220 A 
ATOM      9  N   UNL     1      20.499  26.580   4.031  0.00  0.00    -0.283 N 
ATOM     36  H   UNL     1      20.931  26.984   4.862  0.00  0.00    +0.155 HD
ATOM     37  N   UNL     1      20.961  28.566   2.871  0.00  0.00    -0.214 NA
BRANCH   4   3
ATOM      1  C   UNL     1      22.976  32.644   1.089  0.00  0.00    +0.020 A 
ATOM      2  C   UNL     1      22.426  31.321   0.901  0.00  0.00    +0.013 A 
ATOM      3  C   UNL     1      21.538  30.735   1.898  0.00  0.00    +0.019 A 
ATOM     38  C   UNL     1      21.224  31.520   3.082  0.00  0.00    +0.120 A 
ATOM     39  N   UNL     1      21.769  32.791   3.236  0.00  0.00    -0.263 NA
ATOM     40  C   UNL     1      22.626  33.364   2.285  0.00  0.00    +0.111 A 
ENDBRANCH   4   3
ENDBRANCH  10   9
BRANCH  12  13
ATOM     13  N   UNL     1      16.892  23.501   5.533  0.00  0.00    -0.281 N 
ATOM     14  C   UNL     1      16.689  22.776   6.696  0.00  0.00    +0.248 C 
ATOM     30  O   UNL     1      17.530  22.062   7.221  0.00  0.00    -0.270 OA
ATOM     31  H   UNL     1      16.057  23.895   5.099  0.00  0.00    +0.155 HD
BRANCH  14  15
ATOM     15  C   UNL     1      15.354  22.843   7.364  0.00  0.00    +0.037 A 
ATOM     16  C   UNL     1      15.223  22.706   8.817  0.00  0.00    +0.013 A 
ATOM     17  C   UNL     1      13.922  22.757   9.434  0.00  0.00    +0.005 A 
ATOM     18  C   UNL     1      12.739  22.947   8.598  0.00  0.00    -0.033 A 
ATOM     28  C   UNL     1      12.898  23.085   7.159  0.00  0.00    +0.005 A 
ATOM     29  C   UNL     1      14.172  23.035   6.551  0.00  0.00    +0.013 A 
BRANCH  18  19
ATOM     19  C   UNL     1      11.309  22.993   9.169  0.00  0.00    +0.119 C 
BRANCH  19  20
ATOM     20  N   UNL     1      10.441  24.132   8.746  0.00  0.00    -0.302 NA
ATOM     21  C   UNL     1      10.946  25.472   9.289  0.00  0.00    +0.066 C 
ATOM     22  C   UNL     1      10.038  26.655   8.819  0.00  0.00    -0.064 C 
ATOM     23  N   UNL     1       8.598  26.398   9.266  0.00  0.00    +0.379 N 
ATOM     24  C   UNL     1       7.753  27.536   8.877  0.00  0.00    -0.096 C 
ATOM     25  H   UNL     1       8.596  26.340  10.379  0.00  0.00    -0.082 HD
ATOM     26  C   UNL     1       8.089  25.066   8.733  0.00  0.00    -0.064 C 
ATOM     27  C   UNL     1       9.014  23.901   9.182  0.00  0.00    +0.066 C 
ENDBRANCH  19  20
ENDBRANCH  18  19
ENDBRANCH  14  15
ENDBRANCH  12  13
TORSDOF 6
ENDMDL
MODEL 2
REMARK VINA RESULT:      -8.8      4.093     12.430
REMARK  Name = C:\Users\Docking\Desktop\test protocol\1iep_ligandH.pdb
REMARK  8 active torsions:
REMARK  status: ('A' for Active; 'I' for Inactive)
REMARK    1  A    between atoms: _5  and  _11
REMARK    2  A    between atoms: _19  and  _21
REMARK    3  A    between atoms: _22  and  _66
REMARK    4  A    between atoms: _27  and  _30
REMARK    5  A    between atoms: _32  and  _33
REMARK    6  A    between atoms: _38  and  _43
REMARK    7  A    between atoms: _43  and  _46
REMARK    8  A    between atoms: _53  and  _55
REMARK                            x       y       z     vdW  Elec       q    Type
REMARK                         _______ _______ _______ _____ _____    ______ ____
ROOT
ATOM     10  C   UNL     1      12.309  23.308   8.559  0.00  0.00    +0.038 A 
ATOM     11  C   UNL     1      13.508  23.464   7.817  0.00  0.00    +0.047 A 
ATOM     12  C   UNL     1      14.787  23.030   8.355  0.00  0.00    +0.035 A 
ATOM     32  C   UNL     1      14.809  22.437   9.651  0.00  0.00    +0.024 A 
ATOM     33  C   UNL     1      13.600  22.271  10.419  0.00  0.00    +0.007 A 
ATOM     34  C   UNL     1      12.335  22.700   9.895  0.00  0.00    -0.029 A 
ATOM     35  C   UNL     1      11.072  22.503  10.765  0.00  0.00    +0.045 C 
ENDROOT
BRANCH  10   9
ATOM      4  C   UNL     1       8.853  26.585   7.964  0.00  0.00    +0.077 A 
ATOM      5  C   UNL     1       9.479  27.497   8.877  0.00  0.00    +0.048 A 
ATOM      6  C   UNL     1      10.686  27.082   9.484  0.00  0.00    +0.116 A 
ATOM      7  N   UNL     1      11.217  25.845   9.192  0.00  0.00    -0.223 NA
ATOM      8  C   UNL     1      10.587  24.988   8.308  0.00  0.00    +0.220 A 
ATOM      9  N   UNL     1      11.108  23.743   7.994  0.00  0.00    -0.283 N 
ATOM     36  H   UNL     1      10.609  23.137   7.342  0.00  0.00    +0.155 HD
ATOM     37  N   UNL     1       9.433  25.361   7.717  0.00  0.00    -0.214 NA
BRANCH   4   3
ATOM      1  C   UNL     1       5.109  27.403   7.183  0.00  0.00    +0.020 A 
ATOM      2  C   UNL     1       6.314  27.121   7.929  0.00  0.00    +0.013 A 
ATOM      3  C   UNL     1       7.576  26.881   7.241  0.00  0.00    +0.019 A 
ATOM     38  C   UNL     1       7.585  26.934   5.787  0.00  0.00    +0.120 A 
ATOM     39  N   UNL     1       6.409  27.207   5.095  0.00  0.00    -0.263 NA
ATOM     40  C   UNL     1       5.188  27.438   5.746  0.00  0.00    +0.111 A 
ENDBRANCH   4   3
ENDBRANCH  10   9
BRANCH  12  13
ATOM     13  N   UNL     1      16.038  23.170   7.652  0.00  0.00    -0.281 N 
ATOM     14  C   UNL     1      16.652  22.254   6.814  0.00  0.00    +0.248 C 
ATOM     30  O   UNL     1      16.320  21.082   6.710  0.00  0.00    -0.270 OA
ATOM     31  H   UNL     1      16.531  24.053   7.789  0.00  0.00    +0.155 HD
BRANCH  14  15
ATOM     15  C   UNL     1      17.811  22.699   5.982  0.00  0.00    +0.037 A 
ATOM     16  C   UNL     1      19.120  22.049   6.092  0.00  0.00    +0.013 A 
ATOM     17  C   UNL     1      20.225  22.509   5.290  0.00  0.00    +0.005 A 
ATOM     18  C   UNL     1      20.026  23.626   4.369  0.00  0.00    -0.033 A 
ATOM     28  C   UNL     1      18.716  24.249   4.277  0.00  0.00    +0.005 A 
ATOM     29  C   UNL     1      17.631  23.801   5.062  0.00  0.00    +0.013 A 
BRANCH  18  19
ATOM     19  C   UNL     1      21.155  24.197   3.490  0.00  0.00    +0.119 C 
BRANCH  19  20
ATOM     20  N   UNL     1      22.125  23.224   2.905  0.00  0.00    -0.302 NA
ATOM     21  C   UNL     1      23.572  23.565   3.270  0.00  0.00    +0.066 C 
ATOM     22  C   UNL     1      24.571  22.524   2.668  0.00  0.00    -0.064 C 
ATOM     23  N   UNL     1      24.394  22.469   1.150  0.00  0.00    +0.379 N 
ATOM     24  C   UNL     1      25.372  21.534   0.575  0.00  0.00    -0.096 C 
ATOM     25  H   UNL     1      24.619  23.484   0.747  0.00  0.00    -0.082 HD
ATOM     26  C   UNL     1      22.957  22.133   0.779  0.00  0.00    -0.064 C 
ATOM     27  C   UNL     1      21.970  23.157   1.406  0.00  0.00    +0.066 C 
ENDBRANCH  19  20
ENDBRANCH  18  19
ENDBRANCH  14  15
ENDBRANCH  12  13
TORSDOF 6
ENDMDL
MODEL 3
REMARK VINA RESULT:      -8.5      3.948      7.517
REMARK  Name = C:\Users\Docking\Desktop\test protocol\1iep_ligandH.pdb
REMARK  8 active torsions:
REMARK  status: ('A' for Active; 'I' for Inactive)
REMARK    1  A    between atoms: _5  and  _11
REMARK    2  A    between atoms: _19  and  _21
REMARK    3  A    between atoms: _22  and  _66
REMARK    4  A    between atoms: _27  and  _30
REMARK    5  A    between atoms: _32  and  _33
REMARK    6  A    between atoms: _38  and  _43
REMARK    7  A    between atoms: _43  and  _46
REMARK    8  A    between atoms: _53  and  _55
REMARK                            x       y       z     vdW  Elec       q    Type
REMARK                         _______ _______ _______ _____ _____    ______ ____
ROOT
ATOM     10  C   UNL     1      14.936  22.852   8.296  0.00  0.00    +0.038 A 
ATOM     11  C   UNL     1      13.781  23.660   8.137  0.00  0.00    +0.047 A 
ATOM     12  C   UNL     1      12.521  23.306   8.773  0.00  0.00    +0.035 A 
ATOM     32  C   UNL     1      12.475  22.124   9.568  0.00  0.00    +0.024 A 
ATOM     33  C   UNL     1      13.639  21.291   9.740  0.00  0.00    +0.007 A 
ATOM     34  C   UNL     1      14.883  21.633   9.113  0.00  0.00    -0.029 A 
ATOM     35  C   UNL     1      16.098  20.700   9.326  0.00  0.00    +0.045 C 
ENDROOT
BRANCH  10   9
ATOM      4  C   UNL     1      17.873  22.934   4.501  0.00  0.00    +0.077 A 
ATOM      5  C   UNL     1      16.988  22.114   3.724  0.00  0.00    +0.048 A 
ATOM      6  C   UNL     1      15.791  21.687   4.341  0.00  0.00    +0.116 A 
ATOM      7  N   UNL     1      15.510  22.058   5.638  0.00  0.00    -0.223 NA
ATOM      8  C   UNL     1      16.385  22.848   6.360  0.00  0.00    +0.220 A 
ATOM      9  N   UNL     1      16.119  23.239   7.663  0.00  0.00    -0.283 N 
ATOM     36  H   UNL     1      16.794  23.816   8.164  0.00  0.00    +0.155 HD
ATOM     37  N   UNL     1      17.536  23.268   5.794  0.00  0.00    -0.214 NA
BRANCH   4   3
ATOM      1  C   UNL     1      21.610  24.063   4.263  0.00  0.00    +0.020 A 
ATOM      2  C   UNL     1      20.379  23.540   4.806  0.00  0.00    +0.013 A 
ATOM      3  C   UNL     1      19.174  23.468   3.988  0.00  0.00    +0.019 A 
ATOM     38  C   UNL     1      19.251  23.937   2.613  0.00  0.00    +0.120 A 
ATOM     39  N   UNL     1      20.451  24.437   2.117  0.00  0.00    -0.263 NA
ATOM     40  C   UNL     1      21.616  24.513   2.895  0.00  0.00    +0.111 A 
ENDBRANCH   4   3
ENDBRANCH  10   9
BRANCH  12  13
ATOM     13  N   UNL     1      11.314  24.083   8.641  0.00  0.00    -0.281 N 
ATOM     14  C   UNL     1      11.112  25.409   8.987  0.00  0.00    +0.248 C 
ATOM     30  O   UNL     1      11.883  26.071   9.665  0.00  0.00    -0.270 OA
ATOM     31  H   UNL     1      10.510  23.596   8.244  0.00  0.00    +0.155 HD
BRANCH  14  15
ATOM     15  C   UNL     1       9.866  26.094   8.526  0.00  0.00    +0.037 A 
ATOM     16  C   UNL     1       9.051  26.889   9.447  0.00  0.00    +0.013 A 
ATOM     17  C   UNL     1       7.844  27.525   8.980  0.00  0.00    +0.005 A 
ATOM     18  C   UNL     1       7.447  27.369   7.583  0.00  0.00    -0.033 A 
ATOM     28  C   UNL     1       8.278  26.579   6.689  0.00  0.00    +0.005 A 
ATOM     29  C   UNL     1       9.460  25.953   7.144  0.00  0.00    +0.013 A 
BRANCH  18  19
ATOM     19  C   UNL     1       6.165  27.995   7.003  0.00  0.00    +0.119 C 
BRANCH  19  20
ATOM     20  N   UNL     1       4.867  27.350   7.362  0.00  0.00    -0.302 NA
ATOM     21  C   UNL     1       4.298  26.522   6.206  0.00  0.00    +0.066 C 
ATOM     22  C   UNL     1       2.951  25.836   6.606  0.00  0.00    -0.064 C 
ATOM     23  N   UNL     1       1.950  26.904   7.051  0.00  0.00    +0.379 N 
ATOM     24  C   UNL     1       0.665  26.268   7.372  0.00  0.00    -0.096 C 
ATOM     25  H   UNL     1       1.782  27.590   6.188  0.00  0.00    -0.082 HD
ATOM     26  C   UNL     1       2.509  27.733   8.198  0.00  0.00    -0.064 C 
ATOM     27  C   UNL     1       3.862  28.387   7.800  0.00  0.00    +0.066 C 
ENDBRANCH  19  20
ENDBRANCH  18  19
ENDBRANCH  14  15
ENDBRANCH  12  13
TORSDOF 6
ENDMDL
MODEL 4
REMARK VINA RESULT:      -8.5      2.046     12.026
REMARK  Name = C:\Users\Docking\Desktop\test protocol\1iep_ligandH.pdb
REMARK  8 active torsions:
REMARK  status: ('A' for Active; 'I' for Inactive)
REMARK    1  A    between atoms: _5  and  _11
REMARK    2  A    between atoms: _19  and  _21
REMARK    3  A    between atoms: _22  and  _66
REMARK    4  A    between atoms: _27  and  _30
REMARK    5  A    between atoms: _32  and  _33
REMARK    6  A    between atoms: _38  and  _43
REMARK    7  A    between atoms: _43  and  _46
REMARK    8  A    between atoms: _53  and  _55
REMARK                            x       y       z     vdW  Elec       q    Type
REMARK                         _______ _______ _______ _____ _____    ______ ____
ROOT
ATOM     10  C   UNL     1      11.325  23.506   8.867  0.00  0.00    +0.038 A 
ATOM     11  C   UNL     1      12.541  23.573   8.139  0.00  0.00    +0.047 A 
ATOM     12  C   UNL     1      13.799  23.153   8.736  0.00  0.00    +0.035 A 
ATOM     32  C   UNL     1      13.783  22.668  10.076  0.00  0.00    +0.024 A 
ATOM     33  C   UNL     1      12.556  22.594  10.831  0.00  0.00    +0.007 A 
ATOM     34  C   UNL     1      11.312  23.010  10.248  0.00  0.00    -0.029 A 
ATOM     35  C   UNL     1      10.029  22.915  11.107  0.00  0.00    +0.045 C 
ENDROOT
BRANCH  10   9
ATOM      4  C   UNL     1       7.947  26.795   7.967  0.00  0.00    +0.077 A 
ATOM      5  C   UNL     1       8.570  27.757   8.831  0.00  0.00    +0.048 A 
ATOM      6  C   UNL     1       9.754  27.363   9.493  0.00  0.00    +0.116 A 
ATOM      7  N   UNL     1      10.268  26.100   9.299  0.00  0.00    -0.223 NA
ATOM      8  C   UNL     1       9.642  25.196   8.461  0.00  0.00    +0.220 A 
ATOM      9  N   UNL     1      10.146  23.922   8.245  0.00  0.00    -0.283 N 
ATOM     36  H   UNL     1       9.651  23.283   7.625  0.00  0.00    +0.155 HD
ATOM     37  N   UNL     1       8.509  25.547   7.818  0.00  0.00    -0.214 NA
BRANCH   4   3
ATOM      1  C   UNL     1       4.240  27.631   7.041  0.00  0.00    +0.020 A 
ATOM      2  C   UNL     1       5.422  27.381   7.834  0.00  0.00    +0.013 A 
ATOM      3  C   UNL     1       6.693  27.063   7.195  0.00  0.00    +0.019 A 
ATOM     38  C   UNL     1       6.735  27.008   5.741  0.00  0.00    +0.120 A 
ATOM     39  N   UNL     1       5.580  27.253   5.005  0.00  0.00    -0.263 NA
ATOM     40  C   UNL     1       4.351  27.557   5.608  0.00  0.00    +0.111 A 
ENDBRANCH   4   3
ENDBRANCH  10   9
BRANCH  12  13
ATOM     13  N   UNL     1      15.066  23.205   8.049  0.00  0.00    -0.281 N 
ATOM     14  C   UNL     1      15.719  22.178   7.388  0.00  0.00    +0.248 C 
ATOM     30  O   UNL     1      15.413  20.998   7.471  0.00  0.00    -0.270 OA
ATOM     31  H   UNL     1      15.538  24.109   8.049  0.00  0.00    +0.155 HD
BRANCH  14  15
ATOM     15  C   UNL     1      16.891  22.507   6.521  0.00  0.00    +0.037 A 
ATOM     16  C   UNL     1      18.212  21.925   6.776  0.00  0.00    +0.013 A 
ATOM     17  C   UNL     1      19.329  22.273   5.934  0.00  0.00    +0.005 A 
ATOM     18  C   UNL     1      19.130  23.207   4.829  0.00  0.00    -0.033 A 
ATOM     28  C   UNL     1      17.808  23.766   4.596  0.00  0.00    +0.005 A 
ATOM     29  C   UNL     1      16.711  23.428   5.419  0.00  0.00    +0.013 A 
BRANCH  18  19
ATOM     19  C   UNL     1      20.270  23.651   3.893  0.00  0.00    +0.119 C 
BRANCH  19  20
ATOM     20  N   UNL     1      20.057  24.899   3.100  0.00  0.00    -0.302 NA
ATOM     21  C   UNL     1      21.198  25.151   2.110  0.00  0.00    +0.066 C 
ATOM     22  C   UNL     1      20.948  26.448   1.273  0.00  0.00    -0.064 C 
ATOM     23  N   UNL     1      20.779  27.638   2.219  0.00  0.00    +0.379 N 
ATOM     24  C   UNL     1      20.601  28.868   1.433  0.00  0.00    -0.096 C 
ATOM     25  H   UNL     1      21.723  27.742   2.802  0.00  0.00    -0.082 HD
ATOM     26  C   UNL     1      19.649  27.394   3.209  0.00  0.00    -0.064 C 
ATOM     27  C   UNL     1      19.892  26.087   4.015  0.00  0.00    +0.066 C 
ENDBRANCH  19  20
ENDBRANCH  18  19
ENDBRANCH  14  15
ENDBRANCH  12  13
TORSDOF 6
ENDMDL
MODEL 5
REMARK VINA RESULT:      -8.2      4.030     13.891
REMARK  Name = C:\Users\Docking\Desktop\test protocol\1iep_ligandH.pdb
REMARK  8 active torsions:
REMARK  status: ('A' for Active; 'I' for Inactive)
REMARK    1  A    between atoms: _5  and  _11
REMARK    2  A    between atoms: _19  and  _21
REMARK    3  A    between atoms: _22  and  _66
REMARK    4  A    between atoms: _27  and  _30
REMARK    5  A    between atoms: _32  and  _33
REMARK    6  A    between atoms: _38  and  _43
REMARK    7  A    between atoms: _43  and  _46
REMARK    8  A    between atoms: _53  and  _55
REMARK                            x       y       z     vdW  Elec       q    Type
REMARK                         _______ _______ _______ _____ _____    ______ ____
ROOT
ATOM     10  C   UNL     1      12.104  22.712  10.333  0.00  0.00    +0.038 A 
ATOM     11  C   UNL     1      13.229  22.577   9.480  0.00  0.00    +0.047 A 
ATOM     12  C   UNL     1      13.628  23.651   8.584  0.00  0.00    +0.035 A 
ATOM     32  C   UNL     1      12.859  24.851   8.584  0.00  0.00    +0.024 A 
ATOM     33  C   UNL     1      11.712  25.006   9.444  0.00  0.00    +0.007 A 
ATOM     34  C   UNL     1      11.313  23.949  10.329  0.00  0.00    -0.029 A 
ATOM     35  C   UNL     1      10.071  24.167  11.224  0.00  0.00    +0.045 C 
ENDROOT
BRANCH  10   9
ATOM      4  C   UNL     1       9.658  18.699  11.308  0.00  0.00    +0.077 A 
ATOM      5  C   UNL     1       8.976  18.739  10.047  0.00  0.00    +0.048 A 
ATOM      6  C   UNL     1       9.277  19.812   9.179  0.00  0.00    +0.116 A 
ATOM      7  N   UNL     1      10.195  20.769   9.555  0.00  0.00    -0.223 NA
ATOM      8  C   UNL     1      10.834  20.702  10.779  0.00  0.00    +0.220 A 
ATOM      9  N   UNL     1      11.767  21.649  11.174  0.00  0.00    -0.283 N 
ATOM     36  H   UNL     1      12.211  21.569  12.088  0.00  0.00    +0.155 HD
ATOM     37  N   UNL     1      10.563  19.688  11.626  0.00  0.00    -0.214 NA
BRANCH   4   3
ATOM      1  C   UNL     1       9.866  16.577  14.587  0.00  0.00    +0.020 A 
ATOM      2  C   UNL     1      10.102  17.638  13.635  0.00  0.00    +0.013 A 
ATOM      3  C   UNL     1       9.450  17.627  12.331  0.00  0.00    +0.019 A 
ATOM     38  C   UNL     1       8.557  16.520  12.021  0.00  0.00    +0.120 A 
ATOM     39  N   UNL     1       8.350  15.512  12.958  0.00  0.00    -0.263 NA
ATOM     40  C   UNL     1       8.973  15.511  14.214  0.00  0.00    +0.111 A 
ENDBRANCH   4   3
ENDBRANCH  10   9
BRANCH  12  13
ATOM     13  N   UNL     1      14.755  23.567   7.689  0.00  0.00    -0.281 N 
ATOM     14  C   UNL     1      14.847  22.866   6.498  0.00  0.00    +0.248 C 
ATOM     30  O   UNL     1      14.041  22.027   6.126  0.00  0.00    -0.270 OA
ATOM     31  H   UNL     1      15.587  24.088   7.968  0.00  0.00    +0.155 HD
BRANCH  14  15
ATOM     15  C   UNL     1      16.011  23.123   5.596  0.00  0.00    +0.037 A 
ATOM     16  C   UNL     1      17.386  22.882   6.042  0.00  0.00    +0.013 A 
ATOM     17  C   UNL     1      18.491  23.155   5.158  0.00  0.00    +0.005 A 
ATOM     18  C   UNL     1      18.226  23.672   3.818  0.00  0.00    -0.033 A 
ATOM     28  C   UNL     1      16.852  23.898   3.399  0.00  0.00    +0.005 A 
ATOM     29  C   UNL     1      15.766  23.632   4.263  0.00  0.00    +0.013 A 
BRANCH  18  19
ATOM     19  C   UNL     1      19.345  24.012   2.815  0.00  0.00    +0.119 C 
BRANCH  19  20
ATOM     20  N   UNL     1      19.368  25.398   2.260  0.00  0.00    -0.302 NA
ATOM     21  C   UNL     1      20.513  25.598   1.263  0.00  0.00    +0.066 C 
ATOM     22  C   UNL     1      20.509  27.047   0.676  0.00  0.00    -0.064 C 
ATOM     23  N   UNL     1      20.603  28.059   1.819  0.00  0.00    +0.379 N 
ATOM     24  C   UNL     1      20.657  29.420   1.267  0.00  0.00    -0.096 C 
ATOM     25  H   UNL     1      21.561  27.873   2.357  0.00  0.00    -0.082 HD
ATOM     26  C   UNL     1      19.469  27.865   2.817  0.00  0.00    -0.064 C 
ATOM     27  C   UNL     1      19.465  26.413   3.372  0.00  0.00    +0.066 C 
ENDBRANCH  19  20
ENDBRANCH  18  19
ENDBRANCH  14  15
ENDBRANCH  12  13
TORSDOF 6
ENDMDL
