MODEL 1
REMARK VINA RESULT:      -8.7      0.000      0.000
REMARK  Name = C:\Users\Docking\Desktop\test protocol\1iep_ligandH.pdb
REMARK  8 active torsions:
REMARK  status: ('A' for Active; 'I' for Inactive)
REMARK    1  A    between atoms: _5  and  _11
REMARK    2  A    between atoms: _19  and  _21
REMARK    3  A    between atoms: _22  and  _66
REMARK    4  A    between atoms: _27  and  _30
REMARK    5  A    between atoms: _32  and  _33
REMARK    6  A    between atoms: _38  and  _43
REMARK    7  A    between atoms: _43  and  _46
REMARK    8  A    between atoms: _53  and  _55
REMARK                            x       y       z     vdW  Elec       q    Type
REMARK                         _______ _______ _______ _____ _____    ______ ____
ROOT
ATOM     10  C   UNL     1      19.946 -13.879   4.686  0.00  0.00    +0.038 A 
ATOM     11  C   UNL     1      20.900 -12.947   5.166  0.00  0.00    +0.047 A 
ATOM     12  C   UNL     1      21.616 -12.066   4.256  0.00  0.00    +0.035 A 
ATOM     32  C   UNL     1      21.331 -12.159   2.862  0.00  0.00    +0.024 A 
ATOM     33  C   UNL     1      20.364 -13.101   2.357  0.00  0.00    +0.007 A 
ATOM     34  C   UNL     1      19.658 -13.975   3.249  0.00  0.00    -0.029 A 
ATOM     35  C   UNL     1      18.637 -14.970   2.651  0.00  0.00    +0.045 C 
ENDROOT
BRANCH  10   9
ATOM      4  C   UNL     1      19.886 -17.481   7.858  0.00  0.00    +0.077 A 
ATOM      5  C   UNL     1      21.276 -17.767   7.648  0.00  0.00    +0.048 A 
ATOM      6  C   UNL     1      21.969 -16.969   6.710  0.00  0.00    +0.116 A 
ATOM      7  N   UNL     1      21.310 -15.962   6.038  0.00  0.00    -0.223 NA
ATOM      8  C   UNL     1      19.968 -15.713   6.263  0.00  0.00    +0.220 A 
ATOM      9  N   UNL     1      19.288 -14.701   5.604  0.00  0.00    -0.283 N 
ATOM     36  H   UNL     1      18.297 -14.554   5.792  0.00  0.00    +0.155 HD
ATOM     37  N   UNL     1      19.284 -16.462   7.152  0.00  0.00    -0.214 NA
BRANCH   4   3
ATOM      1  C   UNL     1      18.643 -19.513  10.960  0.00  0.00    +0.020 A 
ATOM      2  C   UNL     1      19.522 -18.795  10.067  0.00  0.00    +0.013 A 
ATOM      3  C   UNL     1      19.020 -18.234   8.819  0.00  0.00    +0.019 A 
ATOM     38  C   UNL     1      17.611 -18.419   8.502  0.00  0.00    +0.120 A 
ATOM     39  N   UNL     1      16.789 -19.117   9.381  0.00  0.00    -0.263 NA
ATOM     40  C   UNL     1      17.262 -19.663  10.584  0.00  0.00    +0.111 A 
ENDBRANCH   4   3
ENDBRANCH  10   9
BRANCH  12  13
ATOM     13  N   UNL     1      22.602 -11.105   4.685  0.00  0.00    -0.281 N 
ATOM     14  C   UNL     1      23.935 -11.031   4.316  0.00  0.00    +0.248 C 
ATOM     30  O   UNL     1      24.538 -11.914   3.724  0.00  0.00    -0.270 OA
ATOM     31  H   UNL     1      22.278 -10.393   5.339  0.00  0.00    +0.155 HD
BRANCH  14  15
ATOM     15  C   UNL     1      24.715  -9.807   4.670  0.00  0.00    +0.037 A 
ATOM     16  C   UNL     1      26.180  -9.800   4.630  0.00  0.00    +0.013 A 
ATOM     17  C   UNL     1      26.908  -8.611   4.993  0.00  0.00    +0.005 A 
ATOM     18  C   UNL     1      26.172  -7.416   5.398  0.00  0.00    -0.033 A 
ATOM     28  C   UNL     1      24.719  -7.448   5.423  0.00  0.00    +0.005 A 
ATOM     29  C   UNL     1      24.002  -8.612   5.070  0.00  0.00    +0.013 A 
BRANCH  18  19
ATOM     19  C   UNL     1      26.867  -6.108   5.821  0.00  0.00    +0.119 C 
BRANCH  19  20
ATOM     20  N   UNL     1      26.801  -5.736   7.266  0.00  0.00    -0.302 NA
ATOM     21  C   UNL     1      26.301  -4.303   7.468  0.00  0.00    +0.066 C 
ATOM     22  C   UNL     1      26.217  -3.937   8.986  0.00  0.00    -0.064 C 
ATOM     23  N   UNL     1      27.591  -4.127   9.630  0.00  0.00    +0.379 N 
ATOM     24  C   UNL     1      27.529  -3.729  11.044  0.00  0.00    -0.096 C 
ATOM     25  H   UNL     1      28.303  -3.440   9.116  0.00  0.00    -0.082 HD
ATOM     26  C   UNL     1      28.097  -5.549   9.432  0.00  0.00    -0.064 C 
ATOM     27  C   UNL     1      28.149  -5.911   7.921  0.00  0.00    +0.066 C 
ENDBRANCH  19  20
ENDBRANCH  18  19
ENDBRANCH  14  15
ENDBRANCH  12  13
TORSDOF 6
ENDMDL
MODEL 2
REMARK VINA RESULT:      -8.6      2.918     13.119
REMARK  Name = C:\Users\Docking\Desktop\test protocol\1iep_ligandH.pdb
REMARK  8 active torsions:
REMARK  status: ('A' for Active; 'I' for Inactive)
REMARK    1  A    between atoms: _5  and  _11
REMARK    2  A    between atoms: _19  and  _21
REMARK    3  A    between atoms: _22  and  _66
REMARK    4  A    between atoms: _27  and  _30
REMARK    5  A    between atoms: _32  and  _33
REMARK    6  A    between atoms: _38  and  _43
REMARK    7  A    between atoms: _43  and  _46
REMARK    8  A    between atoms: _53  and  _55
REMARK                            x       y       z     vdW  Elec       q    Type
REMARK                         _______ _______ _______ _____ _____    ______ ____
ROOT
ATOM     10  C   UNL     1      24.796  -3.883   8.849  0.00  0.00    +0.038 A 
ATOM     11  C   UNL     1      24.752  -5.141   8.197  0.00  0.00    +0.047 A 
ATOM     12  C   UNL     1      24.110  -5.296   6.901  0.00  0.00    +0.035 A 
ATOM     32  C   UNL     1      23.524  -4.146   6.296  0.00  0.00    +0.024 A 
ATOM     33  C   UNL     1      23.558  -2.859   6.945  0.00  0.00    +0.007 A 
ATOM     34  C   UNL     1      24.188  -2.701   8.225  0.00  0.00    -0.029 A 
ATOM     35  C   UNL     1      24.189  -1.299   8.877  0.00  0.00    +0.045 C 
ENDROOT
BRANCH  10   9
ATOM      4  C   UNL     1      28.651  -3.080  11.592  0.00  0.00    +0.077 A 
ATOM      5  C   UNL     1      29.489  -2.848  10.450  0.00  0.00    +0.048 A 
ATOM      6  C   UNL     1      28.890  -2.953   9.175  0.00  0.00    +0.116 A 
ATOM      7  N   UNL     1      27.553  -3.265   9.061  0.00  0.00    -0.223 NA
ATOM      8  C   UNL     1      26.774  -3.484  10.183  0.00  0.00    +0.220 A 
ATOM      9  N   UNL     1      25.425  -3.792  10.092  0.00  0.00    -0.283 N 
ATOM     36  H   UNL     1      24.887  -3.953  10.943  0.00  0.00    +0.155 HD
ATOM     37  N   UNL     1      27.322  -3.392  11.412  0.00  0.00    -0.214 NA
BRANCH   4   3
ATOM      1  C   UNL     1      29.589  -4.013  15.273  0.00  0.00    +0.020 A 
ATOM      2  C   UNL     1      29.107  -4.140  13.917  0.00  0.00    +0.013 A 
ATOM      3  C   UNL     1      29.137  -3.003  13.006  0.00  0.00    +0.019 A 
ATOM     38  C   UNL     1      29.665  -1.741  13.503  0.00  0.00    +0.120 A 
ATOM     39  N   UNL     1      30.120  -1.648  14.814  0.00  0.00    -0.263 NA
ATOM     40  C   UNL     1      30.095  -2.735  15.700  0.00  0.00    +0.111 A 
ENDBRANCH   4   3
ENDBRANCH  10   9
BRANCH  12  13
ATOM     13  N   UNL     1      24.028  -6.550   6.195  0.00  0.00    -0.281 N 
ATOM     14  C   UNL     1      25.031  -7.200   5.494  0.00  0.00    +0.248 C 
ATOM     30  O   UNL     1      26.099  -6.694   5.187  0.00  0.00    -0.270 OA
ATOM     31  H   UNL     1      23.120  -7.016   6.214  0.00  0.00    +0.155 HD
BRANCH  14  15
ATOM     15  C   UNL     1      24.808  -8.613   5.059  0.00  0.00    +0.037 A 
ATOM     16  C   UNL     1      25.929  -9.475   4.673  0.00  0.00    +0.013 A 
ATOM     17  C   UNL     1      25.685 -10.828   4.241  0.00  0.00    +0.005 A 
ATOM     18  C   UNL     1      24.313 -11.328   4.193  0.00  0.00    -0.033 A 
ATOM     28  C   UNL     1      23.221 -10.454   4.586  0.00  0.00    +0.005 A 
ATOM     29  C   UNL     1      23.456  -9.126   5.009  0.00  0.00    +0.013 A 
BRANCH  18  19
ATOM     19  C   UNL     1      23.958 -12.752   3.725  0.00  0.00    +0.119 C 
BRANCH  19  20
ATOM     20  N   UNL     1      23.145 -13.594   4.652  0.00  0.00    -0.302 NA
ATOM     21  C   UNL     1      23.836 -14.922   4.976  0.00  0.00    +0.066 C 
ATOM     22  C   UNL     1      22.982 -15.781   5.965  0.00  0.00    -0.064 C 
ATOM     23  N   UNL     1      21.597 -16.023   5.361  0.00  0.00    +0.379 N 
ATOM     24  C   UNL     1      20.812 -16.879   6.262  0.00  0.00    -0.096 C 
ATOM     25  H   UNL     1      21.739 -16.579   4.405  0.00  0.00    -0.082 HD
ATOM     26  C   UNL     1      20.905 -14.708   5.033  0.00  0.00    -0.064 C 
ATOM     27  C   UNL     1      21.775 -13.850   4.073  0.00  0.00    +0.066 C 
ENDBRANCH  19  20
ENDBRANCH  18  19
ENDBRANCH  14  15
ENDBRANCH  12  13
TORSDOF 6
ENDMDL
MODEL 3
REMARK VINA RESULT:      -8.5      2.196     12.574
REMARK  Name = C:\Users\Docking\Desktop\test protocol\1iep_ligandH.pdb
REMARK  8 active torsions:
REMARK  status: ('A' for Active; 'I' for Inactive)
REMARK    1  A    between atoms: _5  and  _11
REMARK    2  A    between atoms: _19  and  _21
REMARK    3  A    between atoms: _22  and  _66
REMARK    4  A    between atoms: _27  and  _30
REMARK    5  A    between atoms: _32  and  _33
REMARK    6  A    between atoms: _38  and  _43
REMARK    7  A    between atoms: _43  and  _46
REMARK    8  A    between atoms: _53  and  _55
REMARK                            x       y       z     vdW  Elec       q    Type
REMARK                         _______ _______ _______ _____ _____    ______ ____
ROOT
ATOM     10  C   UNL     1      20.492 -12.193   4.142  0.00  0.00    +0.038 A 
ATOM     11  C   UNL     1      20.290 -13.213   5.108  0.00  0.00    +0.047 A 
ATOM     12  C   UNL     1      19.552 -14.423   4.782  0.00  0.00    +0.035 A 
ATOM     32  C   UNL     1      19.033 -14.562   3.461  0.00  0.00    +0.024 A 
ATOM     33  C   UNL     1      19.227 -13.535   2.468  0.00  0.00    +0.007 A 
ATOM     34  C   UNL     1      19.953 -12.339   2.785  0.00  0.00    -0.029 A 
ATOM     35  C   UNL     1      20.125 -11.268   1.682  0.00  0.00    +0.045 C 
ENDROOT
BRANCH  10   9
ATOM      4  C   UNL     1      24.599  -9.775   4.706  0.00  0.00    +0.077 A 
ATOM      5  C   UNL     1      25.385 -10.888   4.255  0.00  0.00    +0.048 A 
ATOM      6  C   UNL     1      24.694 -12.066   3.895  0.00  0.00    +0.116 A 
ATOM      7  N   UNL     1      23.319 -12.117   3.982  0.00  0.00    -0.223 NA
ATOM      8  C   UNL     1      22.592 -11.026   4.422  0.00  0.00    +0.220 A 
ATOM      9  N   UNL     1      21.209 -11.052   4.510  0.00  0.00    -0.283 N 
ATOM     36  H   UNL     1      20.709 -10.230   4.846  0.00  0.00    +0.155 HD
ATOM     37  N   UNL     1      23.229  -9.890   4.773  0.00  0.00    -0.214 NA
BRANCH   4   3
ATOM      1  C   UNL     1      24.995  -6.124   6.051  0.00  0.00    +0.020 A 
ATOM      2  C   UNL     1      24.381  -7.374   5.667  0.00  0.00    +0.013 A 
ATOM      3  C   UNL     1      25.184  -8.460   5.119  0.00  0.00    +0.019 A 
ATOM     38  C   UNL     1      26.615  -8.247   4.971  0.00  0.00    +0.120 A 
ATOM     39  N   UNL     1      27.178  -7.032   5.348  0.00  0.00    -0.263 NA
ATOM     40  C   UNL     1      26.416  -5.979   5.875  0.00  0.00    +0.111 A 
ENDBRANCH   4   3
ENDBRANCH  10   9
BRANCH  12  13
ATOM     13  N   UNL     1      19.309 -15.488   5.723  0.00  0.00    -0.281 N 
ATOM     14  C   UNL     1      20.223 -16.390   6.243  0.00  0.00    +0.248 C 
ATOM     30  O   UNL     1      21.355 -16.552   5.812  0.00  0.00    -0.270 OA
ATOM     31  H   UNL     1      18.346 -15.590   6.044  0.00  0.00    +0.155 HD
BRANCH  14  15
ATOM     15  C   UNL     1      19.816 -17.244   7.399  0.00  0.00    +0.037 A 
ATOM     16  C   UNL     1      20.815 -17.872   8.269  0.00  0.00    +0.013 A 
ATOM     17  C   UNL     1      20.395 -18.705   9.368  0.00  0.00    +0.005 A 
ATOM     18  C   UNL     1      18.969 -18.915   9.604  0.00  0.00    -0.033 A 
ATOM     28  C   UNL     1      18.000 -18.276   8.729  0.00  0.00    +0.005 A 
ATOM     29  C   UNL     1      18.407 -17.459   7.650  0.00  0.00    +0.013 A 
BRANCH  18  19
ATOM     19  C   UNL     1      18.431 -19.805  10.739  0.00  0.00    +0.119 C 
BRANCH  19  20
ATOM     20  N   UNL     1      16.972 -20.123  10.727  0.00  0.00    -0.302 NA
ATOM     21  C   UNL     1      16.246 -19.540  11.942  0.00  0.00    +0.066 C 
ATOM     22  C   UNL     1      14.717 -19.863  11.901  0.00  0.00    -0.064 C 
ATOM     23  N   UNL     1      14.520 -21.378  11.828  0.00  0.00    +0.379 N 
ATOM     24  C   UNL     1      13.083 -21.688  11.848  0.00  0.00    -0.096 C 
ATOM     25  H   UNL     1      14.975 -21.823  12.744  0.00  0.00    -0.082 HD
ATOM     26  C   UNL     1      15.241 -21.967  10.624  0.00  0.00    -0.064 C 
ATOM     27  C   UNL     1      16.755 -21.615  10.659  0.00  0.00    +0.066 C 
ENDBRANCH  19  20
ENDBRANCH  18  19
ENDBRANCH  14  15
ENDBRANCH  12  13
TORSDOF 6
ENDMDL
MODEL 4
REMARK VINA RESULT:      -8.2      2.642     11.684
REMARK  Name = C:\Users\Docking\Desktop\test protocol\1iep_ligandH.pdb
REMARK  8 active torsions:
REMARK  status: ('A' for Active; 'I' for Inactive)
REMARK    1  A    between atoms: _5  and  _11
REMARK    2  A    between atoms: _19  and  _21
REMARK    3  A    between atoms: _22  and  _66
REMARK    4  A    between atoms: _27  and  _30
REMARK    5  A    between atoms: _32  and  _33
REMARK    6  A    between atoms: _38  and  _43
REMARK    7  A    between atoms: _43  and  _46
REMARK    8  A    between atoms: _53  and  _55
REMARK                            x       y       z     vdW  Elec       q    Type
REMARK                         _______ _______ _______ _____ _____    ______ ____
ROOT
ATOM     10  C   UNL     1      20.758 -11.563   4.092  0.00  0.00    +0.038 A 
ATOM     11  C   UNL     1      20.723 -12.680   4.965  0.00  0.00    +0.047 A 
ATOM     12  C   UNL     1      20.016 -13.898   4.602  0.00  0.00    +0.035 A 
ATOM     32  C   UNL     1      19.357 -13.945   3.339  0.00  0.00    +0.024 A 
ATOM     33  C   UNL     1      19.381 -12.818   2.439  0.00  0.00    +0.007 A 
ATOM     34  C   UNL     1      20.075 -11.613   2.793  0.00  0.00    -0.029 A 
ATOM     35  C   UNL     1      20.063 -10.435   1.792  0.00  0.00    +0.045 C 
ENDROOT
BRANCH  10   9
ATOM      4  C   UNL     1      24.825  -9.135   4.870  0.00  0.00    +0.077 A 
ATOM      5  C   UNL     1      25.636 -10.249   4.471  0.00  0.00    +0.048 A 
ATOM      6  C   UNL     1      24.968 -11.431   4.080  0.00  0.00    +0.116 A 
ATOM      7  N   UNL     1      23.591 -11.483   4.090  0.00  0.00    -0.223 NA
ATOM      8  C   UNL     1      22.838 -10.391   4.481  0.00  0.00    +0.220 A 
ATOM      9  N   UNL     1      21.452 -10.419   4.492  0.00  0.00    -0.283 N 
ATOM     36  H   UNL     1      20.934  -9.594   4.794  0.00  0.00    +0.155 HD
ATOM     37  N   UNL     1      23.453  -9.251   4.861  0.00  0.00    -0.214 NA
BRANCH   4   3
ATOM      1  C   UNL     1      25.154  -5.512   6.308  0.00  0.00    +0.020 A 
ATOM      2  C   UNL     1      24.565  -6.767   5.903  0.00  0.00    +0.013 A 
ATOM      3  C   UNL     1      25.383  -7.816   5.306  0.00  0.00    +0.019 A 
ATOM     38  C   UNL     1      26.805  -7.560   5.133  0.00  0.00    +0.120 A 
ATOM     39  N   UNL     1      27.344  -6.341   5.532  0.00  0.00    -0.263 NA
ATOM     40  C   UNL     1      26.566  -5.324   6.105  0.00  0.00    +0.111 A 
ENDBRANCH   4   3
ENDBRANCH  10   9
BRANCH  12  13
ATOM     13  N   UNL     1      19.940 -15.060   5.451  0.00  0.00    -0.281 N 
ATOM     14  C   UNL     1      20.963 -15.924   5.806  0.00  0.00    +0.248 C 
ATOM     30  O   UNL     1      22.062 -15.951   5.272  0.00  0.00    -0.270 OA
ATOM     31  H   UNL     1      19.020 -15.272   5.838  0.00  0.00    +0.155 HD
BRANCH  14  15
ATOM     15  C   UNL     1      20.726 -16.911   6.903  0.00  0.00    +0.037 A 
ATOM     16  C   UNL     1      19.420 -17.021   7.559  0.00  0.00    +0.013 A 
ATOM     17  C   UNL     1      19.224 -17.969   8.626  0.00  0.00    +0.005 A 
ATOM     18  C   UNL     1      20.337 -18.818   9.044  0.00  0.00    -0.033 A 
ATOM     28  C   UNL     1      21.620 -18.693   8.373  0.00  0.00    +0.005 A 
ATOM     29  C   UNL     1      21.817 -17.763   7.327  0.00  0.00    +0.013 A 
BRANCH  18  19
ATOM     19  C   UNL     1      20.224 -19.843  10.188  0.00  0.00    +0.119 C 
BRANCH  19  20
ATOM     20  N   UNL     1      21.401 -19.989  11.094  0.00  0.00    -0.302 NA
ATOM     21  C   UNL     1      22.193 -21.268  10.806  0.00  0.00    +0.066 C 
ATOM     22  C   UNL     1      23.434 -21.393  11.749  0.00  0.00    -0.064 C 
ATOM     23  N   UNL     1      22.970 -21.360  13.206  0.00  0.00    +0.379 N 
ATOM     24  C   UNL     1      24.129 -21.536  14.094  0.00  0.00    -0.096 C 
ATOM     25  H   UNL     1      22.288 -22.228  13.363  0.00  0.00    -0.082 HD
ATOM     26  C   UNL     1      22.180 -20.093  13.500  0.00  0.00    -0.064 C 
ATOM     27  C   UNL     1      20.965 -19.963  12.539  0.00  0.00    +0.066 C 
ENDBRANCH  19  20
ENDBRANCH  18  19
ENDBRANCH  14  15
ENDBRANCH  12  13
TORSDOF 6
ENDMDL
MODEL 5
REMARK VINA RESULT:      -8.2      3.840     12.866
REMARK  Name = C:\Users\Docking\Desktop\test protocol\1iep_ligandH.pdb
REMARK  8 active torsions:
REMARK  status: ('A' for Active; 'I' for Inactive)
REMARK    1  A    between atoms: _5  and  _11
REMARK    2  A    between atoms: _19  and  _21
REMARK    3  A    between atoms: _22  and  _66
REMARK    4  A    between atoms: _27  and  _30
REMARK    5  A    between atoms: _32  and  _33
REMARK    6  A    between atoms: _38  and  _43
REMARK    7  A    between atoms: _43  and  _46
REMARK    8  A    between atoms: _53  and  _55
REMARK                            x       y       z     vdW  Elec       q    Type
REMARK                         _______ _______ _______ _____ _____    ______ ____
ROOT
ATOM     10  C   UNL     1      25.223  -4.222   9.158  0.00  0.00    +0.038 A 
ATOM     11  C   UNL     1      25.048  -5.430   8.434  0.00  0.00    +0.047 A 
ATOM     12  C   UNL     1      24.299  -5.458   7.188  0.00  0.00    +0.035 A 
ATOM     32  C   UNL     1      23.744  -4.237   6.706  0.00  0.00    +0.024 A 
ATOM     33  C   UNL     1      23.911  -3.001   7.429  0.00  0.00    +0.007 A 
ATOM     34  C   UNL     1      24.647  -2.968   8.660  0.00  0.00    -0.029 A 
ATOM     35  C   UNL     1      24.789  -1.615   9.397  0.00  0.00    +0.045 C 
ENDROOT
BRANCH  10   9
ATOM      4  C   UNL     1      29.361  -4.221  11.590  0.00  0.00    +0.077 A 
ATOM      5  C   UNL     1      30.138  -4.184  10.385  0.00  0.00    +0.048 A 
ATOM      6  C   UNL     1      29.434  -4.173   9.160  0.00  0.00    +0.116 A 
ATOM      7  N   UNL     1      28.057  -4.198   9.152  0.00  0.00    -0.223 NA
ATOM      8  C   UNL     1      27.338  -4.236  10.333  0.00  0.00    +0.220 A 
ATOM      9  N   UNL     1      25.952  -4.253  10.349  0.00  0.00    -0.283 N 
ATOM     36  H   UNL     1      25.458  -4.288  11.241  0.00  0.00    +0.155 HD
ATOM     37  N   UNL     1      27.986  -4.248  11.516  0.00  0.00    -0.214 NA
BRANCH   4   3
ATOM      1  C   UNL     1      31.917  -4.368  14.547  0.00  0.00    +0.020 A 
ATOM      2  C   UNL     1      31.391  -4.362  13.202  0.00  0.00    +0.013 A 
ATOM      3  C   UNL     1      29.959  -4.234  12.963  0.00  0.00    +0.019 A 
ATOM     38  C   UNL     1      29.080  -4.111  14.116  0.00  0.00    +0.120 A 
ATOM     39  N   UNL     1      29.615  -4.121  15.400  0.00  0.00    -0.263 NA
ATOM     40  C   UNL     1      30.992  -4.246  15.643  0.00  0.00    +0.111 A 
ENDBRANCH   4   3
ENDBRANCH  10   9
BRANCH  12  13
ATOM     13  N   UNL     1      24.082  -6.655   6.414  0.00  0.00    -0.281 N 
ATOM     14  C   UNL     1      24.991  -7.329   5.614  0.00  0.00    +0.248 C 
ATOM     30  O   UNL     1      26.075  -6.882   5.273  0.00  0.00    -0.270 OA
ATOM     31  H   UNL     1      23.144  -7.054   6.461  0.00  0.00    +0.155 HD
BRANCH  14  15
ATOM     15  C   UNL     1      24.637  -8.691   5.109  0.00  0.00    +0.037 A 
ATOM     16  C   UNL     1      23.248  -9.155   5.085  0.00  0.00    +0.013 A 
ATOM     17  C   UNL     1      22.936 -10.479   4.609  0.00  0.00    +0.005 A 
ATOM     18  C   UNL     1      24.018 -11.349   4.151  0.00  0.00    -0.033 A 
ATOM     28  C   UNL     1      25.387 -10.861   4.182  0.00  0.00    +0.005 A 
ATOM     29  C   UNL     1      25.696  -9.564   4.649  0.00  0.00    +0.013 A 
BRANCH  18  19
ATOM     19  C   UNL     1      23.780 -12.784   3.647  0.00  0.00    +0.119 C 
BRANCH  19  20
ATOM     20  N   UNL     1      22.363 -13.224   3.478  0.00  0.00    -0.302 NA
ATOM     21  C   UNL     1      21.524 -12.185   2.730  0.00  0.00    +0.066 C 
ATOM     22  C   UNL     1      20.050 -12.671   2.542  0.00  0.00    -0.064 C 
ATOM     23  N   UNL     1      19.439 -12.976   3.911  0.00  0.00    +0.379 N 
ATOM     24  C   UNL     1      18.035 -13.378   3.742  0.00  0.00    -0.096 C 
ATOM     25  H   UNL     1      19.452 -12.033   4.505  0.00  0.00    -0.082 HD
ATOM     26  C   UNL     1      20.268 -14.007   4.663  0.00  0.00    -0.064 C 
ATOM     27  C   UNL     1      21.738 -13.527   4.818  0.00  0.00    +0.066 C 
ENDBRANCH  19  20
ENDBRANCH  18  19
ENDBRANCH  14  15
ENDBRANCH  12  13
TORSDOF 6
ENDMDL
