MODEL 1
REMARK VINA RESULT:      -9.1      0.000      0.000
REMARK  Name = C:\Users\Docking\Desktop\test protocol\1iep_ligandH.pdb
REMARK  8 active torsions:
REMARK  status: ('A' for Active; 'I' for Inactive)
REMARK    1  A    between atoms: _5  and  _11
REMARK    2  A    between atoms: _19  and  _21
REMARK    3  A    between atoms: _22  and  _66
REMARK    4  A    between atoms: _27  and  _30
REMARK    5  A    between atoms: _32  and  _33
REMARK    6  A    between atoms: _38  and  _43
REMARK    7  A    between atoms: _43  and  _46
REMARK    8  A    between atoms: _53  and  _55
REMARK                            x       y       z     vdW  Elec       q    Type
REMARK                         _______ _______ _______ _____ _____    ______ ____
ROOT
ATOM     10  C   UNL     1      13.626  -7.800  18.610  0.00  0.00    +0.038 A 
ATOM     11  C   UNL     1      14.092  -8.811  17.732  0.00  0.00    +0.047 A 
ATOM     12  C   UNL     1      13.655  -8.865  16.346  0.00  0.00    +0.035 A 
ATOM     32  C   UNL     1      12.743  -7.871  15.886  0.00  0.00    +0.024 A 
ATOM     33  C   UNL     1      12.258  -6.836  16.765  0.00  0.00    +0.007 A 
ATOM     34  C   UNL     1      12.684  -6.779  18.134  0.00  0.00    -0.029 A 
ATOM     35  C   UNL     1      12.126  -5.651  19.032  0.00  0.00    +0.045 C 
ENDROOT
BRANCH  10   9
ATOM      4  C   UNL     1      16.846  -6.644  21.976  0.00  0.00    +0.077 A 
ATOM      5  C   UNL     1      17.711  -6.019  21.018  0.00  0.00    +0.048 A 
ATOM      6  C   UNL     1      17.295  -6.023  19.668  0.00  0.00    +0.116 A 
ATOM      7  N   UNL     1      16.099  -6.610  19.314  0.00  0.00    -0.223 NA
ATOM      8  C   UNL     1      15.289  -7.206  20.263  0.00  0.00    +0.220 A 
ATOM      9  N   UNL     1      14.079  -7.795  19.931  0.00  0.00    -0.283 N 
ATOM     36  H   UNL     1      13.513  -8.230  20.659  0.00  0.00    +0.155 HD
ATOM     37  N   UNL     1      15.665  -7.216  21.559  0.00  0.00    -0.214 NA
BRANCH   4   3
ATOM      1  C   UNL     1      18.734  -6.922  25.391  0.00  0.00    +0.020 A 
ATOM      2  C   UNL     1      18.498  -6.855  23.967  0.00  0.00    +0.013 A 
ATOM      3  C   UNL     1      17.146  -6.718  23.441  0.00  0.00    +0.019 A 
ATOM     38  C   UNL     1      16.045  -6.648  24.391  0.00  0.00    +0.120 A 
ATOM     39  N   UNL     1      16.302  -6.716  25.756  0.00  0.00    -0.263 NA
ATOM     40  C   UNL     1      17.600  -6.851  26.274  0.00  0.00    +0.111 A 
ENDBRANCH   4   3
ENDBRANCH  10   9
BRANCH  12  13
ATOM     13  N   UNL     1      14.088  -9.874  15.410  0.00  0.00    -0.281 N 
ATOM     14  C   UNL     1      15.313 -10.519  15.361  0.00  0.00    +0.248 C 
ATOM     30  O   UNL     1      16.303 -10.172  15.987  0.00  0.00    -0.270 OA
ATOM     31  H   UNL     1      13.410 -10.144  14.698  0.00  0.00    +0.155 HD
BRANCH  14  15
ATOM     15  C   UNL     1      15.463 -11.715  14.477  0.00  0.00    +0.037 A 
ATOM     16  C   UNL     1      14.429 -12.751  14.418  0.00  0.00    +0.013 A 
ATOM     17  C   UNL     1      14.607 -13.903  13.570  0.00  0.00    +0.005 A 
ATOM     18  C   UNL     1      15.825 -14.024  12.773  0.00  0.00    -0.033 A 
ATOM     28  C   UNL     1      16.832 -12.979  12.847  0.00  0.00    +0.005 A 
ATOM     29  C   UNL     1      16.662 -11.849  13.677  0.00  0.00    +0.013 A 
BRANCH  18  19
ATOM     19  C   UNL     1      16.108 -15.229  11.856  0.00  0.00    +0.119 C 
BRANCH  19  20
ATOM     20  N   UNL     1      15.362 -16.492  12.137  0.00  0.00    -0.302 NA
ATOM     21  C   UNL     1      16.281 -17.717  12.121  0.00  0.00    +0.066 C 
ATOM     22  C   UNL     1      15.488 -19.027  12.439  0.00  0.00    -0.064 C 
ATOM     23  N   UNL     1      14.351 -19.189  11.428  0.00  0.00    +0.379 N 
ATOM     24  C   UNL     1      13.639 -20.449  11.689  0.00  0.00    -0.096 C 
ATOM     25  H   UNL     1      14.808 -19.262  10.414  0.00  0.00    -0.082 HD
ATOM     26  C   UNL     1      13.434 -17.974  11.436  0.00  0.00    -0.064 C 
ATOM     27  C   UNL     1      14.237 -16.674  11.148  0.00  0.00    +0.066 C 
ENDBRANCH  19  20
ENDBRANCH  18  19
ENDBRANCH  14  15
ENDBRANCH  12  13
TORSDOF 6
ENDMDL
MODEL 2
REMARK VINA RESULT:      -8.9      3.682     13.510
REMARK  Name = C:\Users\Docking\Desktop\test protocol\1iep_ligandH.pdb
REMARK  8 active torsions:
REMARK  status: ('A' for Active; 'I' for Inactive)
REMARK    1  A    between atoms: _5  and  _11
REMARK    2  A    between atoms: _19  and  _21
REMARK    3  A    between atoms: _22  and  _66
REMARK    4  A    between atoms: _27  and  _30
REMARK    5  A    between atoms: _32  and  _33
REMARK    6  A    between atoms: _38  and  _43
REMARK    7  A    between atoms: _43  and  _46
REMARK    8  A    between atoms: _53  and  _55
REMARK                            x       y       z     vdW  Elec       q    Type
REMARK                         _______ _______ _______ _____ _____    ______ ____
ROOT
ATOM     10  C   UNL     1      17.508 -13.835  12.665  0.00  0.00    +0.038 A 
ATOM     11  C   UNL     1      16.963 -12.622  13.158  0.00  0.00    +0.047 A 
ATOM     12  C   UNL     1      16.630 -12.463  14.565  0.00  0.00    +0.035 A 
ATOM     32  C   UNL     1      16.868 -13.560  15.443  0.00  0.00    +0.024 A 
ATOM     33  C   UNL     1      17.421 -14.801  14.959  0.00  0.00    +0.007 A 
ATOM     34  C   UNL     1      17.749 -14.964  13.572  0.00  0.00    -0.029 A 
ATOM     35  C   UNL     1      18.333 -16.319  13.108  0.00  0.00    +0.045 C 
ENDROOT
BRANCH  10   9
ATOM      4  C   UNL     1      16.296 -14.782   8.119  0.00  0.00    +0.077 A 
ATOM      5  C   UNL     1      14.956 -15.139   8.488  0.00  0.00    +0.048 A 
ATOM      6  C   UNL     1      14.622 -15.072   9.859  0.00  0.00    +0.116 A 
ATOM      7  N   UNL     1      15.564 -14.676  10.783  0.00  0.00    -0.223 NA
ATOM      8  C   UNL     1      16.848 -14.341  10.394  0.00  0.00    +0.220 A 
ATOM      9  N   UNL     1      17.810 -13.933  11.305  0.00  0.00    -0.283 N 
ATOM     36  H   UNL     1      18.747 -13.701  10.978  0.00  0.00    +0.155 HD
ATOM     37  N   UNL     1      17.193 -14.398   9.090  0.00  0.00    -0.214 NA
BRANCH   4   3
ATOM      1  C   UNL     1      16.736 -14.047   4.302  0.00  0.00    +0.020 A 
ATOM      2  C   UNL     1      16.211 -13.994   5.647  0.00  0.00    +0.013 A 
ATOM      3  C   UNL     1      16.800 -14.799   6.709  0.00  0.00    +0.019 A 
ATOM     38  C   UNL     1      17.930 -15.653   6.375  0.00  0.00    +0.120 A 
ATOM     39  N   UNL     1      18.414 -15.685   5.071  0.00  0.00    -0.263 NA
ATOM     40  C   UNL     1      17.853 -14.916   4.040  0.00  0.00    +0.111 A 
ENDBRANCH   4   3
ENDBRANCH  10   9
BRANCH  12  13
ATOM     13  N   UNL     1      16.066 -11.258  15.121  0.00  0.00    -0.281 N 
ATOM     14  C   UNL     1      14.728 -10.920  15.240  0.00  0.00    +0.248 C 
ATOM     30  O   UNL     1      13.814 -11.514  14.688  0.00  0.00    -0.270 OA
ATOM     31  H   UNL     1      16.735 -10.572  15.470  0.00  0.00    +0.155 HD
BRANCH  14  15
ATOM     15  C   UNL     1      14.353  -9.744  16.082  0.00  0.00    +0.037 A 
ATOM     16  C   UNL     1      15.118  -9.392  17.281  0.00  0.00    +0.013 A 
ATOM     17  C   UNL     1      14.724  -8.262  18.085  0.00  0.00    +0.005 A 
ATOM     18  C   UNL     1      13.559  -7.474  17.691  0.00  0.00    -0.033 A 
ATOM     28  C   UNL     1      12.821  -7.842  16.494  0.00  0.00    +0.005 A 
ATOM     29  C   UNL     1      13.203  -8.950  15.704  0.00  0.00    +0.013 A 
BRANCH  18  19
ATOM     19  C   UNL     1      13.054  -6.265  18.500  0.00  0.00    +0.119 C 
BRANCH  19  20
ATOM     20  N   UNL     1      12.017  -6.526  19.543  0.00  0.00    -0.302 NA
ATOM     21  C   UNL     1      11.315  -5.240  19.988  0.00  0.00    +0.066 C 
ATOM     22  C   UNL     1      10.217  -5.533  21.062  0.00  0.00    -0.064 C 
ATOM     23  N   UNL     1      10.855  -6.244  22.258  0.00  0.00    +0.379 N 
ATOM     24  C   UNL     1       9.837  -6.469  23.294  0.00  0.00    -0.096 C 
ATOM     25  H   UNL     1      11.627  -5.562  22.684  0.00  0.00    -0.082 HD
ATOM     26  C   UNL     1      11.558  -7.522  21.823  0.00  0.00    -0.064 C 
ATOM     27  C   UNL     1      12.626  -7.223  20.734  0.00  0.00    +0.066 C 
ENDBRANCH  19  20
ENDBRANCH  18  19
ENDBRANCH  14  15
ENDBRANCH  12  13
TORSDOF 6
ENDMDL
MODEL 3
REMARK VINA RESULT:      -8.9      1.696      2.294
REMARK  Name = C:\Users\Docking\Desktop\test protocol\1iep_ligandH.pdb
REMARK  8 active torsions:
REMARK  status: ('A' for Active; 'I' for Inactive)
REMARK    1  A    between atoms: _5  and  _11
REMARK    2  A    between atoms: _19  and  _21
REMARK    3  A    between atoms: _22  and  _66
REMARK    4  A    between atoms: _27  and  _30
REMARK    5  A    between atoms: _32  and  _33
REMARK    6  A    between atoms: _38  and  _43
REMARK    7  A    between atoms: _43  and  _46
REMARK    8  A    between atoms: _53  and  _55
REMARK                            x       y       z     vdW  Elec       q    Type
REMARK                         _______ _______ _______ _____ _____    ______ ____
ROOT
ATOM     10  C   UNL     1      13.547  -7.696  18.708  0.00  0.00    +0.038 A 
ATOM     11  C   UNL     1      14.020  -8.715  17.843  0.00  0.00    +0.047 A 
ATOM     12  C   UNL     1      13.604  -8.773  16.450  0.00  0.00    +0.035 A 
ATOM     32  C   UNL     1      12.707  -7.774  15.971  0.00  0.00    +0.024 A 
ATOM     33  C   UNL     1      12.216  -6.731  16.836  0.00  0.00    +0.007 A 
ATOM     34  C   UNL     1      12.620  -6.671  18.212  0.00  0.00    -0.029 A 
ATOM     35  C   UNL     1      12.057  -5.534  19.096  0.00  0.00    +0.045 C 
ENDROOT
BRANCH  10   9
ATOM      4  C   UNL     1      16.772  -6.646  22.104  0.00  0.00    +0.077 A 
ATOM      5  C   UNL     1      17.686  -6.090  21.148  0.00  0.00    +0.048 A 
ATOM      6  C   UNL     1      17.291  -6.100  19.791  0.00  0.00    +0.116 A 
ATOM      7  N   UNL     1      16.071  -6.628  19.429  0.00  0.00    -0.223 NA
ATOM      8  C   UNL     1      15.214  -7.158  20.377  0.00  0.00    +0.220 A 
ATOM      9  N   UNL     1      13.979  -7.688  20.036  0.00  0.00    -0.283 N 
ATOM     36  H   UNL     1      13.379  -8.076  20.764  0.00  0.00    +0.155 HD
ATOM     37  N   UNL     1      15.568  -7.162  21.678  0.00  0.00    -0.214 NA
BRANCH   4   3
ATOM      1  C   UNL     1      18.600  -6.803  25.559  0.00  0.00    +0.020 A 
ATOM      2  C   UNL     1      18.392  -6.747  24.130  0.00  0.00    +0.013 A 
ATOM      3  C   UNL     1      17.045  -6.705  23.575  0.00  0.00    +0.019 A 
ATOM     38  C   UNL     1      15.922  -6.720  24.500  0.00  0.00    +0.120 A 
ATOM     39  N   UNL     1      16.153  -6.776  25.871  0.00  0.00    -0.263 NA
ATOM     40  C   UNL     1      17.445  -6.819  26.417  0.00  0.00    +0.111 A 
ENDBRANCH   4   3
ENDBRANCH  10   9
BRANCH  12  13
ATOM     13  N   UNL     1      14.045  -9.789  15.527  0.00  0.00    -0.281 N 
ATOM     14  C   UNL     1      15.262 -10.450  15.505  0.00  0.00    +0.248 C 
ATOM     30  O   UNL     1      16.243 -10.114  16.152  0.00  0.00    -0.270 OA
ATOM     31  H   UNL     1      13.379 -10.053  14.801  0.00  0.00    +0.155 HD
BRANCH  14  15
ATOM     15  C   UNL     1      15.416 -11.650  14.628  0.00  0.00    +0.037 A 
ATOM     16  C   UNL     1      14.446 -12.747  14.663  0.00  0.00    +0.013 A 
ATOM     17  C   UNL     1      14.627 -13.901  13.819  0.00  0.00    +0.005 A 
ATOM     18  C   UNL     1      15.786 -13.963  12.930  0.00  0.00    -0.033 A 
ATOM     28  C   UNL     1      16.730 -12.859  12.912  0.00  0.00    +0.005 A 
ATOM     29  C   UNL     1      16.556 -11.726  13.739  0.00  0.00    +0.013 A 
BRANCH  18  19
ATOM     19  C   UNL     1      16.071 -15.165  12.010  0.00  0.00    +0.119 C 
BRANCH  19  20
ATOM     20  N   UNL     1      16.267 -14.882  10.557  0.00  0.00    -0.302 NA
ATOM     21  C   UNL     1      14.939 -14.820   9.799  0.00  0.00    +0.066 C 
ATOM     22  C   UNL     1      15.162 -14.501   8.285  0.00  0.00    -0.064 C 
ATOM     23  N   UNL     1      16.084 -15.557   7.674  0.00  0.00    +0.379 N 
ATOM     24  C   UNL     1      16.250 -15.293   6.237  0.00  0.00    -0.096 C 
ATOM     25  H   UNL     1      15.582 -16.546   7.781  0.00  0.00    -0.082 HD
ATOM     26  C   UNL     1      17.407 -15.628   8.424  0.00  0.00    -0.064 C 
ATOM     27  C   UNL     1      17.172 -15.916   9.933  0.00  0.00    +0.066 C 
ENDBRANCH  19  20
ENDBRANCH  18  19
ENDBRANCH  14  15
ENDBRANCH  12  13
TORSDOF 6
ENDMDL
MODEL 4
REMARK VINA RESULT:      -8.5      6.072     12.914
REMARK  Name = C:\Users\Docking\Desktop\test protocol\1iep_ligandH.pdb
REMARK  8 active torsions:
REMARK  status: ('A' for Active; 'I' for Inactive)
REMARK    1  A    between atoms: _5  and  _11
REMARK    2  A    between atoms: _19  and  _21
REMARK    3  A    between atoms: _22  and  _66
REMARK    4  A    between atoms: _27  and  _30
REMARK    5  A    between atoms: _32  and  _33
REMARK    6  A    between atoms: _38  and  _43
REMARK    7  A    between atoms: _43  and  _46
REMARK    8  A    between atoms: _53  and  _55
REMARK                            x       y       z     vdW  Elec       q    Type
REMARK                         _______ _______ _______ _____ _____    ______ ____
ROOT
ATOM     10  C   UNL     1      14.136  -8.045  24.204  0.00  0.00    +0.038 A 
ATOM     11  C   UNL     1      15.514  -8.310  24.412  0.00  0.00    +0.047 A 
ATOM     12  C   UNL     1      16.098  -8.251  25.743  0.00  0.00    +0.035 A 
ATOM     32  C   UNL     1      15.249  -7.921  26.840  0.00  0.00    +0.024 A 
ATOM     33  C   UNL     1      13.847  -7.647  26.645  0.00  0.00    +0.007 A 
ATOM     34  C   UNL     1      13.266  -7.702  25.335  0.00  0.00    -0.029 A 
ATOM     35  C   UNL     1      11.758  -7.393  25.184  0.00  0.00    +0.045 C 
ENDROOT
BRANCH  10   9
ATOM      4  C   UNL     1      14.325  -7.005  19.522  0.00  0.00    +0.077 A 
ATOM      5  C   UNL     1      15.523  -6.233  19.681  0.00  0.00    +0.048 A 
ATOM      6  C   UNL     1      16.054  -6.121  20.985  0.00  0.00    +0.116 A 
ATOM      7  N   UNL     1      15.427  -6.741  22.044  0.00  0.00    -0.223 NA
ATOM      8  C   UNL     1      14.271  -7.478  21.856  0.00  0.00    +0.220 A 
ATOM      9  N   UNL     1      13.628  -8.116  22.905  0.00  0.00    -0.283 N 
ATOM     36  H   UNL     1      12.774  -8.644  22.726  0.00  0.00    +0.155 HD
ATOM     37  N   UNL     1      13.743  -7.598  20.620  0.00  0.00    -0.214 NA
BRANCH   4   3
ATOM      1  C   UNL     1      12.058  -6.525  16.370  0.00  0.00    +0.020 A 
ATOM      2  C   UNL     1      12.687  -6.272  17.646  0.00  0.00    +0.013 A 
ATOM      3  C   UNL     1      13.644  -7.218  18.205  0.00  0.00    +0.019 A 
ATOM     38  C   UNL     1      13.945  -8.420  17.442  0.00  0.00    +0.120 A 
ATOM     39  N   UNL     1      13.322  -8.638  16.217  0.00  0.00    -0.263 NA
ATOM     40  C   UNL     1      12.399  -7.735  15.670  0.00  0.00    +0.111 A 
ENDBRANCH   4   3
ENDBRANCH  10   9
BRANCH  12  13
ATOM     13  N   UNL     1      17.492  -8.503  26.015  0.00  0.00    -0.281 N 
ATOM     14  C   UNL     1      18.558  -7.629  25.877  0.00  0.00    +0.248 C 
ATOM     30  O   UNL     1      18.502  -6.558  25.291  0.00  0.00    -0.270 OA
ATOM     31  H   UNL     1      17.720  -9.439  26.350  0.00  0.00    +0.155 HD
BRANCH  14  15
ATOM     15  C   UNL     1      19.881  -8.006  26.461  0.00  0.00    +0.037 A 
ATOM     16  C   UNL     1      20.864  -8.768  25.686  0.00  0.00    +0.013 A 
ATOM     17  C   UNL     1      22.126  -9.133  26.279  0.00  0.00    +0.005 A 
ATOM     18  C   UNL     1      22.412  -8.735  27.655  0.00  0.00    -0.033 A 
ATOM     28  C   UNL     1      21.421  -7.975  28.399  0.00  0.00    +0.005 A 
ATOM     29  C   UNL     1      20.183  -7.616  27.821  0.00  0.00    +0.013 A 
BRANCH  18  19
ATOM     19  C   UNL     1      23.724  -9.099  28.375  0.00  0.00    +0.119 C 
BRANCH  19  20
ATOM     20  N   UNL     1      23.794 -10.438  29.033  0.00  0.00    -0.302 NA
ATOM     21  C   UNL     1      24.121 -11.552  28.034  0.00  0.00    +0.066 C 
ATOM     22  C   UNL     1      24.213 -12.943  28.742  0.00  0.00    -0.064 C 
ATOM     23  N   UNL     1      22.895 -13.232  29.464  0.00  0.00    +0.379 N 
ATOM     24  C   UNL     1      22.957 -14.565  30.082  0.00  0.00    -0.096 C 
ATOM     25  H   UNL     1      22.087 -13.253  28.696  0.00  0.00    -0.082 HD
ATOM     26  C   UNL     1      22.561 -12.128  30.457  0.00  0.00    -0.064 C 
ATOM     27  C   UNL     1      22.502 -10.747  29.748  0.00  0.00    +0.066 C 
ENDBRANCH  19  20
ENDBRANCH  18  19
ENDBRANCH  14  15
ENDBRANCH  12  13
TORSDOF 6
ENDMDL
MODEL 5
REMARK VINA RESULT:      -8.5     20.136     26.515
REMARK  Name = C:\Users\Docking\Desktop\test protocol\1iep_ligandH.pdb
REMARK  8 active torsions:
REMARK  status: ('A' for Active; 'I' for Inactive)
REMARK    1  A    between atoms: _5  and  _11
REMARK    2  A    between atoms: _19  and  _21
REMARK    3  A    between atoms: _22  and  _66
REMARK    4  A    between atoms: _27  and  _30
REMARK    5  A    between atoms: _32  and  _33
REMARK    6  A    between atoms: _38  and  _43
REMARK    7  A    between atoms: _43  and  _46
REMARK    8  A    between atoms: _53  and  _55
REMARK                            x       y       z     vdW  Elec       q    Type
REMARK                         _______ _______ _______ _____ _____    ______ ____
ROOT
ATOM     10  C   UNL     1      11.396 -13.997  45.750  0.00  0.00    +0.038 A 
ATOM     11  C   UNL     1      11.680 -13.903  44.363  0.00  0.00    +0.047 A 
ATOM     12  C   UNL     1      12.477 -14.916  43.688  0.00  0.00    +0.035 A 
ATOM     32  C   UNL     1      12.967 -16.013  44.456  0.00  0.00    +0.024 A 
ATOM     33  C   UNL     1      12.689 -16.123  45.866  0.00  0.00    +0.007 A 
ATOM     34  C   UNL     1      11.905 -15.126  46.538  0.00  0.00    -0.029 A 
ATOM     35  C   UNL     1      11.644 -15.292  48.053  0.00  0.00    +0.045 C 
ENDROOT
BRANCH  10   9
ATOM      4  C   UNL     1       7.194 -12.193  47.207  0.00  0.00    +0.077 A 
ATOM      5  C   UNL     1       6.468 -13.328  46.713  0.00  0.00    +0.048 A 
ATOM      6  C   UNL     1       7.213 -14.351  46.085  0.00  0.00    +0.116 A 
ATOM      7  N   UNL     1       8.581 -14.237  45.964  0.00  0.00    -0.223 NA
ATOM      8  C   UNL     1       9.250 -13.128  46.450  0.00  0.00    +0.220 A 
ATOM      9  N   UNL     1      10.626 -12.996  46.347  0.00  0.00    -0.283 N 
ATOM     36  H   UNL     1      11.081 -12.160  46.711  0.00  0.00    +0.155 HD
ATOM     37  N   UNL     1       8.561 -12.137  47.053  0.00  0.00    -0.214 NA
BRANCH   4   3
ATOM      1  C   UNL     1       5.791  -9.800  49.965  0.00  0.00    +0.020 A 
ATOM      2  C   UNL     1       6.423 -10.943  49.347  0.00  0.00    +0.013 A 
ATOM      3  C   UNL     1       6.548 -11.033  47.898  0.00  0.00    +0.019 A 
ATOM     38  C   UNL     1       6.021  -9.939  47.096  0.00  0.00    +0.120 A 
ATOM     39  N   UNL     1       5.417  -8.851  47.719  0.00  0.00    -0.263 NA
ATOM     40  C   UNL     1       5.289  -8.755  49.112  0.00  0.00    +0.111 A 
ENDBRANCH   4   3
ENDBRANCH  10   9
BRANCH  12  13
ATOM     13  N   UNL     1      12.804 -14.870  42.285  0.00  0.00    -0.281 N 
ATOM     14  C   UNL     1      13.753 -14.079  41.657  0.00  0.00    +0.248 C 
ATOM     30  O   UNL     1      14.320 -13.132  42.181  0.00  0.00    -0.270 OA
ATOM     31  H   UNL     1      12.272 -15.496  41.681  0.00  0.00    +0.155 HD
BRANCH  14  15
ATOM     15  C   UNL     1      14.114 -14.374  40.237  0.00  0.00    +0.037 A 
ATOM     16  C   UNL     1      15.480 -14.180  39.744  0.00  0.00    +0.013 A 
ATOM     17  C   UNL     1      15.797 -14.456  38.365  0.00  0.00    +0.005 A 
ATOM     18  C   UNL     1      14.745 -14.932  37.470  0.00  0.00    -0.033 A 
ATOM     28  C   UNL     1      13.400 -15.121  37.987  0.00  0.00    +0.005 A 
ATOM     29  C   UNL     1      13.085 -14.851  39.337  0.00  0.00    +0.013 A 
BRANCH  18  19
ATOM     19  C   UNL     1      14.989 -15.232  35.979  0.00  0.00    +0.119 C 
BRANCH  19  20
ATOM     20  N   UNL     1      16.298 -15.847  35.610  0.00  0.00    -0.302 NA
ATOM     21  C   UNL     1      17.282 -14.814  35.053  0.00  0.00    +0.066 C 
ATOM     22  C   UNL     1      18.654 -15.471  34.693  0.00  0.00    -0.064 C 
ATOM     23  N   UNL     1      18.428 -16.601  33.687  0.00  0.00    +0.379 N 
ATOM     24  C   UNL     1      19.722 -17.183  33.303  0.00  0.00    -0.096 C 
ATOM     25  H   UNL     1      17.973 -16.153  32.773  0.00  0.00    -0.082 HD
ATOM     26  C   UNL     1      17.449 -17.631  34.232  0.00  0.00    -0.064 C 
ATOM     27  C   UNL     1      16.098 -16.963  34.614  0.00  0.00    +0.066 C 
ENDBRANCH  19  20
ENDBRANCH  18  19
ENDBRANCH  14  15
ENDBRANCH  12  13
TORSDOF 6
ENDMDL
