MODEL 1
REMARK VINA RESULT:      -7.8      0.000      0.000
REMARK  Name = C:\Users\Docking\Desktop\test protocol\1iep_ligandH.pdb
REMARK  8 active torsions:
REMARK  status: ('A' for Active; 'I' for Inactive)
REMARK    1  A    between atoms: _5  and  _11
REMARK    2  A    between atoms: _19  and  _21
REMARK    3  A    between atoms: _22  and  _66
REMARK    4  A    between atoms: _27  and  _30
REMARK    5  A    between atoms: _32  and  _33
REMARK    6  A    between atoms: _38  and  _43
REMARK    7  A    between atoms: _43  and  _46
REMARK    8  A    between atoms: _53  and  _55
REMARK                            x       y       z     vdW  Elec       q    Type
REMARK                         _______ _______ _______ _____ _____    ______ ____
ROOT
ATOM     10  C   UNL     1     -28.660  57.716 -20.707  0.00  0.00    +0.038 A 
ATOM     11  C   UNL     1     -28.070  56.553 -21.263  0.00  0.00    +0.047 A 
ATOM     12  C   UNL     1     -27.151  56.640 -22.387  0.00  0.00    +0.035 A 
ATOM     32  C   UNL     1     -26.853  57.928 -22.918  0.00  0.00    +0.024 A 
ATOM     33  C   UNL     1     -27.445  59.121 -22.366  0.00  0.00    +0.007 A 
ATOM     34  C   UNL     1     -28.354  59.041 -21.259  0.00  0.00    -0.029 A 
ATOM     35  C   UNL     1     -28.964  60.353 -20.711  0.00  0.00    +0.045 C 
ENDROOT
BRANCH  10   9
ATOM      4  C   UNL     1     -29.552  57.138 -16.026  0.00  0.00    +0.077 A 
ATOM      5  C   UNL     1     -28.154  57.087 -15.706  0.00  0.00    +0.048 A 
ATOM      6  C   UNL     1     -27.239  57.207 -16.776  0.00  0.00    +0.116 A 
ATOM      7  N   UNL     1     -27.698  57.365 -18.065  0.00  0.00    -0.223 NA
ATOM      8  C   UNL     1     -29.052  57.408 -18.340  0.00  0.00    +0.220 A 
ATOM      9  N   UNL     1     -29.536  57.574 -19.628  0.00  0.00    -0.283 N 
ATOM     36  H   UNL     1     -30.543  57.594 -19.790  0.00  0.00    +0.155 HD
ATOM     37  N   UNL     1     -29.947  57.295 -17.336  0.00  0.00    -0.214 NA
BRANCH   4   3
ATOM      1  C   UNL     1     -32.858  56.148 -14.186  0.00  0.00    +0.020 A 
ATOM      2  C   UNL     1     -31.836  56.219 -15.204  0.00  0.00    +0.013 A 
ATOM      3  C   UNL     1     -30.641  57.030 -15.005  0.00  0.00    +0.019 A 
ATOM     38  C   UNL     1     -30.511  57.762 -13.754  0.00  0.00    +0.120 A 
ATOM     39  N   UNL     1     -31.512  57.676 -12.793  0.00  0.00    -0.263 NA
ATOM     40  C   UNL     1     -32.667  56.900 -12.974  0.00  0.00    +0.111 A 
ENDBRANCH   4   3
ENDBRANCH  10   9
BRANCH  12  13
ATOM     13  N   UNL     1     -26.527  55.492 -22.999  0.00  0.00    -0.281 N 
ATOM     14  C   UNL     1     -25.233  55.031 -22.822  0.00  0.00    +0.248 C 
ATOM     30  O   UNL     1     -24.344  55.662 -22.270  0.00  0.00    -0.270 OA
ATOM     31  H   UNL     1     -27.110  54.956 -23.641  0.00  0.00    +0.155 HD
BRANCH  14  15
ATOM     15  C   UNL     1     -24.870  53.679 -23.345  0.00  0.00    +0.037 A 
ATOM     16  C   UNL     1     -25.750  52.962 -24.273  0.00  0.00    +0.013 A 
ATOM     17  C   UNL     1     -25.384  51.652 -24.749  0.00  0.00    +0.005 A 
ATOM     18  C   UNL     1     -24.131  51.050 -24.300  0.00  0.00    -0.033 A 
ATOM     28  C   UNL     1     -23.275  51.786 -23.384  0.00  0.00    +0.005 A 
ATOM     29  C   UNL     1     -23.630  53.070 -22.914  0.00  0.00    +0.013 A 
BRANCH  18  19
ATOM     19  C   UNL     1     -23.671  49.648 -24.741  0.00  0.00    +0.119 C 
BRANCH  19  20
ATOM     20  N   UNL     1     -24.426  49.000 -25.855  0.00  0.00    -0.302 NA
ATOM     21  C   UNL     1     -24.906  47.594 -25.482  0.00  0.00    +0.066 C 
ATOM     22  C   UNL     1     -25.712  46.940 -26.650  0.00  0.00    -0.064 C 
ATOM     23  N   UNL     1     -24.842  46.899 -27.907  0.00  0.00    +0.379 N 
ATOM     24  C   UNL     1     -25.577  46.231 -28.991  0.00  0.00    -0.096 C 
ATOM     25  H   UNL     1     -23.944  46.280 -27.676  0.00  0.00    -0.082 HD
ATOM     26  C   UNL     1     -24.358  48.292 -28.283  0.00  0.00    -0.064 C 
ATOM     27  C   UNL     1     -23.583  48.945 -27.105  0.00  0.00    +0.066 C 
ENDBRANCH  19  20
ENDBRANCH  18  19
ENDBRANCH  14  15
ENDBRANCH  12  13
TORSDOF 6
ENDMDL
MODEL 2
REMARK VINA RESULT:      -7.8     21.184     26.032
REMARK  Name = C:\Users\Docking\Desktop\test protocol\1iep_ligandH.pdb
REMARK  8 active torsions:
REMARK  status: ('A' for Active; 'I' for Inactive)
REMARK    1  A    between atoms: _5  and  _11
REMARK    2  A    between atoms: _19  and  _21
REMARK    3  A    between atoms: _22  and  _66
REMARK    4  A    between atoms: _27  and  _30
REMARK    5  A    between atoms: _32  and  _33
REMARK    6  A    between atoms: _38  and  _43
REMARK    7  A    between atoms: _43  and  _46
REMARK    8  A    between atoms: _53  and  _55
REMARK                            x       y       z     vdW  Elec       q    Type
REMARK                         _______ _______ _______ _____ _____    ______ ____
ROOT
ATOM     10  C   UNL     1     -19.584  43.399   1.202  0.00  0.00    +0.038 A 
ATOM     11  C   UNL     1     -20.648  44.027   0.505  0.00  0.00    +0.047 A 
ATOM     12  C   UNL     1     -21.204  45.291   0.961  0.00  0.00    +0.035 A 
ATOM     32  C   UNL     1     -20.650  45.891   2.130  0.00  0.00    +0.024 A 
ATOM     33  C   UNL     1     -19.568  45.266   2.850  0.00  0.00    +0.007 A 
ATOM     34  C   UNL     1     -19.018  44.017   2.407  0.00  0.00    -0.029 A 
ATOM     35  C   UNL     1     -17.863  43.390   3.222  0.00  0.00    +0.045 C 
ENDROOT
BRANCH  10   9
ATOM      4  C   UNL     1     -16.395  40.821  -1.292  0.00  0.00    +0.077 A 
ATOM      5  C   UNL     1     -15.669  41.993  -1.689  0.00  0.00    +0.048 A 
ATOM      6  C   UNL     1     -16.154  43.240  -1.237  0.00  0.00    +0.116 A 
ATOM      7  N   UNL     1     -17.281  43.300  -0.446  0.00  0.00    -0.223 NA
ATOM      8  C   UNL     1     -17.958  42.150  -0.082  0.00  0.00    +0.220 A 
ATOM      9  N   UNL     1     -19.089  42.186   0.719  0.00  0.00    -0.283 N 
ATOM     36  H   UNL     1     -19.564  41.316   0.959  0.00  0.00    +0.155 HD
ATOM     37  N   UNL     1     -17.516  40.947  -0.503  0.00  0.00    -0.214 NA
BRANCH   4   3
ATOM      1  C   UNL     1     -16.538  37.116  -2.539  0.00  0.00    +0.020 A 
ATOM      2  C   UNL     1     -16.966  38.446  -2.170  0.00  0.00    +0.013 A 
ATOM      3  C   UNL     1     -16.006  39.430  -1.687  0.00  0.00    +0.019 A 
ATOM     38  C   UNL     1     -14.609  39.035  -1.590  0.00  0.00    +0.120 A 
ATOM     39  N   UNL     1     -14.226  37.747  -1.951  0.00  0.00    -0.263 NA
ATOM     40  C   UNL     1     -15.141  36.790  -2.416  0.00  0.00    +0.111 A 
ENDBRANCH   4   3
ENDBRANCH  10   9
BRANCH  12  13
ATOM     13  N   UNL     1     -22.290  45.971   0.300  0.00  0.00    -0.281 N 
ATOM     14  C   UNL     1     -22.395  46.306  -1.040  0.00  0.00    +0.248 C 
ATOM     30  O   UNL     1     -21.470  46.261  -1.838  0.00  0.00    -0.270 OA
ATOM     31  H   UNL     1     -23.077  46.238   0.891  0.00  0.00    +0.155 HD
BRANCH  14  15
ATOM     15  C   UNL     1     -23.714  46.773  -1.567  0.00  0.00    +0.037 A 
ATOM     16  C   UNL     1     -23.795  47.768  -2.639  0.00  0.00    +0.013 A 
ATOM     17  C   UNL     1     -25.080  48.213  -3.117  0.00  0.00    +0.005 A 
ATOM     18  C   UNL     1     -26.295  47.661  -2.523  0.00  0.00    -0.033 A 
ATOM     28  C   UNL     1     -26.186  46.671  -1.465  0.00  0.00    +0.005 A 
ATOM     29  C   UNL     1     -24.928  46.233  -0.993  0.00  0.00    +0.013 A 
BRANCH  18  19
ATOM     19  C   UNL     1     -27.708  48.094  -2.957  0.00  0.00    +0.119 C 
BRANCH  19  20
ATOM     20  N   UNL     1     -28.505  48.899  -1.984  0.00  0.00    -0.302 NA
ATOM     21  C   UNL     1     -29.537  48.046  -1.240  0.00  0.00    +0.066 C 
ATOM     22  C   UNL     1     -30.346  48.900  -0.210  0.00  0.00    -0.064 C 
ATOM     23  N   UNL     1     -31.026  50.061  -0.938  0.00  0.00    +0.379 N 
ATOM     24  C   UNL     1     -31.835  50.832   0.018  0.00  0.00    -0.096 C 
ATOM     25  H   UNL     1     -31.720  49.626  -1.694  0.00  0.00    -0.082 HD
ATOM     26  C   UNL     1     -30.008  50.913  -1.682  0.00  0.00    -0.064 C 
ATOM     27  C   UNL     1     -29.189  50.049  -2.681  0.00  0.00    +0.066 C 
ENDBRANCH  19  20
ENDBRANCH  18  19
ENDBRANCH  14  15
ENDBRANCH  12  13
TORSDOF 6
ENDMDL
MODEL 3
REMARK VINA RESULT:      -7.4     34.558     38.931
REMARK  Name = C:\Users\Docking\Desktop\test protocol\1iep_ligandH.pdb
REMARK  8 active torsions:
REMARK  status: ('A' for Active; 'I' for Inactive)
REMARK    1  A    between atoms: _5  and  _11
REMARK    2  A    between atoms: _19  and  _21
REMARK    3  A    between atoms: _22  and  _66
REMARK    4  A    between atoms: _27  and  _30
REMARK    5  A    between atoms: _32  and  _33
REMARK    6  A    between atoms: _38  and  _43
REMARK    7  A    between atoms: _43  and  _46
REMARK    8  A    between atoms: _53  and  _55
REMARK                            x       y       z     vdW  Elec       q    Type
REMARK                         _______ _______ _______ _____ _____    ______ ____
ROOT
ATOM     10  C   UNL     1      -0.936  30.123 -19.177  0.00  0.00    +0.038 A 
ATOM     11  C   UNL     1      -0.205  30.532 -18.033  0.00  0.00    +0.047 A 
ATOM     12  C   UNL     1      -0.692  31.597 -17.170  0.00  0.00    +0.035 A 
ATOM     32  C   UNL     1      -1.930  32.222 -17.501  0.00  0.00    +0.024 A 
ATOM     33  C   UNL     1      -2.685  31.819 -18.661  0.00  0.00    +0.007 A 
ATOM     34  C   UNL     1      -2.209  30.771 -19.517  0.00  0.00    -0.029 A 
ATOM     35  C   UNL     1      -3.057  30.386 -20.752  0.00  0.00    +0.045 C 
ENDROOT
BRANCH  10   9
ATOM      4  C   UNL     1       1.864  28.516 -22.729  0.00  0.00    +0.077 A 
ATOM      5  C   UNL     1       2.320  29.838 -23.048  0.00  0.00    +0.048 A 
ATOM      6  C   UNL     1       1.804  30.905 -22.278  0.00  0.00    +0.116 A 
ATOM      7  N   UNL     1       0.901  30.657 -21.268  0.00  0.00    -0.223 NA
ATOM      8  C   UNL     1       0.480  29.369 -20.988  0.00  0.00    +0.220 A 
ATOM      9  N   UNL     1      -0.422  29.096 -19.971  0.00  0.00    -0.283 N 
ATOM     36  H   UNL     1      -0.713  28.133 -19.801  0.00  0.00    +0.155 HD
ATOM     37  N   UNL     1       0.957  28.333 -21.709  0.00  0.00    -0.214 NA
BRANCH   4   3
ATOM      1  C   UNL     1       2.201  25.638 -25.356  0.00  0.00    +0.020 A 
ATOM      2  C   UNL     1       1.724  26.833 -24.701  0.00  0.00    +0.013 A 
ATOM      3  C   UNL     1       2.319  27.285 -23.449  0.00  0.00    +0.019 A 
ATOM     38  C   UNL     1       3.405  26.498 -22.884  0.00  0.00    +0.120 A 
ATOM     39  N   UNL     1       3.843  25.350 -23.537  0.00  0.00    -0.263 NA
ATOM     40  C   UNL     1       3.277  24.905 -24.741  0.00  0.00    +0.111 A 
ENDBRANCH   4   3
ENDBRANCH  10   9
BRANCH  12  13
ATOM     13  N   UNL     1       0.010  32.060 -15.999  0.00  0.00    -0.281 N 
ATOM     14  C   UNL     1       0.907  33.112 -15.904  0.00  0.00    +0.248 C 
ATOM     30  O   UNL     1       1.406  33.683 -16.862  0.00  0.00    -0.270 OA
ATOM     31  H   UNL     1      -0.176  31.550 -15.135  0.00  0.00    +0.155 HD
BRANCH  14  15
ATOM     15  C   UNL     1       1.320  33.589 -14.549  0.00  0.00    +0.037 A 
ATOM     16  C   UNL     1       0.606  33.162 -13.343  0.00  0.00    +0.013 A 
ATOM     17  C   UNL     1       1.014  33.650 -12.050  0.00  0.00    +0.005 A 
ATOM     18  C   UNL     1       2.145  34.571 -11.956  0.00  0.00    -0.033 A 
ATOM     28  C   UNL     1       2.838  34.974 -13.169  0.00  0.00    +0.005 A 
ATOM     29  C   UNL     1       2.440  34.498 -14.438  0.00  0.00    +0.013 A 
BRANCH  18  19
ATOM     19  C   UNL     1       2.636  35.159 -10.621  0.00  0.00    +0.119 C 
BRANCH  19  20
ATOM     20  N   UNL     1       2.212  34.462  -9.370  0.00  0.00    -0.302 NA
ATOM     21  C   UNL     1       1.221  35.298  -8.554  0.00  0.00    +0.066 C 
ATOM     22  C   UNL     1       0.771  34.545  -7.261  0.00  0.00    -0.064 C 
ATOM     23  N   UNL     1       2.002  34.195  -6.423  0.00  0.00    +0.379 N 
ATOM     24  C   UNL     1       1.577  33.538  -5.178  0.00  0.00    -0.096 C 
ATOM     25  H   UNL     1       2.505  35.151  -6.147  0.00  0.00    -0.082 HD
ATOM     26  C   UNL     1       2.994  33.366  -7.227  0.00  0.00    -0.064 C 
ATOM     27  C   UNL     1       3.412  34.111  -8.525  0.00  0.00    +0.066 C 
ENDBRANCH  19  20
ENDBRANCH  18  19
ENDBRANCH  14  15
ENDBRANCH  12  13
TORSDOF 6
ENDMDL
MODEL 4
REMARK VINA RESULT:      -7.3     41.704     44.105
REMARK  Name = C:\Users\Docking\Desktop\test protocol\1iep_ligandH.pdb
REMARK  8 active torsions:
REMARK  status: ('A' for Active; 'I' for Inactive)
REMARK    1  A    between atoms: _5  and  _11
REMARK    2  A    between atoms: _19  and  _21
REMARK    3  A    between atoms: _22  and  _66
REMARK    4  A    between atoms: _27  and  _30
REMARK    5  A    between atoms: _32  and  _33
REMARK    6  A    between atoms: _38  and  _43
REMARK    7  A    between atoms: _43  and  _46
REMARK    8  A    between atoms: _53  and  _55
REMARK                            x       y       z     vdW  Elec       q    Type
REMARK                         _______ _______ _______ _____ _____    ______ ____
ROOT
ATOM     10  C   UNL     1      -0.018  21.176 -27.591  0.00  0.00    +0.038 A 
ATOM     11  C   UNL     1      -0.764  20.550 -26.560  0.00  0.00    +0.047 A 
ATOM     12  C   UNL     1      -2.128  20.098 -26.785  0.00  0.00    +0.035 A 
ATOM     32  C   UNL     1      -2.702  20.299 -28.074  0.00  0.00    +0.024 A 
ATOM     33  C   UNL     1      -1.959  20.935 -29.133  0.00  0.00    +0.007 A 
ATOM     34  C   UNL     1      -0.614  21.385 -28.916  0.00  0.00    -0.029 A 
ATOM     35  C   UNL     1       0.133  22.067 -30.086  0.00  0.00    +0.045 C 
ENDROOT
BRANCH  10   9
ATOM      4  C   UNL     1       3.138  24.212 -25.626  0.00  0.00    +0.077 A 
ATOM      5  C   UNL     1       2.097  25.060 -25.120  0.00  0.00    +0.048 A 
ATOM      6  C   UNL     1       0.763  24.683 -25.394  0.00  0.00    +0.116 A 
ATOM      7  N   UNL     1       0.501  23.542 -26.119  0.00  0.00    -0.223 NA
ATOM      8  C   UNL     1       1.528  22.747 -26.594  0.00  0.00    +0.220 A 
ATOM      9  N   UNL     1       1.288  21.590 -27.319  0.00  0.00    -0.283 N 
ATOM     36  H   UNL     1       2.073  21.035 -27.658  0.00  0.00    +0.155 HD
ATOM     37  N   UNL     1       2.811  23.086 -26.347  0.00  0.00    -0.214 NA
BRANCH   4   3
ATOM      1  C   UNL     1       6.817  25.444 -26.119  0.00  0.00    +0.020 A 
ATOM      2  C   UNL     1       5.412  25.218 -26.369  0.00  0.00    +0.013 A 
ATOM      3  C   UNL     1       4.597  24.475 -25.417  0.00  0.00    +0.019 A 
ATOM     38  C   UNL     1       5.238  23.971 -24.212  0.00  0.00    +0.120 A 
ATOM     39  N   UNL     1       6.593  24.203 -23.999  0.00  0.00    -0.263 NA
ATOM     40  C   UNL     1       7.389  24.915 -24.909  0.00  0.00    +0.111 A 
ENDBRANCH   4   3
ENDBRANCH  10   9
BRANCH  12  13
ATOM     13  N   UNL     1      -2.936  19.463 -25.774  0.00  0.00    -0.281 N 
ATOM     14  C   UNL     1      -4.079  19.954 -25.164  0.00  0.00    +0.248 C 
ATOM     30  O   UNL     1      -4.461  21.112 -25.243  0.00  0.00    -0.270 OA
ATOM     31  H   UNL     1      -2.628  18.538 -25.471  0.00  0.00    +0.155 HD
BRANCH  14  15
ATOM     15  C   UNL     1      -4.910  19.028 -24.335  0.00  0.00    +0.037 A 
ATOM     16  C   UNL     1      -5.667  17.933 -24.947  0.00  0.00    +0.013 A 
ATOM     17  C   UNL     1      -6.474  17.065 -24.126  0.00  0.00    +0.005 A 
ATOM     18  C   UNL     1      -6.526  17.288 -22.683  0.00  0.00    -0.033 A 
ATOM     28  C   UNL     1      -5.761  18.379 -22.102  0.00  0.00    +0.005 A 
ATOM     29  C   UNL     1      -4.970  19.232 -22.903  0.00  0.00    +0.013 A 
BRANCH  18  19
ATOM     19  C   UNL     1      -7.377  16.425 -21.734  0.00  0.00    +0.119 C 
BRANCH  19  20
ATOM     20  N   UNL     1      -6.675  15.771 -20.590  0.00  0.00    -0.302 NA
ATOM     21  C   UNL     1      -5.871  14.546 -21.034  0.00  0.00    +0.066 C 
ATOM     22  C   UNL     1      -5.124  13.887 -19.829  0.00  0.00    -0.064 C 
ATOM     23  N   UNL     1      -6.139  13.506 -18.750  0.00  0.00    +0.379 N 
ATOM     24  C   UNL     1      -5.447  12.834 -17.640  0.00  0.00    -0.096 C 
ATOM     25  H   UNL     1      -6.850  12.774 -19.198  0.00  0.00    -0.082 HD
ATOM     26  C   UNL     1      -6.945  14.718 -18.304  0.00  0.00    -0.064 C 
ATOM     27  C   UNL     1      -7.659  15.383 -19.514  0.00  0.00    +0.066 C 
ENDBRANCH  19  20
ENDBRANCH  18  19
ENDBRANCH  14  15
ENDBRANCH  12  13
TORSDOF 6
ENDMDL
MODEL 5
REMARK VINA RESULT:      -7.2     35.768     40.685
REMARK  Name = C:\Users\Docking\Desktop\test protocol\1iep_ligandH.pdb
REMARK  8 active torsions:
REMARK  status: ('A' for Active; 'I' for Inactive)
REMARK    1  A    between atoms: _5  and  _11
REMARK    2  A    between atoms: _19  and  _21
REMARK    3  A    between atoms: _22  and  _66
REMARK    4  A    between atoms: _27  and  _30
REMARK    5  A    between atoms: _32  and  _33
REMARK    6  A    between atoms: _38  and  _43
REMARK    7  A    between atoms: _43  and  _46
REMARK    8  A    between atoms: _53  and  _55
REMARK                            x       y       z     vdW  Elec       q    Type
REMARK                         _______ _______ _______ _____ _____    ______ ____
ROOT
ATOM     10  C   UNL     1       6.418  28.639 -14.185  0.00  0.00    +0.038 A 
ATOM     11  C   UNL     1       5.081  28.847 -14.608  0.00  0.00    +0.047 A 
ATOM     12  C   UNL     1       4.785  29.473 -15.888  0.00  0.00    +0.035 A 
ATOM     32  C   UNL     1       5.877  29.871 -16.713  0.00  0.00    +0.024 A 
ATOM     33  C   UNL     1       7.243  29.667 -16.298  0.00  0.00    +0.007 A 
ATOM     34  C   UNL     1       7.540  29.053 -15.035  0.00  0.00    -0.029 A 
ATOM     35  C   UNL     1       9.023  28.866 -14.639  0.00  0.00    +0.045 C 
ENDROOT
BRANCH  10   9
ATOM      4  C   UNL     1       6.951  28.822  -9.418  0.00  0.00    +0.077 A 
ATOM      5  C   UNL     1       6.793  30.248  -9.396  0.00  0.00    +0.048 A 
ATOM      6  C   UNL     1       6.583  30.897 -10.634  0.00  0.00    +0.116 A 
ATOM      7  N   UNL     1       6.537  30.164 -11.800  0.00  0.00    -0.223 NA
ATOM      8  C   UNL     1       6.695  28.791 -11.786  0.00  0.00    +0.220 A 
ATOM      9  N   UNL     1       6.644  28.033 -12.946  0.00  0.00    -0.283 N 
ATOM     36  H   UNL     1       6.773  27.023 -12.895  0.00  0.00    +0.155 HD
ATOM     37  N   UNL     1       6.898  28.148 -10.618  0.00  0.00    -0.214 NA
BRANCH   4   3
ATOM      1  C   UNL     1       7.949  25.897  -7.021  0.00  0.00    +0.020 A 
ATOM      2  C   UNL     1       7.752  26.655  -8.235  0.00  0.00    +0.013 A 
ATOM      3  C   UNL     1       7.176  27.993  -8.192  0.00  0.00    +0.019 A 
ATOM     38  C   UNL     1       6.809  28.540  -6.894  0.00  0.00    +0.120 A 
ATOM     39  N   UNL     1       7.009  27.786  -5.742  0.00  0.00    -0.263 NA
ATOM     40  C   UNL     1       7.560  26.496  -5.772  0.00  0.00    +0.111 A 
ENDBRANCH   4   3
ENDBRANCH  10   9
BRANCH  12  13
ATOM     13  N   UNL     1       3.448  29.718 -16.367  0.00  0.00    -0.281 N 
ATOM     14  C   UNL     1       2.697  30.876 -16.242  0.00  0.00    +0.248 C 
ATOM     30  O   UNL     1       2.984  31.810 -15.509  0.00  0.00    -0.270 OA
ATOM     31  H   UNL     1       3.000  28.944 -16.858  0.00  0.00    +0.155 HD
BRANCH  14  15
ATOM     15  C   UNL     1       1.438  31.009 -17.037  0.00  0.00    +0.037 A 
ATOM     16  C   UNL     1       0.989  29.941 -17.934  0.00  0.00    +0.013 A 
ATOM     17  C   UNL     1      -0.220  30.103 -18.702  0.00  0.00    +0.005 A 
ATOM     18  C   UNL     1      -0.990  31.337 -18.573  0.00  0.00    -0.033 A 
ATOM     28  C   UNL     1      -0.525  32.378 -17.671  0.00  0.00    +0.005 A 
ATOM     29  C   UNL     1       0.660  32.224 -16.918  0.00  0.00    +0.013 A 
BRANCH  18  19
ATOM     19  C   UNL     1      -2.282  31.604 -19.370  0.00  0.00    +0.119 C 
BRANCH  19  20
ATOM     20  N   UNL     1      -2.574  30.699 -20.521  0.00  0.00    -0.302 NA
ATOM     21  C   UNL     1      -2.141  31.309 -21.856  0.00  0.00    +0.066 C 
ATOM     22  C   UNL     1      -2.434  30.340 -23.047  0.00  0.00    -0.064 C 
ATOM     23  N   UNL     1      -3.925  29.996 -23.067  0.00  0.00    +0.379 N 
ATOM     24  C   UNL     1      -4.214  29.131 -24.220  0.00  0.00    -0.096 C 
ATOM     25  H   UNL     1      -4.489  30.948 -23.208  0.00  0.00    -0.082 HD
ATOM     26  C   UNL     1      -4.365  29.391 -21.741  0.00  0.00    -0.064 C 
ATOM     27  C   UNL     1      -4.042  30.351 -20.562  0.00  0.00    +0.066 C 
ENDBRANCH  19  20
ENDBRANCH  18  19
ENDBRANCH  14  15
ENDBRANCH  12  13
TORSDOF 6
ENDMDL
