MODEL 1
REMARK VINA RESULT:      -9.1      0.000      0.000
REMARK  Name = C:\Users\Docking\Desktop\test protocol\1iep_ligandH.pdb
REMARK  8 active torsions:
REMARK  status: ('A' for Active; 'I' for Inactive)
REMARK    1  A    between atoms: _5  and  _11
REMARK    2  A    between atoms: _19  and  _21
REMARK    3  A    between atoms: _22  and  _66
REMARK    4  A    between atoms: _27  and  _30
REMARK    5  A    between atoms: _32  and  _33
REMARK    6  A    between atoms: _38  and  _43
REMARK    7  A    between atoms: _43  and  _46
REMARK    8  A    between atoms: _53  and  _55
REMARK                            x       y       z     vdW  Elec       q    Type
REMARK                         _______ _______ _______ _____ _____    ______ ____
ROOT
ATOM     10  C   UNL     1     -44.569 -55.885 -11.290  0.00  0.00    +0.038 A 
ATOM     11  C   UNL     1     -43.557 -56.799 -10.900  0.00  0.00    +0.047 A 
ATOM     12  C   UNL     1     -43.631 -58.205 -11.266  0.00  0.00    +0.035 A 
ATOM     32  C   UNL     1     -44.749 -58.646 -12.032  0.00  0.00    +0.024 A 
ATOM     33  C   UNL     1     -45.787 -57.730 -12.436  0.00  0.00    +0.007 A 
ATOM     34  C   UNL     1     -45.721 -56.343 -12.076  0.00  0.00    -0.029 A 
ATOM     35  C   UNL     1     -46.865 -55.408 -12.532  0.00  0.00    +0.045 C 
ENDROOT
BRANCH  10   9
ATOM      4  C   UNL     1     -42.944 -51.422 -11.982  0.00  0.00    +0.077 A 
ATOM      5  C   UNL     1     -42.257 -51.795 -13.185  0.00  0.00    +0.048 A 
ATOM      6  C   UNL     1     -42.342 -53.147 -13.588  0.00  0.00    +0.116 A 
ATOM      7  N   UNL     1     -43.062 -54.050 -12.836  0.00  0.00    -0.223 NA
ATOM      8  C   UNL     1     -43.710 -53.657 -11.679  0.00  0.00    +0.220 A 
ATOM      9  N   UNL     1     -44.447 -54.546 -10.912  0.00  0.00    -0.283 N 
ATOM     36  H   UNL     1     -44.904 -54.219 -10.061  0.00  0.00    +0.155 HD
ATOM     37  N   UNL     1     -43.644 -52.372 -11.273  0.00  0.00    -0.214 NA
BRANCH   4   3
ATOM      1  C   UNL     1     -41.810 -47.879 -10.774  0.00  0.00    +0.020 A 
ATOM      2  C   UNL     1     -41.748 -49.217 -11.316  0.00  0.00    +0.013 A 
ATOM      3  C   UNL     1     -42.951 -50.031 -11.428  0.00  0.00    +0.019 A 
ATOM     38  C   UNL     1     -44.212 -49.457 -10.981  0.00  0.00    +0.120 A 
ATOM     39  N   UNL     1     -44.241 -48.166 -10.463  0.00  0.00    -0.263 NA
ATOM     40  C   UNL     1     -43.089 -47.374 -10.348  0.00  0.00    +0.111 A 
ENDBRANCH   4   3
ENDBRANCH  10   9
BRANCH  12  13
ATOM     13  N   UNL     1     -42.638 -59.181 -10.891  0.00  0.00    -0.281 N 
ATOM     14  C   UNL     1     -42.302 -59.608  -9.617  0.00  0.00    +0.248 C 
ATOM     30  O   UNL     1     -42.658 -59.056  -8.587  0.00  0.00    -0.270 OA
ATOM     31  H   UNL     1     -42.121 -59.610 -11.659  0.00  0.00    +0.155 HD
BRANCH  14  15
ATOM     15  C   UNL     1     -41.432 -60.814  -9.465  0.00  0.00    +0.037 A 
ATOM     16  C   UNL     1     -41.033 -61.302  -8.143  0.00  0.00    +0.013 A 
ATOM     17  C   UNL     1     -40.180 -62.458  -8.025  0.00  0.00    +0.005 A 
ATOM     18  C   UNL     1     -39.721 -63.135  -9.236  0.00  0.00    -0.033 A 
ATOM     28  C   UNL     1     -40.136 -62.633 -10.535  0.00  0.00    +0.005 A 
ATOM     29  C   UNL     1     -40.971 -61.499 -10.654  0.00  0.00    +0.013 A 
BRANCH  18  19
ATOM     19  C   UNL     1     -38.791 -64.362  -9.206  0.00  0.00    +0.119 C 
BRANCH  19  20
ATOM     20  N   UNL     1     -37.328 -64.116  -9.376  0.00  0.00    -0.302 NA
ATOM     21  C   UNL     1     -36.852 -64.437 -10.795  0.00  0.00    +0.066 C 
ATOM     22  C   UNL     1     -35.323 -64.152 -10.961  0.00  0.00    -0.064 C 
ATOM     23  N   UNL     1     -34.541 -64.967  -9.931  0.00  0.00    +0.379 N 
ATOM     24  C   UNL     1     -33.100 -64.747 -10.122  0.00  0.00    -0.096 C 
ATOM     25  H   UNL     1     -34.747 -66.046 -10.126  0.00  0.00    -0.082 HD
ATOM     26  C   UNL     1     -35.009 -64.657  -8.516  0.00  0.00    -0.064 C 
ATOM     27  C   UNL     1     -36.535 -64.915  -8.370  0.00  0.00    +0.066 C 
ENDBRANCH  19  20
ENDBRANCH  18  19
ENDBRANCH  14  15
ENDBRANCH  12  13
TORSDOF 6
ENDMDL
MODEL 2
REMARK VINA RESULT:      -8.7      1.780      1.986
REMARK  Name = C:\Users\Docking\Desktop\test protocol\1iep_ligandH.pdb
REMARK  8 active torsions:
REMARK  status: ('A' for Active; 'I' for Inactive)
REMARK    1  A    between atoms: _5  and  _11
REMARK    2  A    between atoms: _19  and  _21
REMARK    3  A    between atoms: _22  and  _66
REMARK    4  A    between atoms: _27  and  _30
REMARK    5  A    between atoms: _32  and  _33
REMARK    6  A    between atoms: _38  and  _43
REMARK    7  A    between atoms: _43  and  _46
REMARK    8  A    between atoms: _53  and  _55
REMARK                            x       y       z     vdW  Elec       q    Type
REMARK                         _______ _______ _______ _____ _____    ______ ____
ROOT
ATOM     10  C   UNL     1     -44.902 -55.360  -8.938  0.00  0.00    +0.038 A 
ATOM     11  C   UNL     1     -44.008 -56.461  -8.968  0.00  0.00    +0.047 A 
ATOM     12  C   UNL     1     -44.499 -57.829  -9.019  0.00  0.00    +0.035 A 
ATOM     32  C   UNL     1     -45.909 -58.039  -9.042  0.00  0.00    +0.024 A 
ATOM     33  C   UNL     1     -46.832 -56.933  -9.011  0.00  0.00    +0.007 A 
ATOM     34  C   UNL     1     -46.353 -55.581  -8.958  0.00  0.00    -0.029 A 
ATOM     35  C   UNL     1     -47.389 -54.433  -8.921  0.00  0.00    +0.045 C 
ENDROOT
BRANCH  10   9
ATOM      4  C   UNL     1     -43.405 -51.317 -11.048  0.00  0.00    +0.077 A 
ATOM      5  C   UNL     1     -43.670 -51.833 -12.360  0.00  0.00    +0.048 A 
ATOM      6  C   UNL     1     -44.184 -53.146 -12.449  0.00  0.00    +0.116 A 
ATOM      7  N   UNL     1     -44.413 -53.879 -11.304  0.00  0.00    -0.223 NA
ATOM      8  C   UNL     1     -44.145 -53.352 -10.054  0.00  0.00    +0.220 A 
ATOM      9  N   UNL     1     -44.375 -54.068  -8.890  0.00  0.00    -0.283 N 
ATOM     36  H   UNL     1     -44.157 -53.646  -7.987  0.00  0.00    +0.155 HD
ATOM     37  N   UNL     1     -43.652 -52.101  -9.943  0.00  0.00    -0.214 NA
BRANCH   4   3
ATOM      1  C   UNL     1     -41.650 -47.850 -11.500  0.00  0.00    +0.020 A 
ATOM      2  C   UNL     1     -42.153 -49.171 -11.800  0.00  0.00    +0.013 A 
ATOM      3  C   UNL     1     -42.863 -49.945 -10.790  0.00  0.00    +0.019 A 
ATOM     38  C   UNL     1     -43.050 -49.349  -9.476  0.00  0.00    +0.120 A 
ATOM     39  N   UNL     1     -42.553 -48.076  -9.215  0.00  0.00    -0.263 NA
ATOM     40  C   UNL     1     -41.867 -47.322 -10.179  0.00  0.00    +0.111 A 
ENDBRANCH   4   3
ENDBRANCH  10   9
BRANCH  12  13
ATOM     13  N   UNL     1     -43.639 -58.986  -9.043  0.00  0.00    -0.281 N 
ATOM     14  C   UNL     1     -42.885 -59.465 -10.101  0.00  0.00    +0.248 C 
ATOM     30  O   UNL     1     -43.002 -59.090 -11.258  0.00  0.00    -0.270 OA
ATOM     31  H   UNL     1     -43.580 -59.516  -8.173  0.00  0.00    +0.155 HD
BRANCH  14  15
ATOM     15  C   UNL     1     -41.863 -60.523  -9.839  0.00  0.00    +0.037 A 
ATOM     16  C   UNL     1     -41.276 -60.699  -8.508  0.00  0.00    +0.013 A 
ATOM     17  C   UNL     1     -40.279 -61.717  -8.286  0.00  0.00    +0.005 A 
ATOM     18  C   UNL     1     -39.864 -62.568  -9.399  0.00  0.00    -0.033 A 
ATOM     28  C   UNL     1     -40.467 -62.375 -10.707  0.00  0.00    +0.005 A 
ATOM     29  C   UNL     1     -41.443 -61.378 -10.929  0.00  0.00    +0.013 A 
BRANCH  18  19
ATOM     19  C   UNL     1     -38.792 -63.665  -9.258  0.00  0.00    +0.119 C 
BRANCH  19  20
ATOM     20  N   UNL     1     -37.773 -63.767 -10.345  0.00  0.00    -0.302 NA
ATOM     21  C   UNL     1     -38.053 -64.942 -11.286  0.00  0.00    +0.066 C 
ATOM     22  C   UNL     1     -36.990 -65.021 -12.430  0.00  0.00    -0.064 C 
ATOM     23  N   UNL     1     -35.593 -65.140 -11.817  0.00  0.00    +0.379 N 
ATOM     24  C   UNL     1     -34.597 -65.273 -12.889  0.00  0.00    -0.096 C 
ATOM     25  H   UNL     1     -35.568 -66.077 -11.213  0.00  0.00    -0.082 HD
ATOM     26  C   UNL     1     -35.308 -63.977 -10.877  0.00  0.00    -0.064 C 
ATOM     27  C   UNL     1     -36.386 -63.890  -9.762  0.00  0.00    +0.066 C 
ENDBRANCH  19  20
ENDBRANCH  18  19
ENDBRANCH  14  15
ENDBRANCH  12  13
TORSDOF 6
ENDMDL
MODEL 3
REMARK VINA RESULT:      -8.6      7.713     10.533
REMARK  Name = C:\Users\Docking\Desktop\test protocol\1iep_ligandH.pdb
REMARK  8 active torsions:
REMARK  status: ('A' for Active; 'I' for Inactive)
REMARK    1  A    between atoms: _5  and  _11
REMARK    2  A    between atoms: _19  and  _21
REMARK    3  A    between atoms: _22  and  _66
REMARK    4  A    between atoms: _27  and  _30
REMARK    5  A    between atoms: _32  and  _33
REMARK    6  A    between atoms: _38  and  _43
REMARK    7  A    between atoms: _43  and  _46
REMARK    8  A    between atoms: _53  and  _55
REMARK                            x       y       z     vdW  Elec       q    Type
REMARK                         _______ _______ _______ _____ _____    ______ ____
ROOT
ATOM     10  C   UNL     1     -41.681 -47.740 -11.107  0.00  0.00    +0.038 A 
ATOM     11  C   UNL     1     -42.127 -49.016 -11.536  0.00  0.00    +0.047 A 
ATOM     12  C   UNL     1     -41.302 -49.852 -12.394  0.00  0.00    +0.035 A 
ATOM     32  C   UNL     1     -40.027 -49.356 -12.796  0.00  0.00    +0.024 A 
ATOM     33  C   UNL     1     -39.559 -48.061 -12.370  0.00  0.00    +0.007 A 
ATOM     34  C   UNL     1     -40.369 -47.231 -11.525  0.00  0.00    -0.029 A 
ATOM     35  C   UNL     1     -39.820 -45.848 -11.105  0.00  0.00    +0.045 C 
ENDROOT
BRANCH  10   9
ATOM      4  C   UNL     1     -44.111 -47.050  -7.025  0.00  0.00    +0.077 A 
ATOM      5  C   UNL     1     -43.708 -48.323  -6.501  0.00  0.00    +0.048 A 
ATOM      6  C   UNL     1     -42.881 -49.128  -7.316  0.00  0.00    +0.116 A 
ATOM      7  N   UNL     1     -42.492 -48.683  -8.561  0.00  0.00    -0.223 NA
ATOM      8  C   UNL     1     -42.900 -47.451  -9.037  0.00  0.00    +0.220 A 
ATOM      9  N   UNL     1     -42.515 -46.980 -10.283  0.00  0.00    -0.283 N 
ATOM     36  H   UNL     1     -42.843 -46.068 -10.601  0.00  0.00    +0.155 HD
ATOM     37  N   UNL     1     -43.691 -46.663  -8.279  0.00  0.00    -0.214 NA
BRANCH   4   3
ATOM      1  C   UNL     1     -46.091 -43.837  -5.997  0.00  0.00    +0.020 A 
ATOM      2  C   UNL     1     -45.242 -44.729  -6.752  0.00  0.00    +0.013 A 
ATOM      3  C   UNL     1     -44.981 -46.084  -6.282  0.00  0.00    +0.019 A 
ATOM     38  C   UNL     1     -45.599 -46.508  -5.035  0.00  0.00    +0.120 A 
ATOM     39  N   UNL     1     -46.410 -45.626  -4.328  0.00  0.00    -0.263 NA
ATOM     40  C   UNL     1     -46.667 -44.319  -4.770  0.00  0.00    +0.111 A 
ENDBRANCH   4   3
ENDBRANCH  10   9
BRANCH  12  13
ATOM     13  N   UNL     1     -41.704 -51.153 -12.868  0.00  0.00    -0.281 N 
ATOM     14  C   UNL     1     -42.582 -52.042 -12.270  0.00  0.00    +0.248 C 
ATOM     30  O   UNL     1     -42.992 -51.943 -11.124  0.00  0.00    -0.270 OA
ATOM     31  H   UNL     1     -41.292 -51.454 -13.751  0.00  0.00    +0.155 HD
BRANCH  14  15
ATOM     15  C   UNL     1     -43.061 -53.221 -13.055  0.00  0.00    +0.037 A 
ATOM     16  C   UNL     1     -42.216 -53.850 -14.073  0.00  0.00    +0.013 A 
ATOM     17  C   UNL     1     -42.710 -54.975 -14.828  0.00  0.00    +0.005 A 
ATOM     18  C   UNL     1     -44.056 -55.478 -14.566  0.00  0.00    -0.033 A 
ATOM     28  C   UNL     1     -44.871 -54.838 -13.546  0.00  0.00    +0.005 A 
ATOM     29  C   UNL     1     -44.391 -53.735 -12.805  0.00  0.00    +0.013 A 
BRANCH  18  19
ATOM     19  C   UNL     1     -44.672 -56.660 -15.337  0.00  0.00    +0.119 C 
BRANCH  19  20
ATOM     20  N   UNL     1     -45.751 -56.346 -16.322  0.00  0.00    -0.302 NA
ATOM     21  C   UNL     1     -46.640 -57.560 -16.606  0.00  0.00    +0.066 C 
ATOM     22  C   UNL     1     -47.776 -57.207 -17.620  0.00  0.00    -0.064 C 
ATOM     23  N   UNL     1     -47.155 -56.677 -18.913  0.00  0.00    +0.379 N 
ATOM     24  C   UNL     1     -48.218 -56.399 -19.890  0.00  0.00    -0.096 C 
ATOM     25  H   UNL     1     -46.511 -57.483 -19.334  0.00  0.00    -0.082 HD
ATOM     26  C   UNL     1     -46.267 -55.471 -18.640  0.00  0.00    -0.064 C 
ATOM     27  C   UNL     1     -45.159 -55.824 -17.608  0.00  0.00    +0.066 C 
ENDBRANCH  19  20
ENDBRANCH  18  19
ENDBRANCH  14  15
ENDBRANCH  12  13
TORSDOF 6
ENDMDL
MODEL 4
REMARK VINA RESULT:      -8.6      2.377      3.206
REMARK  Name = C:\Users\Docking\Desktop\test protocol\1iep_ligandH.pdb
REMARK  8 active torsions:
REMARK  status: ('A' for Active; 'I' for Inactive)
REMARK    1  A    between atoms: _5  and  _11
REMARK    2  A    between atoms: _19  and  _21
REMARK    3  A    between atoms: _22  and  _66
REMARK    4  A    between atoms: _27  and  _30
REMARK    5  A    between atoms: _32  and  _33
REMARK    6  A    between atoms: _38  and  _43
REMARK    7  A    between atoms: _43  and  _46
REMARK    8  A    between atoms: _53  and  _55
REMARK                            x       y       z     vdW  Elec       q    Type
REMARK                         _______ _______ _______ _____ _____    ______ ____
ROOT
ATOM     10  C   UNL     1     -44.932 -54.761  -8.945  0.00  0.00    +0.038 A 
ATOM     11  C   UNL     1     -44.069 -55.883  -9.043  0.00  0.00    +0.047 A 
ATOM     12  C   UNL     1     -44.598 -57.237  -9.098  0.00  0.00    +0.035 A 
ATOM     32  C   UNL     1     -46.012 -57.412  -9.053  0.00  0.00    +0.024 A 
ATOM     33  C   UNL     1     -46.903 -56.283  -8.953  0.00  0.00    +0.007 A 
ATOM     34  C   UNL     1     -46.387 -54.945  -8.896  0.00  0.00    -0.029 A 
ATOM     35  C   UNL     1     -47.389 -53.773  -8.782  0.00  0.00    +0.045 C 
ENDROOT
BRANCH  10   9
ATOM      4  C   UNL     1     -43.186 -50.821 -11.057  0.00  0.00    +0.077 A 
ATOM      5  C   UNL     1     -43.387 -51.364 -12.370  0.00  0.00    +0.048 A 
ATOM      6  C   UNL     1     -43.934 -52.663 -12.458  0.00  0.00    +0.116 A 
ATOM      7  N   UNL     1     -44.255 -53.358 -11.312  0.00  0.00    -0.223 NA
ATOM      8  C   UNL     1     -44.047 -52.806 -10.061  0.00  0.00    +0.220 A 
ATOM      9  N   UNL     1     -44.369 -53.484  -8.896  0.00  0.00    -0.283 N 
ATOM     36  H   UNL     1     -44.194 -53.045  -7.992  0.00  0.00    +0.155 HD
ATOM     37  N   UNL     1     -43.524 -51.567  -9.951  0.00  0.00    -0.214 NA
BRANCH   4   3
ATOM      1  C   UNL     1     -41.277 -47.432 -11.475  0.00  0.00    +0.020 A 
ATOM      2  C   UNL     1     -41.799 -48.746 -11.772  0.00  0.00    +0.013 A 
ATOM      3  C   UNL     1     -42.619 -49.459 -10.801  0.00  0.00    +0.019 A 
ATOM     38  C   UNL     1     -42.895 -48.809  -9.528  0.00  0.00    +0.120 A 
ATOM     39  N   UNL     1     -42.377 -47.544  -9.269  0.00  0.00    -0.263 NA
ATOM     40  C   UNL     1     -41.585 -46.849 -10.195  0.00  0.00    +0.111 A 
ENDBRANCH   4   3
ENDBRANCH  10   9
BRANCH  12  13
ATOM     13  N   UNL     1     -43.771 -58.414  -9.189  0.00  0.00    -0.281 N 
ATOM     14  C   UNL     1     -43.152 -58.935 -10.314  0.00  0.00    +0.248 C 
ATOM     30  O   UNL     1     -43.392 -58.584 -11.459  0.00  0.00    -0.270 OA
ATOM     31  H   UNL     1     -43.624 -58.926  -8.319  0.00  0.00    +0.155 HD
BRANCH  14  15
ATOM     15  C   UNL     1     -42.129 -60.011 -10.142  0.00  0.00    +0.037 A 
ATOM     16  C   UNL     1     -41.701 -60.840 -11.271  0.00  0.00    +0.013 A 
ATOM     17  C   UNL     1     -40.725 -61.883 -11.075  0.00  0.00    +0.005 A 
ATOM     18  C   UNL     1     -40.169 -62.101  -9.741  0.00  0.00    -0.033 A 
ATOM     28  C   UNL     1     -40.608 -61.260  -8.639  0.00  0.00    +0.005 A 
ATOM     29  C   UNL     1     -41.565 -60.238  -8.828  0.00  0.00    +0.013 A 
BRANCH  18  19
ATOM     19  C   UNL     1     -39.139 -63.204  -9.435  0.00  0.00    +0.119 C 
BRANCH  19  20
ATOM     20  N   UNL     1     -39.553 -64.616  -9.689  0.00  0.00    -0.302 NA
ATOM     21  C   UNL     1     -41.011 -64.867  -9.294  0.00  0.00    +0.066 C 
ATOM     22  C   UNL     1     -41.434 -66.343  -9.587  0.00  0.00    -0.064 C 
ATOM     23  N   UNL     1     -40.499 -67.297  -8.842  0.00  0.00    +0.379 N 
ATOM     24  C   UNL     1     -40.929 -68.684  -9.069  0.00  0.00    -0.096 C 
ATOM     25  H   UNL     1     -40.599 -67.085  -7.752  0.00  0.00    -0.082 HD
ATOM     26  C   UNL     1     -39.047 -67.052  -9.227  0.00  0.00    -0.064 C 
ATOM     27  C   UNL     1     -38.645 -65.575  -8.959  0.00  0.00    +0.066 C 
ENDBRANCH  19  20
ENDBRANCH  18  19
ENDBRANCH  14  15
ENDBRANCH  12  13
TORSDOF 6
ENDMDL
MODEL 5
REMARK VINA RESULT:      -8.5      2.617     12.889
REMARK  Name = C:\Users\Docking\Desktop\test protocol\1iep_ligandH.pdb
REMARK  8 active torsions:
REMARK  status: ('A' for Active; 'I' for Inactive)
REMARK    1  A    between atoms: _5  and  _11
REMARK    2  A    between atoms: _19  and  _21
REMARK    3  A    between atoms: _22  and  _66
REMARK    4  A    between atoms: _27  and  _30
REMARK    5  A    between atoms: _32  and  _33
REMARK    6  A    between atoms: _38  and  _43
REMARK    7  A    between atoms: _43  and  _46
REMARK    8  A    between atoms: _53  and  _55
REMARK                            x       y       z     vdW  Elec       q    Type
REMARK                         _______ _______ _______ _____ _____    ______ ____
ROOT
ATOM     10  C   UNL     1     -43.082 -57.387 -13.617  0.00  0.00    +0.038 A 
ATOM     11  C   UNL     1     -42.860 -56.159 -12.945  0.00  0.00    +0.047 A 
ATOM     12  C   UNL     1     -43.727 -55.012 -13.167  0.00  0.00    +0.035 A 
ATOM     32  C   UNL     1     -44.812 -55.152 -14.080  0.00  0.00    +0.024 A 
ATOM     33  C   UNL     1     -45.052 -56.394 -14.773  0.00  0.00    +0.007 A 
ATOM     34  C   UNL     1     -44.199 -57.528 -14.560  0.00  0.00    -0.029 A 
ATOM     35  C   UNL     1     -44.499 -58.831 -15.335  0.00  0.00    +0.045 C 
ENDROOT
BRANCH  10   9
ATOM      4  C   UNL     1     -41.383 -60.884 -10.802  0.00  0.00    +0.077 A 
ATOM      5  C   UNL     1     -42.272 -60.535  -9.731  0.00  0.00    +0.048 A 
ATOM      6  C   UNL     1     -43.146 -59.444  -9.943  0.00  0.00    +0.116 A 
ATOM      7  N   UNL     1     -43.124 -58.762 -11.140  0.00  0.00    -0.223 NA
ATOM      8  C   UNL     1     -42.253 -59.124 -12.151  0.00  0.00    +0.220 A 
ATOM      9  N   UNL     1     -42.219 -58.456 -13.366  0.00  0.00    -0.283 N 
ATOM     36  H   UNL     1     -41.557 -58.749 -14.084  0.00  0.00    +0.155 HD
ATOM     37  N   UNL     1     -41.408 -60.160 -11.973  0.00  0.00    -0.214 NA
BRANCH   4   3
ATOM      1  C   UNL     1     -38.736 -63.454  -9.503  0.00  0.00    +0.020 A 
ATOM      2  C   UNL     1     -39.671 -62.353  -9.518  0.00  0.00    +0.013 A 
ATOM      3  C   UNL     1     -40.403 -62.014 -10.732  0.00  0.00    +0.019 A 
ATOM     38  C   UNL     1     -40.165 -62.816 -11.922  0.00  0.00    +0.120 A 
ATOM     39  N   UNL     1     -39.258 -63.869 -11.879  0.00  0.00    -0.263 NA
ATOM     40  C   UNL     1     -38.546 -64.204 -10.717  0.00  0.00    +0.111 A 
ENDBRANCH   4   3
ENDBRANCH  10   9
BRANCH  12  13
ATOM     13  N   UNL     1     -43.546 -53.736 -12.519  0.00  0.00    -0.281 N 
ATOM     14  C   UNL     1     -42.706 -52.701 -12.896  0.00  0.00    +0.248 C 
ATOM     30  O   UNL     1     -41.820 -52.799 -13.732  0.00  0.00    -0.270 OA
ATOM     31  H   UNL     1     -44.105 -53.578 -11.681  0.00  0.00    +0.155 HD
BRANCH  14  15
ATOM     15  C   UNL     1     -42.863 -51.368 -12.238  0.00  0.00    +0.037 A 
ATOM     16  C   UNL     1     -41.763 -50.401 -12.207  0.00  0.00    +0.013 A 
ATOM     17  C   UNL     1     -41.936 -49.129 -11.552  0.00  0.00    +0.005 A 
ATOM     18  C   UNL     1     -43.217 -48.816 -10.923  0.00  0.00    -0.033 A 
ATOM     28  C   UNL     1     -44.293 -49.792 -10.973  0.00  0.00    +0.005 A 
ATOM     29  C   UNL     1     -44.127 -51.040 -11.613  0.00  0.00    +0.013 A 
BRANCH  18  19
ATOM     19  C   UNL     1     -43.484 -47.492 -10.183  0.00  0.00    +0.119 C 
BRANCH  19  20
ATOM     20  N   UNL     1     -42.296 -46.734  -9.688  0.00  0.00    -0.302 NA
ATOM     21  C   UNL     1     -42.598 -45.975  -8.392  0.00  0.00    +0.066 C 
ATOM     22  C   UNL     1     -41.338 -45.206  -7.877  0.00  0.00    -0.064 C 
ATOM     23  N   UNL     1     -40.848 -44.248  -8.964  0.00  0.00    +0.379 N 
ATOM     24  C   UNL     1     -39.699 -43.482  -8.461  0.00  0.00    -0.096 C 
ATOM     25  H   UNL     1     -41.671 -43.526  -9.173  0.00  0.00    -0.082 HD
ATOM     26  C   UNL     1     -40.549 -44.994 -10.256  0.00  0.00    -0.064 C 
ATOM     27  C   UNL     1     -41.798 -45.779 -10.744  0.00  0.00    +0.066 C 
ENDBRANCH  19  20
ENDBRANCH  18  19
ENDBRANCH  14  15
ENDBRANCH  12  13
TORSDOF 6
ENDMDL
