MODEL 1
REMARK VINA RESULT:      -9.5      0.000      0.000
REMARK  Name = C:\Users\Docking\Desktop\test protocol\1iep_ligandH.pdb
REMARK  8 active torsions:
REMARK  status: ('A' for Active; 'I' for Inactive)
REMARK    1  A    between atoms: _5  and  _11
REMARK    2  A    between atoms: _19  and  _21
REMARK    3  A    between atoms: _22  and  _66
REMARK    4  A    between atoms: _27  and  _30
REMARK    5  A    between atoms: _32  and  _33
REMARK    6  A    between atoms: _38  and  _43
REMARK    7  A    between atoms: _43  and  _46
REMARK    8  A    between atoms: _53  and  _55
REMARK                            x       y       z     vdW  Elec       q    Type
REMARK                         _______ _______ _______ _____ _____    ______ ____
ROOT
ATOM     10  C   UNL     1      13.636  61.452  62.822  0.00  0.00    +0.038 A 
ATOM     11  C   UNL     1      14.447  60.982  61.757  0.00  0.00    +0.047 A 
ATOM     12  C   UNL     1      15.594  60.123  62.007  0.00  0.00    +0.035 A 
ATOM     32  C   UNL     1      15.885  59.760  63.354  0.00  0.00    +0.024 A 
ATOM     33  C   UNL     1      15.073  60.230  64.449  0.00  0.00    +0.007 A 
ATOM     34  C   UNL     1      13.941  61.079  64.209  0.00  0.00    -0.029 A 
ATOM     35  C   UNL     1      13.109  61.558  65.421  0.00  0.00    +0.045 C 
ENDROOT
BRANCH  10   9
ATOM      4  C   UNL     1      11.734  65.463  60.998  0.00  0.00    +0.077 A 
ATOM      5  C   UNL     1      13.022  65.977  60.629  0.00  0.00    +0.048 A 
ATOM      6  C   UNL     1      14.149  65.181  60.934  0.00  0.00    +0.116 A 
ATOM      7  N   UNL     1      13.988  63.964  61.559  0.00  0.00    -0.223 NA
ATOM      8  C   UNL     1      12.732  63.499  61.902  0.00  0.00    +0.220 A 
ATOM      9  N   UNL     1      12.547  62.274  62.525  0.00  0.00    -0.283 N 
ATOM     36  H   UNL     1      11.604  61.970  62.768  0.00  0.00    +0.155 HD
ATOM     37  N   UNL     1      11.640  64.241  61.624  0.00  0.00    -0.214 NA
BRANCH   4   3
ATOM      1  C   UNL     1       8.343  67.346  61.506  0.00  0.00    +0.020 A 
ATOM      2  C   UNL     1       9.574  66.653  61.809  0.00  0.00    +0.013 A 
ATOM      3  C   UNL     1      10.448  66.186  60.740  0.00  0.00    +0.019 A 
ATOM     38  C   UNL     1      10.045  66.438  59.365  0.00  0.00    +0.120 A 
ATOM     39  N   UNL     1       8.853  67.107  59.104  0.00  0.00    -0.263 NA
ATOM     40  C   UNL     1       8.003  67.560  60.124  0.00  0.00    +0.111 A 
ENDBRANCH   4   3
ENDBRANCH  10   9
BRANCH  12  13
ATOM     13  N   UNL     1      16.457  59.622  60.967  0.00  0.00    -0.281 N 
ATOM     14  C   UNL     1      17.837  59.719  60.885  0.00  0.00    +0.248 C 
ATOM     30  O   UNL     1      18.522  60.443  61.592  0.00  0.00    -0.270 OA
ATOM     31  H   UNL     1      15.996  59.136  60.198  0.00  0.00    +0.155 HD
BRANCH  14  15
ATOM     15  C   UNL     1      18.558  58.906  59.859  0.00  0.00    +0.037 A 
ATOM     16  C   UNL     1      19.710  59.447  59.132  0.00  0.00    +0.013 A 
ATOM     17  C   UNL     1      20.377  58.647  58.136  0.00  0.00    +0.005 A 
ATOM     18  C   UNL     1      19.895  57.296  57.862  0.00  0.00    -0.033 A 
ATOM     28  C   UNL     1      18.754  56.782  58.602  0.00  0.00    +0.005 A 
ATOM     29  C   UNL     1      18.097  57.563  59.578  0.00  0.00    +0.013 A 
BRANCH  18  19
ATOM     19  C   UNL     1      20.533  56.379  56.802  0.00  0.00    +0.119 C 
BRANCH  19  20
ATOM     20  N   UNL     1      20.124  56.590  55.381  0.00  0.00    -0.302 NA
ATOM     21  C   UNL     1      18.944  57.558  55.260  0.00  0.00    +0.066 C 
ATOM     22  C   UNL     1      18.544  57.785  53.766  0.00  0.00    -0.064 C 
ATOM     23  N   UNL     1      18.208  56.439  53.121  0.00  0.00    +0.379 N 
ATOM     24  C   UNL     1      17.776  56.655  51.732  0.00  0.00    -0.096 C 
ATOM     25  H   UNL     1      17.348  56.002  53.679  0.00  0.00    -0.082 HD
ATOM     26  C   UNL     1      19.375  55.469  53.239  0.00  0.00    -0.064 C 
ATOM     27  C   UNL     1      19.784  55.274  54.726  0.00  0.00    +0.066 C 
ENDBRANCH  19  20
ENDBRANCH  18  19
ENDBRANCH  14  15
ENDBRANCH  12  13
TORSDOF 6
ENDMDL
MODEL 2
REMARK VINA RESULT:      -9.4      6.134      8.532
REMARK  Name = C:\Users\Docking\Desktop\test protocol\1iep_ligandH.pdb
REMARK  8 active torsions:
REMARK  status: ('A' for Active; 'I' for Inactive)
REMARK    1  A    between atoms: _5  and  _11
REMARK    2  A    between atoms: _19  and  _21
REMARK    3  A    between atoms: _22  and  _66
REMARK    4  A    between atoms: _27  and  _30
REMARK    5  A    between atoms: _32  and  _33
REMARK    6  A    between atoms: _38  and  _43
REMARK    7  A    between atoms: _43  and  _46
REMARK    8  A    between atoms: _53  and  _55
REMARK                            x       y       z     vdW  Elec       q    Type
REMARK                         _______ _______ _______ _____ _____    ______ ____
ROOT
ATOM     10  C   UNL     1      15.148  61.065  62.119  0.00  0.00    +0.038 A 
ATOM     11  C   UNL     1      16.137  61.421  63.071  0.00  0.00    +0.047 A 
ATOM     12  C   UNL     1      17.494  60.904  62.976  0.00  0.00    +0.035 A 
ATOM     32  C   UNL     1      17.808  60.028  61.896  0.00  0.00    +0.024 A 
ATOM     33  C   UNL     1      16.815  59.655  60.920  0.00  0.00    +0.007 A 
ATOM     34  C   UNL     1      15.474  60.160  61.011  0.00  0.00    -0.029 A 
ATOM     35  C   UNL     1      14.448  59.722  59.940  0.00  0.00    +0.045 C 
ENDROOT
BRANCH  10   9
ATOM      4  C   UNL     1      11.958  64.624  61.672  0.00  0.00    +0.077 A 
ATOM      5  C   UNL     1      12.944  65.520  61.140  0.00  0.00    +0.048 A 
ATOM      6  C   UNL     1      14.262  65.028  61.004  0.00  0.00    +0.116 A 
ATOM      7  N   UNL     1      14.560  63.735  61.375  0.00  0.00    -0.223 NA
ATOM      8  C   UNL     1      13.586  62.898  61.887  0.00  0.00    +0.220 A 
ATOM      9  N   UNL     1      13.862  61.591  62.259  0.00  0.00    -0.283 N 
ATOM     36  H   UNL     1      13.117  61.007  62.639  0.00  0.00    +0.155 HD
ATOM     37  N   UNL     1      12.320  63.344  62.028  0.00  0.00    -0.214 NA
BRANCH   4   3
ATOM      1  C   UNL     1       8.166  64.491  62.620  0.00  0.00    +0.020 A 
ATOM      2  C   UNL     1       9.541  64.083  62.447  0.00  0.00    +0.013 A 
ATOM      3  C   UNL     1      10.522  64.995  61.873  0.00  0.00    +0.019 A 
ATOM     38  C   UNL     1      10.076  66.324  61.484  0.00  0.00    +0.120 A 
ATOM     39  N   UNL     1       8.745  66.689  61.661  0.00  0.00    -0.263 NA
ATOM     40  C   UNL     1       7.792  65.819  62.210  0.00  0.00    +0.111 A 
ENDBRANCH   4   3
ENDBRANCH  10   9
BRANCH  12  13
ATOM     13  N   UNL     1      18.538  61.223  63.917  0.00  0.00    -0.281 N 
ATOM     14  C   UNL     1      19.061  60.418  64.915  0.00  0.00    +0.248 C 
ATOM     30  O   UNL     1      18.558  59.369  65.291  0.00  0.00    -0.270 OA
ATOM     31  H   UNL     1      18.942  62.157  63.837  0.00  0.00    +0.155 HD
BRANCH  14  15
ATOM     15  C   UNL     1      20.314  60.846  65.607  0.00  0.00    +0.037 A 
ATOM     16  C   UNL     1      20.410  62.150  66.269  0.00  0.00    +0.013 A 
ATOM     17  C   UNL     1      21.637  62.546  66.914  0.00  0.00    +0.005 A 
ATOM     18  C   UNL     1      22.778  61.635  66.901  0.00  0.00    -0.033 A 
ATOM     28  C   UNL     1      22.655  60.345  66.242  0.00  0.00    +0.005 A 
ATOM     29  C   UNL     1      21.454  59.954  65.607  0.00  0.00    +0.013 A 
BRANCH  18  19
ATOM     19  C   UNL     1      24.133  61.983  67.546  0.00  0.00    +0.119 C 
BRANCH  19  20
ATOM     20  N   UNL     1      25.264  61.035  67.315  0.00  0.00    -0.302 NA
ATOM     21  C   UNL     1      25.629  60.256  68.582  0.00  0.00    +0.066 C 
ATOM     22  C   UNL     1      26.798  59.253  68.317  0.00  0.00    -0.064 C 
ATOM     23  N   UNL     1      28.011  60.018  67.783  0.00  0.00    +0.379 N 
ATOM     24  C   UNL     1      29.131  59.086  67.587  0.00  0.00    -0.096 C 
ATOM     25  H   UNL     1      28.315  60.754  68.562  0.00  0.00    -0.082 HD
ATOM     26  C   UNL     1      27.656  60.797  66.525  0.00  0.00    -0.064 C 
ATOM     27  C   UNL     1      26.474  61.770  66.792  0.00  0.00    +0.066 C 
ENDBRANCH  19  20
ENDBRANCH  18  19
ENDBRANCH  14  15
ENDBRANCH  12  13
TORSDOF 6
ENDMDL
MODEL 3
REMARK VINA RESULT:      -8.9      2.387     11.565
REMARK  Name = C:\Users\Docking\Desktop\test protocol\1iep_ligandH.pdb
REMARK  8 active torsions:
REMARK  status: ('A' for Active; 'I' for Inactive)
REMARK    1  A    between atoms: _5  and  _11
REMARK    2  A    between atoms: _19  and  _21
REMARK    3  A    between atoms: _22  and  _66
REMARK    4  A    between atoms: _27  and  _30
REMARK    5  A    between atoms: _32  and  _33
REMARK    6  A    between atoms: _38  and  _43
REMARK    7  A    between atoms: _43  and  _46
REMARK    8  A    between atoms: _53  and  _55
REMARK                            x       y       z     vdW  Elec       q    Type
REMARK                         _______ _______ _______ _____ _____    ______ ____
ROOT
ATOM     10  C   UNL     1      15.652  55.860  60.745  0.00  0.00    +0.038 A 
ATOM     11  C   UNL     1      15.053  57.104  61.070  0.00  0.00    +0.047 A 
ATOM     12  C   UNL     1      14.837  57.497  62.454  0.00  0.00    +0.035 A 
ATOM     32  C   UNL     1      15.246  56.599  63.483  0.00  0.00    +0.024 A 
ATOM     33  C   UNL     1      15.856  55.330  63.170  0.00  0.00    +0.007 A 
ATOM     34  C   UNL     1      16.069  54.936  61.807  0.00  0.00    -0.029 A 
ATOM     35  C   UNL     1      16.721  53.561  61.531  0.00  0.00    +0.045 C 
ENDROOT
BRANCH  10   9
ATOM      4  C   UNL     1      18.081  56.141  56.615  0.00  0.00    +0.077 A 
ATOM      5  C   UNL     1      19.051  57.035  57.178  0.00  0.00    +0.048 A 
ATOM      6  C   UNL     1      18.886  57.403  58.532  0.00  0.00    +0.116 A 
ATOM      7  N   UNL     1      17.825  56.908  59.259  0.00  0.00    -0.223 NA
ATOM      8  C   UNL     1      16.905  56.050  58.685  0.00  0.00    +0.220 A 
ATOM      9  N   UNL     1      15.835  55.534  59.400  0.00  0.00    -0.283 N 
ATOM     36  H   UNL     1      15.175  54.909  58.938  0.00  0.00    +0.155 HD
ATOM     37  N   UNL     1      17.041  55.684  57.393  0.00  0.00    -0.214 NA
BRANCH   4   3
ATOM      1  C   UNL     1      18.710  53.953  53.434  0.00  0.00    +0.020 A 
ATOM      2  C   UNL     1      18.696  54.374  54.816  0.00  0.00    +0.013 A 
ATOM      3  C   UNL     1      18.121  55.657  55.199  0.00  0.00    +0.019 A 
ATOM     38  C   UNL     1      17.564  56.499  54.150  0.00  0.00    +0.120 A 
ATOM     39  N   UNL     1      17.593  56.068  52.827  0.00  0.00    -0.263 NA
ATOM     40  C   UNL     1      18.145  54.835  52.447  0.00  0.00    +0.111 A 
ENDBRANCH   4   3
ENDBRANCH  10   9
BRANCH  12  13
ATOM     13  N   UNL     1      14.226  58.743  62.845  0.00  0.00    -0.281 N 
ATOM     14  C   UNL     1      14.706  60.027  62.642  0.00  0.00    +0.248 C 
ATOM     30  O   UNL     1      15.844  60.291  62.281  0.00  0.00    -0.270 OA
ATOM     31  H   UNL     1      13.332  58.670  63.329  0.00  0.00    +0.155 HD
BRANCH  14  15
ATOM     15  C   UNL     1      13.796  61.186  62.890  0.00  0.00    +0.037 A 
ATOM     16  C   UNL     1      12.901  61.214  64.050  0.00  0.00    +0.013 A 
ATOM     17  C   UNL     1      12.020  62.336  64.257  0.00  0.00    +0.005 A 
ATOM     18  C   UNL     1      12.031  63.441  63.301  0.00  0.00    -0.033 A 
ATOM     28  C   UNL     1      12.933  63.389  62.162  0.00  0.00    +0.005 A 
ATOM     29  C   UNL     1      13.797  62.291  61.955  0.00  0.00    +0.013 A 
BRANCH  18  19
ATOM     19  C   UNL     1      11.111  64.669  63.431  0.00  0.00    +0.119 C 
BRANCH  19  20
ATOM     20  N   UNL     1      10.234  64.993  62.266  0.00  0.00    -0.302 NA
ATOM     21  C   UNL     1      10.872  66.031  61.339  0.00  0.00    +0.066 C 
ATOM     22  C   UNL     1       9.952  66.342  60.113  0.00  0.00    -0.064 C 
ATOM     23  N   UNL     1       8.589  66.825  60.612  0.00  0.00    +0.379 N 
ATOM     24  C   UNL     1       7.741  67.173  59.463  0.00  0.00    -0.096 C 
ATOM     25  H   UNL     1       8.756  67.755  61.203  0.00  0.00    -0.082 HD
ATOM     26  C   UNL     1       7.949  65.799  61.537  0.00  0.00    -0.064 C 
ATOM     27  C   UNL     1       8.884  65.476  62.735  0.00  0.00    +0.066 C 
ENDBRANCH  19  20
ENDBRANCH  18  19
ENDBRANCH  14  15
ENDBRANCH  12  13
TORSDOF 6
ENDMDL
MODEL 4
REMARK VINA RESULT:      -8.6     23.510     30.065
REMARK  Name = C:\Users\Docking\Desktop\test protocol\1iep_ligandH.pdb
REMARK  8 active torsions:
REMARK  status: ('A' for Active; 'I' for Inactive)
REMARK    1  A    between atoms: _5  and  _11
REMARK    2  A    between atoms: _19  and  _21
REMARK    3  A    between atoms: _22  and  _66
REMARK    4  A    between atoms: _27  and  _30
REMARK    5  A    between atoms: _32  and  _33
REMARK    6  A    between atoms: _38  and  _43
REMARK    7  A    between atoms: _43  and  _46
REMARK    8  A    between atoms: _53  and  _55
REMARK                            x       y       z     vdW  Elec       q    Type
REMARK                         _______ _______ _______ _____ _____    ______ ____
ROOT
ATOM     10  C   UNL     1     -12.873  62.904  47.009  0.00  0.00    +0.038 A 
ATOM     11  C   UNL     1     -12.033  63.326  48.071  0.00  0.00    +0.047 A 
ATOM     12  C   UNL     1     -10.763  63.985  47.809  0.00  0.00    +0.035 A 
ATOM     32  C   UNL     1     -10.381  64.201  46.452  0.00  0.00    +0.024 A 
ATOM     33  C   UNL     1     -11.222  63.777  45.361  0.00  0.00    +0.007 A 
ATOM     34  C   UNL     1     -12.475  63.125  45.613  0.00  0.00    -0.029 A 
ATOM     35  C   UNL     1     -13.334  62.687  44.404  0.00  0.00    +0.045 C 
ENDROOT
BRANCH  10   9
ATOM      4  C   UNL     1     -17.491  63.021  48.313  0.00  0.00    +0.077 A 
ATOM      5  C   UNL     1     -17.488  64.452  48.413  0.00  0.00    +0.048 A 
ATOM      6  C   UNL     1     -16.276  65.120  48.127  0.00  0.00    +0.116 A 
ATOM      7  N   UNL     1     -15.157  64.400  47.769  0.00  0.00    -0.223 NA
ATOM      8  C   UNL     1     -15.193  63.020  47.684  0.00  0.00    +0.220 A 
ATOM      9  N   UNL     1     -14.082  62.277  47.318  0.00  0.00    -0.283 N 
ATOM     36  H   UNL     1     -14.148  61.260  47.274  0.00  0.00    +0.155 HD
ATOM     37  N   UNL     1     -16.338  62.359  47.953  0.00  0.00    -0.214 NA
BRANCH   4   3
ATOM      1  C   UNL     1     -19.945  59.983  48.524  0.00  0.00    +0.020 A 
ATOM      2  C   UNL     1     -18.758  60.756  48.244  0.00  0.00    +0.013 A 
ATOM      3  C   UNL     1     -18.696  62.173  48.580  0.00  0.00    +0.019 A 
ATOM     38  C   UNL     1     -19.861  62.781  49.204  0.00  0.00    +0.120 A 
ATOM     39  N   UNL     1     -20.991  62.011  49.460  0.00  0.00    -0.263 NA
ATOM     40  C   UNL     1     -21.063  60.648  49.140  0.00  0.00    +0.111 A 
ENDBRANCH   4   3
ENDBRANCH  10   9
BRANCH  12  13
ATOM     13  N   UNL     1      -9.864  64.428  48.846  0.00  0.00    -0.281 N 
ATOM     14  C   UNL     1      -8.950  63.672  49.561  0.00  0.00    +0.248 C 
ATOM     30  O   UNL     1      -8.918  62.450  49.566  0.00  0.00    -0.270 OA
ATOM     31  H   UNL     1      -9.907  65.420  49.081  0.00  0.00    +0.155 HD
BRANCH  14  15
ATOM     15  C   UNL     1      -7.935  64.373  50.404  0.00  0.00    +0.037 A 
ATOM     16  C   UNL     1      -8.192  65.709  50.950  0.00  0.00    +0.013 A 
ATOM     17  C   UNL     1      -7.189  66.370  51.746  0.00  0.00    +0.005 A 
ATOM     18  C   UNL     1      -5.919  65.695  52.003  0.00  0.00    -0.033 A 
ATOM     28  C   UNL     1      -5.692  64.369  51.454  0.00  0.00    +0.005 A 
ATOM     29  C   UNL     1      -6.673  63.718  50.673  0.00  0.00    +0.013 A 
BRANCH  18  19
ATOM     19  C   UNL     1      -4.784  66.335  52.824  0.00  0.00    +0.119 C 
BRANCH  19  20
ATOM     20  N   UNL     1      -4.978  67.744  53.278  0.00  0.00    -0.302 NA
ATOM     21  C   UNL     1      -4.366  68.752  52.301  0.00  0.00    +0.066 C 
ATOM     22  C   UNL     1      -4.597  70.222  52.779  0.00  0.00    -0.064 C 
ATOM     23  N   UNL     1      -4.008  70.398  54.180  0.00  0.00    +0.379 N 
ATOM     24  C   UNL     1      -4.172  71.795  54.609  0.00  0.00    -0.096 C 
ATOM     25  H   UNL     1      -2.914  70.191  54.114  0.00  0.00    -0.082 HD
ATOM     26  C   UNL     1      -4.609  69.398  55.157  0.00  0.00    -0.064 C 
ATOM     27  C   UNL     1      -4.399  67.942  54.657  0.00  0.00    +0.066 C 
ENDBRANCH  19  20
ENDBRANCH  18  19
ENDBRANCH  14  15
ENDBRANCH  12  13
TORSDOF 6
ENDMDL
MODEL 5
REMARK VINA RESULT:      -8.6      6.547      9.264
REMARK  Name = C:\Users\Docking\Desktop\test protocol\1iep_ligandH.pdb
REMARK  8 active torsions:
REMARK  status: ('A' for Active; 'I' for Inactive)
REMARK    1  A    between atoms: _5  and  _11
REMARK    2  A    between atoms: _19  and  _21
REMARK    3  A    between atoms: _22  and  _66
REMARK    4  A    between atoms: _27  and  _30
REMARK    5  A    between atoms: _32  and  _33
REMARK    6  A    between atoms: _38  and  _43
REMARK    7  A    between atoms: _43  and  _46
REMARK    8  A    between atoms: _53  and  _55
REMARK                            x       y       z     vdW  Elec       q    Type
REMARK                         _______ _______ _______ _____ _____    ______ ____
ROOT
ATOM     10  C   UNL     1      14.550  60.001  64.111  0.00  0.00    +0.038 A 
ATOM     11  C   UNL     1      15.746  60.437  64.736  0.00  0.00    +0.047 A 
ATOM     12  C   UNL     1      16.913  59.572  64.813  0.00  0.00    +0.035 A 
ATOM     32  C   UNL     1      16.828  58.270  64.240  0.00  0.00    +0.024 A 
ATOM     33  C   UNL     1      15.620  57.810  63.601  0.00  0.00    +0.007 A 
ATOM     34  C   UNL     1      14.464  58.658  63.525  0.00  0.00    -0.029 A 
ATOM     35  C   UNL     1      13.193  58.110  62.834  0.00  0.00    +0.045 C 
ENDROOT
BRANCH  10   9
ATOM      4  C   UNL     1      12.244  63.805  62.307  0.00  0.00    +0.077 A 
ATOM      5  C   UNL     1      13.314  64.096  61.396  0.00  0.00    +0.048 A 
ATOM      6  C   UNL     1      14.443  63.246  61.429  0.00  0.00    +0.116 A 
ATOM      7  N   UNL     1      14.487  62.188  62.310  0.00  0.00    -0.223 NA
ATOM      8  C   UNL     1      13.439  61.936  63.176  0.00  0.00    +0.220 A 
ATOM      9  N   UNL     1      13.460  60.873  64.065  0.00  0.00    -0.283 N 
ATOM     36  H   UNL     1      12.670  60.725  64.693  0.00  0.00    +0.155 HD
ATOM     37  N   UNL     1      12.351  62.733  63.166  0.00  0.00    -0.214 NA
BRANCH   4   3
ATOM      1  C   UNL     1       8.490  64.831  62.704  0.00  0.00    +0.020 A 
ATOM      2  C   UNL     1       9.677  64.010  62.633  0.00  0.00    +0.013 A 
ATOM      3  C   UNL     1      10.983  64.608  62.390  0.00  0.00    +0.019 A 
ATOM     38  C   UNL     1      11.056  66.052  62.224  0.00  0.00    +0.120 A 
ATOM     39  N   UNL     1       9.896  66.817  62.297  0.00  0.00    -0.263 NA
ATOM     40  C   UNL     1       8.633  66.252  62.528  0.00  0.00    +0.111 A 
ENDBRANCH   4   3
ENDBRANCH  10   9
BRANCH  12  13
ATOM     13  N   UNL     1      18.152  59.957  65.442  0.00  0.00    -0.281 N 
ATOM     14  C   UNL     1      19.394  60.120  64.850  0.00  0.00    +0.248 C 
ATOM     30  O   UNL     1      19.674  59.751  63.719  0.00  0.00    -0.270 OA
ATOM     31  H   UNL     1      18.109  60.130  66.447  0.00  0.00    +0.155 HD
BRANCH  14  15
ATOM     15  C   UNL     1      20.486  60.776  65.631  0.00  0.00    +0.037 A 
ATOM     16  C   UNL     1      21.738  60.073  65.924  0.00  0.00    +0.013 A 
ATOM     17  C   UNL     1      22.768  60.723  66.695  0.00  0.00    +0.005 A 
ATOM     18  C   UNL     1      22.552  62.085  67.176  0.00  0.00    -0.033 A 
ATOM     28  C   UNL     1      21.302  62.761  66.866  0.00  0.00    +0.005 A 
ATOM     29  C   UNL     1      20.290  62.127  66.112  0.00  0.00    +0.013 A 
BRANCH  18  19
ATOM     19  C   UNL     1      23.588  62.848  68.023  0.00  0.00    +0.119 C 
BRANCH  19  20
ATOM     20  N   UNL     1      24.662  62.043  68.677  0.00  0.00    -0.302 NA
ATOM     21  C   UNL     1      24.898  62.471  70.128  0.00  0.00    +0.066 C 
ATOM     22  C   UNL     1      26.009  61.604  70.804  0.00  0.00    -0.064 C 
ATOM     23  N   UNL     1      27.301  61.710  69.991  0.00  0.00    +0.379 N 
ATOM     24  C   UNL     1      28.364  60.942  70.656  0.00  0.00    -0.096 C 
ATOM     25  H   UNL     1      27.610  62.781  69.986  0.00  0.00    -0.082 HD
ATOM     26  C   UNL     1      27.074  61.288  68.546  0.00  0.00    -0.064 C 
ATOM     27  C   UNL     1      25.948  62.137  67.893  0.00  0.00    +0.066 C 
ENDBRANCH  19  20
ENDBRANCH  18  19
ENDBRANCH  14  15
ENDBRANCH  12  13
TORSDOF 6
ENDMDL
