MODEL 1
REMARK VINA RESULT:      -7.7      0.000      0.000
REMARK  Name = C:\Users\Docking\Desktop\test protocol\1iep_ligandH.pdb
REMARK  8 active torsions:
REMARK  status: ('A' for Active; 'I' for Inactive)
REMARK    1  A    between atoms: _5  and  _11
REMARK    2  A    between atoms: _19  and  _21
REMARK    3  A    between atoms: _22  and  _66
REMARK    4  A    between atoms: _27  and  _30
REMARK    5  A    between atoms: _32  and  _33
REMARK    6  A    between atoms: _38  and  _43
REMARK    7  A    between atoms: _43  and  _46
REMARK    8  A    between atoms: _53  and  _55
REMARK                            x       y       z     vdW  Elec       q    Type
REMARK                         _______ _______ _______ _____ _____    ______ ____
ROOT
ATOM     10  C   UNL     1      -9.568  -0.424  12.211  0.00  0.00    +0.038 A 
ATOM     11  C   UNL     1      -8.389  -0.418  12.999  0.00  0.00    +0.047 A 
ATOM     12  C   UNL     1      -8.442  -0.648  14.435  0.00  0.00    +0.035 A 
ATOM     32  C   UNL     1      -9.713  -0.884  15.035  0.00  0.00    +0.024 A 
ATOM     33  C   UNL     1     -10.922  -0.893  14.249  0.00  0.00    +0.007 A 
ATOM     34  C   UNL     1     -10.876  -0.664  12.833  0.00  0.00    -0.029 A 
ATOM     35  C   UNL     1     -12.205  -0.678  12.042  0.00  0.00    +0.045 C 
ENDROOT
BRANCH  10   9
ATOM      4  C   UNL     1      -9.845   2.422   8.356  0.00  0.00    +0.077 A 
ATOM      5  C   UNL     1     -10.269   3.545   9.142  0.00  0.00    +0.048 A 
ATOM      6  C   UNL     1     -10.410   3.346  10.534  0.00  0.00    +0.116 A 
ATOM      7  N   UNL     1     -10.144   2.113  11.088  0.00  0.00    -0.223 NA
ATOM      8  C   UNL     1      -9.740   1.050  10.301  0.00  0.00    +0.220 A 
ATOM      9  N   UNL     1      -9.460  -0.197  10.838  0.00  0.00    -0.283 N 
ATOM     36  H   UNL     1      -9.171  -0.958  10.223  0.00  0.00    +0.155 HD
ATOM     37  N   UNL     1      -9.599   1.213   8.969  0.00  0.00    -0.214 NA
BRANCH   4   3
ATOM      1  C   UNL     1      -8.239   2.871   4.818  0.00  0.00    +0.020 A 
ATOM      2  C   UNL     1      -8.378   2.836   6.256  0.00  0.00    +0.013 A 
ATOM      3  C   UNL     1      -9.647   2.474   6.873  0.00  0.00    +0.019 A 
ATOM     38  C   UNL     1     -10.766   2.151   6.001  0.00  0.00    +0.120 A 
ATOM     39  N   UNL     1     -10.603   2.195   4.619  0.00  0.00    -0.263 NA
ATOM     40  C   UNL     1      -9.387   2.543   4.014  0.00  0.00    +0.111 A 
ENDBRANCH   4   3
ENDBRANCH  10   9
BRANCH  12  13
ATOM     13  N   UNL     1      -7.279  -0.645  15.287  0.00  0.00    -0.281 N 
ATOM     14  C   UNL     1      -6.717  -1.715  15.965  0.00  0.00    +0.248 C 
ATOM     30  O   UNL     1      -7.258  -2.801  16.111  0.00  0.00    -0.270 OA
ATOM     31  H   UNL     1      -6.813   0.255  15.406  0.00  0.00    +0.155 HD
BRANCH  14  15
ATOM     15  C   UNL     1      -5.365  -1.550  16.580  0.00  0.00    +0.037 A 
ATOM     16  C   UNL     1      -4.276  -2.483  16.283  0.00  0.00    +0.013 A 
ATOM     17  C   UNL     1      -2.986  -2.311  16.904  0.00  0.00    +0.005 A 
ATOM     18  C   UNL     1      -2.779  -1.198  17.828  0.00  0.00    -0.033 A 
ATOM     28  C   UNL     1      -3.876  -0.285  18.102  0.00  0.00    +0.005 A 
ATOM     29  C   UNL     1      -5.142  -0.451  17.496  0.00  0.00    +0.013 A 
BRANCH  18  19
ATOM     19  C   UNL     1      -1.443  -0.951  18.553  0.00  0.00    +0.119 C 
BRANCH  19  20
ATOM     20  N   UNL     1      -0.271  -0.564  17.712  0.00  0.00    -0.302 NA
ATOM     21  C   UNL     1       0.997  -0.371  18.548  0.00  0.00    +0.066 C 
ATOM     22  C   UNL     1       2.219   0.011  17.650  0.00  0.00    -0.064 C 
ATOM     23  N   UNL     1       1.891   1.280  16.861  0.00  0.00    +0.379 N 
ATOM     24  C   UNL     1       3.059   1.674  16.059  0.00  0.00    -0.096 C 
ATOM     25  H   UNL     1       1.695   2.094  17.597  0.00  0.00    -0.082 HD
ATOM     26  C   UNL     1       0.630   1.097  16.028  0.00  0.00    -0.064 C 
ATOM     27  C   UNL     1      -0.571   0.689  16.927  0.00  0.00    +0.066 C 
ENDBRANCH  19  20
ENDBRANCH  18  19
ENDBRANCH  14  15
ENDBRANCH  12  13
TORSDOF 6
ENDMDL
MODEL 2
REMARK VINA RESULT:      -7.7      3.936      6.004
REMARK  Name = C:\Users\Docking\Desktop\test protocol\1iep_ligandH.pdb
REMARK  8 active torsions:
REMARK  status: ('A' for Active; 'I' for Inactive)
REMARK    1  A    between atoms: _5  and  _11
REMARK    2  A    between atoms: _19  and  _21
REMARK    3  A    between atoms: _22  and  _66
REMARK    4  A    between atoms: _27  and  _30
REMARK    5  A    between atoms: _32  and  _33
REMARK    6  A    between atoms: _38  and  _43
REMARK    7  A    between atoms: _43  and  _46
REMARK    8  A    between atoms: _53  and  _55
REMARK                            x       y       z     vdW  Elec       q    Type
REMARK                         _______ _______ _______ _____ _____    ______ ____
ROOT
ATOM     10  C   UNL     1      -7.041  -1.622  16.806  0.00  0.00    +0.038 A 
ATOM     11  C   UNL     1      -5.741  -1.212  16.415  0.00  0.00    +0.047 A 
ATOM     12  C   UNL     1      -4.707  -0.947  17.402  0.00  0.00    +0.035 A 
ATOM     32  C   UNL     1      -5.030  -1.112  18.780  0.00  0.00    +0.024 A 
ATOM     33  C   UNL     1      -6.347  -1.528  19.196  0.00  0.00    +0.007 A 
ATOM     34  C   UNL     1      -7.372  -1.788  18.226  0.00  0.00    -0.029 A 
ATOM     35  C   UNL     1      -8.768  -2.225  18.730  0.00  0.00    +0.045 C 
ENDROOT
BRANCH  10   9
ATOM      4  C   UNL     1     -10.684  -0.228  14.009  0.00  0.00    +0.077 A 
ATOM      5  C   UNL     1     -10.705   1.084  14.589  0.00  0.00    +0.048 A 
ATOM      6  C   UNL     1      -9.766   1.358  15.609  0.00  0.00    +0.116 A 
ATOM      7  N   UNL     1      -8.878   0.384  16.011  0.00  0.00    -0.223 NA
ATOM      8  C   UNL     1      -8.886  -0.872  15.432  0.00  0.00    +0.220 A 
ATOM      9  N   UNL     1      -7.996  -1.864  15.816  0.00  0.00    -0.283 N 
ATOM     36  H   UNL     1      -8.039  -2.779  15.369  0.00  0.00    +0.155 HD
ATOM     37  N   UNL     1      -9.773  -1.158  14.457  0.00  0.00    -0.214 NA
BRANCH   4   3
ATOM      1  C   UNL     1     -13.898  -0.861  11.872  0.00  0.00    +0.020 A 
ATOM      2  C   UNL     1     -13.047  -0.415  12.950  0.00  0.00    +0.013 A 
ATOM      3  C   UNL     1     -11.612  -0.667  12.919  0.00  0.00    +0.019 A 
ATOM     38  C   UNL     1     -11.065  -1.378  11.773  0.00  0.00    +0.120 A 
ATOM     39  N   UNL     1     -11.910  -1.796  10.749  0.00  0.00    -0.263 NA
ATOM     40  C   UNL     1     -13.293  -1.561  10.769  0.00  0.00    +0.111 A 
ENDBRANCH   4   3
ENDBRANCH  10   9
BRANCH  12  13
ATOM     13  N   UNL     1      -3.372  -0.520  17.065  0.00  0.00    -0.281 N 
ATOM     14  C   UNL     1      -2.225  -1.293  16.985  0.00  0.00    +0.248 C 
ATOM     30  O   UNL     1      -2.133  -2.438  17.402  0.00  0.00    -0.270 OA
ATOM     31  H   UNL     1      -3.258   0.473  16.860  0.00  0.00    +0.155 HD
BRANCH  14  15
ATOM     15  C   UNL     1      -0.999  -0.704  16.365  0.00  0.00    +0.037 A 
ATOM     16  C   UNL     1      -0.736   0.736  16.421  0.00  0.00    +0.013 A 
ATOM     17  C   UNL     1       0.446   1.280  15.800  0.00  0.00    +0.005 A 
ATOM     18  C   UNL     1       1.375   0.382  15.118  0.00  0.00    -0.033 A 
ATOM     28  C   UNL     1       1.092  -1.043  15.082  0.00  0.00    +0.005 A 
ATOM     29  C   UNL     1      -0.066  -1.580  15.689  0.00  0.00    +0.013 A 
BRANCH  18  19
ATOM     19  C   UNL     1       2.649   0.878  14.410  0.00  0.00    +0.119 C 
BRANCH  19  20
ATOM     20  N   UNL     1       3.667   1.580  15.247  0.00  0.00    -0.302 NA
ATOM     21  C   UNL     1       4.773   2.213  14.397  0.00  0.00    +0.066 C 
ATOM     22  C   UNL     1       5.817   2.963  15.287  0.00  0.00    -0.064 C 
ATOM     23  N   UNL     1       6.408   1.987  16.306  0.00  0.00    +0.379 N 
ATOM     24  C   UNL     1       7.432   2.675  17.106  0.00  0.00    -0.096 C 
ATOM     25  H   UNL     1       6.914   1.171  15.738  0.00  0.00    -0.082 HD
ATOM     26  C   UNL     1       5.316   1.352  17.154  0.00  0.00    -0.064 C 
ATOM     27  C   UNL     1       4.268   0.634  16.258  0.00  0.00    +0.066 C 
ENDBRANCH  19  20
ENDBRANCH  18  19
ENDBRANCH  14  15
ENDBRANCH  12  13
TORSDOF 6
ENDMDL
MODEL 3
REMARK VINA RESULT:      -7.6      2.302     11.646
REMARK  Name = C:\Users\Docking\Desktop\test protocol\1iep_ligandH.pdb
REMARK  8 active torsions:
REMARK  status: ('A' for Active; 'I' for Inactive)
REMARK    1  A    between atoms: _5  and  _11
REMARK    2  A    between atoms: _19  and  _21
REMARK    3  A    between atoms: _22  and  _66
REMARK    4  A    between atoms: _27  and  _30
REMARK    5  A    between atoms: _32  and  _33
REMARK    6  A    between atoms: _38  and  _43
REMARK    7  A    between atoms: _43  and  _46
REMARK    8  A    between atoms: _53  and  _55
REMARK                            x       y       z     vdW  Elec       q    Type
REMARK                         _______ _______ _______ _____ _____    ______ ____
ROOT
ATOM     10  C   UNL     1      -3.576  -0.902  17.216  0.00  0.00    +0.038 A 
ATOM     11  C   UNL     1      -4.636  -0.816  16.277  0.00  0.00    +0.047 A 
ATOM     12  C   UNL     1      -5.853  -1.596  16.444  0.00  0.00    +0.035 A 
ATOM     32  C   UNL     1      -5.958  -2.450  17.580  0.00  0.00    +0.024 A 
ATOM     33  C   UNL     1      -4.890  -2.550  18.543  0.00  0.00    +0.007 A 
ATOM     34  C   UNL     1      -3.686  -1.786  18.383  0.00  0.00    -0.029 A 
ATOM     35  C   UNL     1      -2.571  -1.937  19.444  0.00  0.00    +0.045 C 
ENDROOT
BRANCH  10   9
ATOM      4  C   UNL     1       0.868  -0.303  15.503  0.00  0.00    +0.077 A 
ATOM      5  C   UNL     1       0.921  -1.648  15.006  0.00  0.00    +0.048 A 
ATOM      6  C   UNL     1      -0.214  -2.463  15.217  0.00  0.00    +0.116 A 
ATOM      7  N   UNL     1      -1.313  -1.961  15.878  0.00  0.00    -0.223 NA
ATOM      8  C   UNL     1      -1.331  -0.660  16.347  0.00  0.00    +0.220 A 
ATOM      9  N   UNL     1      -2.430  -0.131  17.007  0.00  0.00    -0.283 N 
ATOM     36  H   UNL     1      -2.401   0.831  17.344  0.00  0.00    +0.155 HD
ATOM     37  N   UNL     1      -0.260   0.139  16.159  0.00  0.00    -0.214 NA
BRANCH   4   3
ATOM      1  C   UNL     1       3.463   2.535  16.219  0.00  0.00    +0.020 A 
ATOM      2  C   UNL     1       2.376   1.604  16.413  0.00  0.00    +0.013 A 
ATOM      3  C   UNL     1       1.986   0.681  15.354  0.00  0.00    +0.019 A 
ATOM     38  C   UNL     1       2.723   0.727  14.101  0.00  0.00    +0.120 A 
ATOM     39  N   UNL     1       3.765   1.635  13.941  0.00  0.00    -0.263 NA
ATOM     40  C   UNL     1       4.148   2.528  14.953  0.00  0.00    +0.111 A 
ENDBRANCH   4   3
ENDBRANCH  10   9
BRANCH  12  13
ATOM     13  N   UNL     1      -6.958  -1.556  15.519  0.00  0.00    -0.281 N 
ATOM     14  C   UNL     1      -8.082  -0.748  15.570  0.00  0.00    +0.248 C 
ATOM     30  O   UNL     1      -8.412  -0.082  16.540  0.00  0.00    -0.270 OA
ATOM     31  H   UNL     1      -6.906  -2.202  14.732  0.00  0.00    +0.155 HD
BRANCH  14  15
ATOM     15  C   UNL     1      -8.978  -0.681  14.375  0.00  0.00    +0.037 A 
ATOM     16  C   UNL     1     -10.428  -0.847  14.502  0.00  0.00    +0.013 A 
ATOM     17  C   UNL     1     -11.268  -0.794  13.332  0.00  0.00    +0.005 A 
ATOM     18  C   UNL     1     -10.658  -0.574  12.022  0.00  0.00    -0.033 A 
ATOM     28  C   UNL     1      -9.217  -0.408  11.926  0.00  0.00    +0.005 A 
ATOM     29  C   UNL     1      -8.391  -0.459  13.071  0.00  0.00    +0.013 A 
BRANCH  18  19
ATOM     19  C   UNL     1     -11.474  -0.525  10.717  0.00  0.00    +0.119 C 
BRANCH  19  20
ATOM     20  N   UNL     1     -11.866   0.822  10.206  0.00  0.00    -0.302 NA
ATOM     21  C   UNL     1     -10.806   1.412   9.271  0.00  0.00    +0.066 C 
ATOM     22  C   UNL     1     -11.243   2.812   8.728  0.00  0.00    -0.064 C 
ATOM     23  N   UNL     1     -11.510   3.752   9.904  0.00  0.00    +0.379 N 
ATOM     24  C   UNL     1     -11.865   5.085   9.396  0.00  0.00    -0.096 C 
ATOM     25  H   UNL     1     -10.561   3.850  10.481  0.00  0.00    -0.082 HD
ATOM     26  C   UNL     1     -12.561   3.171  10.841  0.00  0.00    -0.064 C 
ATOM     27  C   UNL     1     -12.131   1.768  11.351  0.00  0.00    +0.066 C 
ENDBRANCH  19  20
ENDBRANCH  18  19
ENDBRANCH  14  15
ENDBRANCH  12  13
TORSDOF 6
ENDMDL
MODEL 4
REMARK VINA RESULT:      -7.5      2.152      2.638
REMARK  Name = C:\Users\Docking\Desktop\test protocol\1iep_ligandH.pdb
REMARK  8 active torsions:
REMARK  status: ('A' for Active; 'I' for Inactive)
REMARK    1  A    between atoms: _5  and  _11
REMARK    2  A    between atoms: _19  and  _21
REMARK    3  A    between atoms: _22  and  _66
REMARK    4  A    between atoms: _27  and  _30
REMARK    5  A    between atoms: _32  and  _33
REMARK    6  A    between atoms: _38  and  _43
REMARK    7  A    between atoms: _43  and  _46
REMARK    8  A    between atoms: _53  and  _55
REMARK                            x       y       z     vdW  Elec       q    Type
REMARK                         _______ _______ _______ _____ _____    ______ ____
ROOT
ATOM     10  C   UNL     1     -10.211   0.937  11.708  0.00  0.00    +0.038 A 
ATOM     11  C   UNL     1      -9.013   0.712  12.433  0.00  0.00    +0.047 A 
ATOM     12  C   UNL     1      -8.922  -0.347  13.426  0.00  0.00    +0.035 A 
ATOM     32  C   UNL     1     -10.071  -1.160  13.653  0.00  0.00    +0.024 A 
ATOM     33  C   UNL     1     -11.297  -0.945  12.926  0.00  0.00    +0.007 A 
ATOM     34  C   UNL     1     -11.393   0.100  11.947  0.00  0.00    -0.029 A 
ATOM     35  C   UNL     1     -12.735   0.290  11.202  0.00  0.00    +0.045 C 
ENDROOT
BRANCH  10   9
ATOM      4  C   UNL     1      -8.491   3.180   7.829  0.00  0.00    +0.077 A 
ATOM      5  C   UNL     1      -7.424   2.234   7.682  0.00  0.00    +0.048 A 
ATOM      6  C   UNL     1      -7.348   1.188   8.629  0.00  0.00    +0.116 A 
ATOM      7  N   UNL     1      -8.277   1.106   9.644  0.00  0.00    -0.223 NA
ATOM      8  C   UNL     1      -9.293   2.036   9.758  0.00  0.00    +0.220 A 
ATOM      9  N   UNL     1     -10.243   1.968  10.766  0.00  0.00    -0.283 N 
ATOM     36  H   UNL     1     -10.972   2.678  10.820  0.00  0.00    +0.155 HD
ATOM     37  N   UNL     1      -9.386   3.045   8.867  0.00  0.00    -0.214 NA
BRANCH   4   3
ATOM      1  C   UNL     1      -8.038   5.803   4.962  0.00  0.00    +0.020 A 
ATOM      2  C   UNL     1      -7.784   4.674   5.827  0.00  0.00    +0.013 A 
ATOM      3  C   UNL     1      -8.706   4.339   6.905  0.00  0.00    +0.019 A 
ATOM     38  C   UNL     1      -9.886   5.172   7.082  0.00  0.00    +0.120 A 
ATOM     39  N   UNL     1     -10.104   6.254   6.234  0.00  0.00    -0.263 NA
ATOM     40  C   UNL     1      -9.222   6.588   5.195  0.00  0.00    +0.111 A 
ENDBRANCH   4   3
ENDBRANCH  10   9
BRANCH  12  13
ATOM     13  N   UNL     1      -7.735  -0.618  14.198  0.00  0.00    -0.281 N 
ATOM     14  C   UNL     1      -7.617  -0.705  15.575  0.00  0.00    +0.248 C 
ATOM     30  O   UNL     1      -8.478  -0.350  16.367  0.00  0.00    -0.270 OA
ATOM     31  H   UNL     1      -6.878  -0.763  13.664  0.00  0.00    +0.155 HD
BRANCH  14  15
ATOM     15  C   UNL     1      -6.354  -1.252  16.159  0.00  0.00    +0.037 A 
ATOM     16  C   UNL     1      -6.004  -2.668  16.019  0.00  0.00    +0.013 A 
ATOM     17  C   UNL     1      -4.788  -3.173  16.606  0.00  0.00    +0.005 A 
ATOM     18  C   UNL     1      -3.912  -2.260  17.337  0.00  0.00    -0.033 A 
ATOM     28  C   UNL     1      -4.282  -0.859  17.455  0.00  0.00    +0.005 A 
ATOM     29  C   UNL     1      -5.473  -0.361  16.883  0.00  0.00    +0.013 A 
BRANCH  18  19
ATOM     19  C   UNL     1      -2.606  -2.716  18.013  0.00  0.00    +0.119 C 
BRANCH  19  20
ATOM     20  N   UNL     1      -1.323  -2.288  17.381  0.00  0.00    -0.302 NA
ATOM     21  C   UNL     1      -1.296  -2.582  15.879  0.00  0.00    +0.066 C 
ATOM     22  C   UNL     1       0.044  -2.106  15.229  0.00  0.00    -0.064 C 
ATOM     23  N   UNL     1       1.219  -2.786  15.935  0.00  0.00    +0.379 N 
ATOM     24  C   UNL     1       2.478  -2.386  15.289  0.00  0.00    -0.096 C 
ATOM     25  H   UNL     1       1.104  -3.887  15.799  0.00  0.00    -0.082 HD
ATOM     26  C   UNL     1       1.199  -2.501  17.430  0.00  0.00    -0.064 C 
ATOM     27  C   UNL     1      -0.149  -2.951  18.060  0.00  0.00    +0.066 C 
ENDBRANCH  19  20
ENDBRANCH  18  19
ENDBRANCH  14  15
ENDBRANCH  12  13
TORSDOF 6
ENDMDL
MODEL 5
REMARK VINA RESULT:      -7.5      1.818     11.598
REMARK  Name = C:\Users\Docking\Desktop\test protocol\1iep_ligandH.pdb
REMARK  8 active torsions:
REMARK  status: ('A' for Active; 'I' for Inactive)
REMARK    1  A    between atoms: _5  and  _11
REMARK    2  A    between atoms: _19  and  _21
REMARK    3  A    between atoms: _22  and  _66
REMARK    4  A    between atoms: _27  and  _30
REMARK    5  A    between atoms: _32  and  _33
REMARK    6  A    between atoms: _38  and  _43
REMARK    7  A    between atoms: _43  and  _46
REMARK    8  A    between atoms: _53  and  _55
REMARK                            x       y       z     vdW  Elec       q    Type
REMARK                         _______ _______ _______ _____ _____    ______ ____
ROOT
ATOM     10  C   UNL     1      -4.422  -0.955  17.011  0.00  0.00    +0.038 A 
ATOM     11  C   UNL     1      -5.274  -0.647  15.919  0.00  0.00    +0.047 A 
ATOM     12  C   UNL     1      -6.583  -1.266  15.788  0.00  0.00    +0.035 A 
ATOM     32  C   UNL     1      -6.995  -2.194  16.789  0.00  0.00    +0.024 A 
ATOM     33  C   UNL     1      -6.141  -2.519  17.905  0.00  0.00    +0.007 A 
ATOM     34  C   UNL     1      -4.848  -1.913  18.038  0.00  0.00    -0.029 A 
ATOM     35  C   UNL     1      -3.972  -2.305  19.251  0.00  0.00    +0.045 C 
ENDROOT
BRANCH  10   9
ATOM      4  C   UNL     1       0.271  -0.740  16.028  0.00  0.00    +0.077 A 
ATOM      5  C   UNL     1       0.242  -1.991  15.326  0.00  0.00    +0.048 A 
ATOM      6  C   UNL     1      -1.000  -2.661  15.247  0.00  0.00    +0.116 A 
ATOM      7  N   UNL     1      -2.121  -2.112  15.830  0.00  0.00    -0.223 NA
ATOM      8  C   UNL     1      -2.058  -0.905  16.500  0.00  0.00    +0.220 A 
ATOM      9  N   UNL     1      -3.175  -0.330  17.087  0.00  0.00    -0.283 N 
ATOM     36  H   UNL     1      -3.085   0.558  17.579  0.00  0.00    +0.155 HD
ATOM     37  N   UNL     1      -0.884  -0.246  16.591  0.00  0.00    -0.214 NA
BRANCH   4   3
ATOM      1  C   UNL     1       2.758   2.278  16.114  0.00  0.00    +0.020 A 
ATOM      2  C   UNL     1       1.538   1.524  15.938  0.00  0.00    +0.013 A 
ATOM      3  C   UNL     1       1.506   0.089  16.194  0.00  0.00    +0.019 A 
ATOM     38  C   UNL     1       2.735  -0.556  16.632  0.00  0.00    +0.120 A 
ATOM     39  N   UNL     1       3.894   0.196  16.792  0.00  0.00    -0.263 NA
ATOM     40  C   UNL     1       3.938   1.577  16.547  0.00  0.00    +0.111 A 
ENDBRANCH   4   3
ENDBRANCH  10   9
BRANCH  12  13
ATOM     13  N   UNL     1      -7.488  -0.999  14.698  0.00  0.00    -0.281 N 
ATOM     14  C   UNL     1      -8.648  -0.241  14.720  0.00  0.00    +0.248 C 
ATOM     30  O   UNL     1      -9.200   0.148  15.738  0.00  0.00    -0.270 OA
ATOM     31  H   UNL     1      -7.244  -1.419  13.801  0.00  0.00    +0.155 HD
BRANCH  14  15
ATOM     15  C   UNL     1      -9.295   0.125  13.424  0.00  0.00    +0.037 A 
ATOM     16  C   UNL     1      -9.082  -0.675  12.215  0.00  0.00    +0.013 A 
ATOM     17  C   UNL     1      -9.705  -0.290  10.973  0.00  0.00    +0.005 A 
ATOM     18  C   UNL     1     -10.550   0.901  10.935  0.00  0.00    -0.033 A 
ATOM     28  C   UNL     1     -10.749   1.674  12.151  0.00  0.00    +0.005 A 
ATOM     29  C   UNL     1     -10.139   1.300  13.369  0.00  0.00    +0.013 A 
BRANCH  18  19
ATOM     19  C   UNL     1     -11.237   1.399   9.650  0.00  0.00    +0.119 C 
BRANCH  19  20
ATOM     20  N   UNL     1     -10.356   1.887   8.548  0.00  0.00    -0.302 NA
ATOM     21  C   UNL     1      -9.136   2.644   9.081  0.00  0.00    +0.066 C 
ATOM     22  C   UNL     1      -8.213   3.128   7.916  0.00  0.00    -0.064 C 
ATOM     23  N   UNL     1      -9.021   4.007   6.960  0.00  0.00    +0.379 N 
ATOM     24  C   UNL     1      -8.142   4.512   5.895  0.00  0.00    -0.096 C 
ATOM     25  H   UNL     1      -9.389   4.886   7.540  0.00  0.00    -0.082 HD
ATOM     26  C   UNL     1     -10.238   3.264   6.428  0.00  0.00    -0.064 C 
ATOM     27  C   UNL     1     -11.133   2.761   7.595  0.00  0.00    +0.066 C 
ENDBRANCH  19  20
ENDBRANCH  18  19
ENDBRANCH  14  15
ENDBRANCH  12  13
TORSDOF 6
ENDMDL
