MODEL 1
REMARK VINA RESULT:      -8.3      0.000      0.000
REMARK  Name = C:\Users\Docking\Desktop\test protocol\1iep_ligandH.pdb
REMARK  8 active torsions:
REMARK  status: ('A' for Active; 'I' for Inactive)
REMARK    1  A    between atoms: _5  and  _11
REMARK    2  A    between atoms: _19  and  _21
REMARK    3  A    between atoms: _22  and  _66
REMARK    4  A    between atoms: _27  and  _30
REMARK    5  A    between atoms: _32  and  _33
REMARK    6  A    between atoms: _38  and  _43
REMARK    7  A    between atoms: _43  and  _46
REMARK    8  A    between atoms: _53  and  _55
REMARK                            x       y       z     vdW  Elec       q    Type
REMARK                         _______ _______ _______ _____ _____    ______ ____
ROOT
ATOM     10  C   UNL     1      37.890  31.345  13.657  0.00  0.00    +0.038 A 
ATOM     11  C   UNL     1      37.622  29.960  13.806  0.00  0.00    +0.047 A 
ATOM     12  C   UNL     1      37.546  29.080  12.650  0.00  0.00    +0.035 A 
ATOM     32  C   UNL     1      37.753  29.643  11.357  0.00  0.00    +0.024 A 
ATOM     33  C   UNL     1      38.026  31.048  11.188  0.00  0.00    +0.007 A 
ATOM     34  C   UNL     1      38.098  31.922  12.323  0.00  0.00    -0.029 A 
ATOM     35  C   UNL     1      38.388  33.422  12.082  0.00  0.00    +0.045 C 
ENDROOT
BRANCH  10   9
ATOM      4  C   UNL     1      35.842  33.530  17.407  0.00  0.00    +0.077 A 
ATOM      5  C   UNL     1      34.536  33.062  17.042  0.00  0.00    +0.048 A 
ATOM      6  C   UNL     1      34.433  32.268  15.878  0.00  0.00    +0.116 A 
ATOM      7  N   UNL     1      35.559  31.969  15.142  0.00  0.00    -0.223 NA
ATOM      8  C   UNL     1      36.804  32.438  15.521  0.00  0.00    +0.220 A 
ATOM      9  N   UNL     1      37.951  32.144  14.801  0.00  0.00    -0.283 N 
ATOM     36  H   UNL     1      38.849  32.515  15.109  0.00  0.00    +0.155 HD
ATOM     37  N   UNL     1      36.928  33.200  16.628  0.00  0.00    -0.214 NA
BRANCH   4   3
ATOM      1  C   UNL     1      37.661  35.621  20.168  0.00  0.00    +0.020 A 
ATOM      2  C   UNL     1      37.453  34.803  18.996  0.00  0.00    +0.013 A 
ATOM      3  C   UNL     1      36.113  34.377  18.612  0.00  0.00    +0.019 A 
ATOM     38  C   UNL     1      34.996  34.799  19.443  0.00  0.00    +0.120 A 
ATOM     39  N   UNL     1      35.226  35.586  20.567  0.00  0.00    -0.263 NA
ATOM     40  C   UNL     1      36.511  36.000  20.947  0.00  0.00    +0.111 A 
ENDBRANCH   4   3
ENDBRANCH  10   9
BRANCH  12  13
ATOM     13  N   UNL     1      37.269  27.667  12.739  0.00  0.00    -0.281 N 
ATOM     14  C   UNL     1      37.831  26.742  13.604  0.00  0.00    +0.248 C 
ATOM     30  O   UNL     1      38.819  26.950  14.292  0.00  0.00    -0.270 OA
ATOM     31  H   UNL     1      36.574  27.306  12.086  0.00  0.00    +0.155 HD
BRANCH  14  15
ATOM     15  C   UNL     1      37.215  25.384  13.708  0.00  0.00    +0.037 A 
ATOM     16  C   UNL     1      35.760  25.208  13.711  0.00  0.00    +0.013 A 
ATOM     17  C   UNL     1      35.192  23.888  13.829  0.00  0.00    +0.005 A 
ATOM     18  C   UNL     1      36.080  22.734  13.944  0.00  0.00    -0.033 A 
ATOM     28  C   UNL     1      37.519  22.937  13.933  0.00  0.00    +0.005 A 
ATOM     29  C   UNL     1      38.080  24.229  13.818  0.00  0.00    +0.013 A 
BRANCH  18  19
ATOM     19  C   UNL     1      35.561  21.292  14.096  0.00  0.00    +0.119 C 
BRANCH  19  20
ATOM     20  N   UNL     1      34.908  20.671  12.905  0.00  0.00    -0.302 NA
ATOM     21  C   UNL     1      33.464  20.252  13.194  0.00  0.00    +0.066 C 
ATOM     22  C   UNL     1      32.789  19.626  11.931  0.00  0.00    -0.064 C 
ATOM     23  N   UNL     1      33.615  18.429  11.456  0.00  0.00    +0.379 N 
ATOM     24  C   UNL     1      32.952  17.802  10.303  0.00  0.00    -0.096 C 
ATOM     25  H   UNL     1      33.634  17.682  12.283  0.00  0.00    -0.082 HD
ATOM     26  C   UNL     1      35.053  18.836  11.168  0.00  0.00    -0.064 C 
ATOM     27  C   UNL     1      35.705  19.485  12.421  0.00  0.00    +0.066 C 
ENDBRANCH  19  20
ENDBRANCH  18  19
ENDBRANCH  14  15
ENDBRANCH  12  13
TORSDOF 6
ENDMDL
MODEL 2
REMARK VINA RESULT:      -8.2     26.273     29.861
REMARK  Name = C:\Users\Docking\Desktop\test protocol\1iep_ligandH.pdb
REMARK  8 active torsions:
REMARK  status: ('A' for Active; 'I' for Inactive)
REMARK    1  A    between atoms: _5  and  _11
REMARK    2  A    between atoms: _19  and  _21
REMARK    3  A    between atoms: _22  and  _66
REMARK    4  A    between atoms: _27  and  _30
REMARK    5  A    between atoms: _32  and  _33
REMARK    6  A    between atoms: _38  and  _43
REMARK    7  A    between atoms: _43  and  _46
REMARK    8  A    between atoms: _53  and  _55
REMARK                            x       y       z     vdW  Elec       q    Type
REMARK                         _______ _______ _______ _____ _____    ______ ____
ROOT
ATOM     10  C   UNL     1      31.920   2.561  18.802  0.00  0.00    +0.038 A 
ATOM     11  C   UNL     1      32.435   2.119  20.047  0.00  0.00    +0.047 A 
ATOM     12  C   UNL     1      31.554   1.845  21.171  0.00  0.00    +0.035 A 
ATOM     32  C   UNL     1      30.152   2.027  20.991  0.00  0.00    +0.024 A 
ATOM     33  C   UNL     1      29.611   2.476  19.732  0.00  0.00    +0.007 A 
ATOM     34  C   UNL     1      30.475   2.751  18.621  0.00  0.00    -0.029 A 
ATOM     35  C   UNL     1      29.841   3.236  17.296  0.00  0.00    +0.045 C 
ENDROOT
BRANCH  10   9
ATOM      4  C   UNL     1      34.471   1.151  14.989  0.00  0.00    +0.077 A 
ATOM      5  C   UNL     1      34.010  -0.202  15.106  0.00  0.00    +0.048 A 
ATOM      6  C   UNL     1      33.122  -0.496  16.166  0.00  0.00    +0.116 A 
ATOM      7  N   UNL     1      32.732   0.498  17.037  0.00  0.00    -0.223 NA
ATOM      8  C   UNL     1      33.197   1.793  16.896  0.00  0.00    +0.220 A 
ATOM      9  N   UNL     1      32.811   2.810  17.756  0.00  0.00    -0.283 N 
ATOM     36  H   UNL     1      33.183   3.750  17.623  0.00  0.00    +0.155 HD
ATOM     37  N   UNL     1      34.047   2.098  15.894  0.00  0.00    -0.214 NA
BRANCH   4   3
ATOM      1  C   UNL     1      35.901   2.632  11.663  0.00  0.00    +0.020 A 
ATOM      2  C   UNL     1      34.953   2.196  12.662  0.00  0.00    +0.013 A 
ATOM      3  C   UNL     1      35.410   1.618  13.920  0.00  0.00    +0.019 A 
ATOM     38  C   UNL     1      36.843   1.494  14.136  0.00  0.00    +0.120 A 
ATOM     39  N   UNL     1      37.732   1.921  13.155  0.00  0.00    -0.263 NA
ATOM     40  C   UNL     1      37.305   2.477  11.940  0.00  0.00    +0.111 A 
ENDBRANCH   4   3
ENDBRANCH  10   9
BRANCH  12  13
ATOM     13  N   UNL     1      32.020   1.402  22.462  0.00  0.00    -0.281 N 
ATOM     14  C   UNL     1      32.657   2.150  23.440  0.00  0.00    +0.248 C 
ATOM     30  O   UNL     1      33.115   3.269  23.265  0.00  0.00    -0.270 OA
ATOM     31  H   UNL     1      31.862   0.419  22.682  0.00  0.00    +0.155 HD
BRANCH  14  15
ATOM     15  C   UNL     1      32.821   1.563  24.805  0.00  0.00    +0.037 A 
ATOM     16  C   UNL     1      33.074   2.413  25.971  0.00  0.00    +0.013 A 
ATOM     17  C   UNL     1      33.245   1.820  27.274  0.00  0.00    +0.005 A 
ATOM     18  C   UNL     1      33.162   0.368  27.417  0.00  0.00    -0.033 A 
ATOM     28  C   UNL     1      32.905  -0.450  26.243  0.00  0.00    +0.005 A 
ATOM     29  C   UNL     1      32.738   0.127  24.965  0.00  0.00    +0.013 A 
BRANCH  18  19
ATOM     19  C   UNL     1      33.353  -0.352  28.765  0.00  0.00    +0.119 C 
BRANCH  19  20
ATOM     20  N   UNL     1      32.168  -1.058  29.337  0.00  0.00    -0.302 NA
ATOM     21  C   UNL     1      30.872  -0.270  29.125  0.00  0.00    +0.066 C 
ATOM     22  C   UNL     1      29.639  -1.033  29.709  0.00  0.00    -0.064 C 
ATOM     23  N   UNL     1      29.870  -1.306  31.197  0.00  0.00    +0.379 N 
ATOM     24  C   UNL     1      28.688  -1.973  31.762  0.00  0.00    -0.096 C 
ATOM     25  H   UNL     1      29.980  -0.322  31.708  0.00  0.00    -0.082 HD
ATOM     26  C   UNL     1      31.158  -2.087  31.416  0.00  0.00    -0.064 C 
ATOM     27  C   UNL     1      32.372  -1.334  30.806  0.00  0.00    +0.066 C 
ENDBRANCH  19  20
ENDBRANCH  18  19
ENDBRANCH  14  15
ENDBRANCH  12  13
TORSDOF 6
ENDMDL
MODEL 3
REMARK VINA RESULT:      -8.1     25.476     28.514
REMARK  Name = C:\Users\Docking\Desktop\test protocol\1iep_ligandH.pdb
REMARK  8 active torsions:
REMARK  status: ('A' for Active; 'I' for Inactive)
REMARK    1  A    between atoms: _5  and  _11
REMARK    2  A    between atoms: _19  and  _21
REMARK    3  A    between atoms: _22  and  _66
REMARK    4  A    between atoms: _27  and  _30
REMARK    5  A    between atoms: _32  and  _33
REMARK    6  A    between atoms: _38  and  _43
REMARK    7  A    between atoms: _43  and  _46
REMARK    8  A    between atoms: _53  and  _55
REMARK                            x       y       z     vdW  Elec       q    Type
REMARK                         _______ _______ _______ _____ _____    ______ ____
ROOT
ATOM     10  C   UNL     1      31.589   2.486  18.205  0.00  0.00    +0.038 A 
ATOM     11  C   UNL     1      32.341   2.698  19.389  0.00  0.00    +0.047 A 
ATOM     12  C   UNL     1      31.708   2.668  20.698  0.00  0.00    +0.035 A 
ATOM     32  C   UNL     1      30.306   2.416  20.765  0.00  0.00    +0.024 A 
ATOM     33  C   UNL     1      29.527   2.200  19.572  0.00  0.00    +0.007 A 
ATOM     34  C   UNL     1      30.146   2.231  18.277  0.00  0.00    -0.029 A 
ATOM     35  C   UNL     1      29.259   1.999  17.031  0.00  0.00    +0.045 C 
ENDROOT
BRANCH  10   9
ATOM      4  C   UNL     1      35.124   1.137  15.251  0.00  0.00    +0.077 A 
ATOM      5  C   UNL     1      35.723   0.303  16.253  0.00  0.00    +0.048 A 
ATOM      6  C   UNL     1      35.094   0.254  17.517  0.00  0.00    +0.116 A 
ATOM      7  N   UNL     1      33.952   0.989  17.751  0.00  0.00    -0.223 NA
ATOM      8  C   UNL     1      33.401   1.785  16.764  0.00  0.00    +0.220 A 
ATOM      9  N   UNL     1      32.249   2.526  16.975  0.00  0.00    -0.283 N 
ATOM     36  H   UNL     1      31.878   3.107  16.223  0.00  0.00    +0.155 HD
ATOM     37  N   UNL     1      33.983   1.850  15.548  0.00  0.00    -0.214 NA
BRANCH   4   3
ATOM      1  C   UNL     1      35.910   2.533  11.683  0.00  0.00    +0.020 A 
ATOM      2  C   UNL     1      35.357   2.432  13.014  0.00  0.00    +0.013 A 
ATOM      3  C   UNL     1      35.669   1.291  13.865  0.00  0.00    +0.019 A 
ATOM     38  C   UNL     1      36.551   0.262  13.336  0.00  0.00    +0.120 A 
ATOM     39  N   UNL     1      37.067   0.385  12.050  0.00  0.00    -0.263 NA
ATOM     40  C   UNL     1      36.773   1.477  11.221  0.00  0.00    +0.111 A 
ENDBRANCH   4   3
ENDBRANCH  10   9
BRANCH  12  13
ATOM     13  N   UNL     1      32.418   2.884  21.934  0.00  0.00    -0.281 N 
ATOM     14  C   UNL     1      32.683   1.965  22.936  0.00  0.00    +0.248 C 
ATOM     30  O   UNL     1      32.160   0.863  23.019  0.00  0.00    -0.270 OA
ATOM     31  H   UNL     1      32.769   3.829  22.089  0.00  0.00    +0.155 HD
BRANCH  14  15
ATOM     15  C   UNL     1      33.658   2.327  24.010  0.00  0.00    +0.037 A 
ATOM     16  C   UNL     1      33.320   3.309  25.043  0.00  0.00    +0.013 A 
ATOM     17  C   UNL     1      34.285   3.653  26.057  0.00  0.00    +0.005 A 
ATOM     18  C   UNL     1      35.598   3.013  26.042  0.00  0.00    -0.033 A 
ATOM     28  C   UNL     1      35.905   2.038  25.008  0.00  0.00    +0.005 A 
ATOM     29  C   UNL     1      34.962   1.699  24.013  0.00  0.00    +0.013 A 
BRANCH  18  19
ATOM     19  C   UNL     1      36.697   3.334  27.072  0.00  0.00    +0.119 C 
BRANCH  19  20
ATOM     20  N   UNL     1      37.682   4.398  26.712  0.00  0.00    -0.302 NA
ATOM     21  C   UNL     1      38.904   3.827  25.987  0.00  0.00    +0.066 C 
ATOM     22  C   UNL     1      39.914   4.955  25.597  0.00  0.00    -0.064 C 
ATOM     23  N   UNL     1      40.336   5.715  26.856  0.00  0.00    +0.379 N 
ATOM     24  C   UNL     1      41.329   6.739  26.501  0.00  0.00    -0.096 C 
ATOM     25  H   UNL     1      40.831   4.986  27.540  0.00  0.00    -0.082 HD
ATOM     26  C   UNL     1      39.127   6.283  27.584  0.00  0.00    -0.064 C 
ATOM     27  C   UNL     1      38.116   5.158  27.941  0.00  0.00    +0.066 C 
ENDBRANCH  19  20
ENDBRANCH  18  19
ENDBRANCH  14  15
ENDBRANCH  12  13
TORSDOF 6
ENDMDL
MODEL 4
REMARK VINA RESULT:      -8.0     26.608     28.666
REMARK  Name = C:\Users\Docking\Desktop\test protocol\1iep_ligandH.pdb
REMARK  8 active torsions:
REMARK  status: ('A' for Active; 'I' for Inactive)
REMARK    1  A    between atoms: _5  and  _11
REMARK    2  A    between atoms: _19  and  _21
REMARK    3  A    between atoms: _22  and  _66
REMARK    4  A    between atoms: _27  and  _30
REMARK    5  A    between atoms: _32  and  _33
REMARK    6  A    between atoms: _38  and  _43
REMARK    7  A    between atoms: _43  and  _46
REMARK    8  A    between atoms: _53  and  _55
REMARK                            x       y       z     vdW  Elec       q    Type
REMARK                         _______ _______ _______ _____ _____    ______ ____
ROOT
ATOM     10  C   UNL     1      32.067   1.077  21.844  0.00  0.00    +0.038 A 
ATOM     11  C   UNL     1      33.031   0.940  20.813  0.00  0.00    +0.047 A 
ATOM     12  C   UNL     1      32.820   1.533  19.502  0.00  0.00    +0.035 A 
ATOM     32  C   UNL     1      31.617   2.262  19.275  0.00  0.00    +0.024 A 
ATOM     33  C   UNL     1      30.625   2.410  20.312  0.00  0.00    +0.007 A 
ATOM     34  C   UNL     1      30.826   1.825  21.606  0.00  0.00    -0.029 A 
ATOM     35  C   UNL     1      29.726   2.010  22.677  0.00  0.00    +0.045 C 
ENDROOT
BRANCH  10   9
ATOM      4  C   UNL     1      33.324   1.321  26.469  0.00  0.00    +0.077 A 
ATOM      5  C   UNL     1      33.517   2.741  26.403  0.00  0.00    +0.048 A 
ATOM      6  C   UNL     1      33.290   3.369  25.158  0.00  0.00    +0.116 A 
ATOM      7  N   UNL     1      32.898   2.623  24.068  0.00  0.00    -0.223 NA
ATOM      8  C   UNL     1      32.722   1.255  24.165  0.00  0.00    +0.220 A 
ATOM      9  N   UNL     1      32.321   0.486  23.084  0.00  0.00    -0.283 N 
ATOM     36  H   UNL     1      32.209  -0.521  23.195  0.00  0.00    +0.155 HD
ATOM     37  N   UNL     1      32.934   0.631  25.343  0.00  0.00    -0.214 NA
BRANCH   4   3
ATOM      1  C   UNL     1      32.668  -0.895  29.625  0.00  0.00    +0.020 A 
ATOM      2  C   UNL     1      32.423  -0.126  28.427  0.00  0.00    +0.013 A 
ATOM      3  C   UNL     1      33.522   0.514  27.715  0.00  0.00    +0.019 A 
ATOM     38  C   UNL     1      34.868   0.355  28.245  0.00  0.00    +0.120 A 
ATOM     39  N   UNL     1      35.073  -0.390  29.402  0.00  0.00    -0.263 NA
ATOM     40  C   UNL     1      34.023  -1.009  30.097  0.00  0.00    +0.111 A 
ENDBRANCH   4   3
ENDBRANCH  10   9
BRANCH  12  13
ATOM     13  N   UNL     1      33.760   1.420  18.414  0.00  0.00    -0.281 N 
ATOM     14  C   UNL     1      33.503   1.065  17.100  0.00  0.00    +0.248 C 
ATOM     30  O   UNL     1      32.452   0.580  16.708  0.00  0.00    -0.270 OA
ATOM     31  H   UNL     1      34.733   1.627  18.640  0.00  0.00    +0.155 HD
BRANCH  14  15
ATOM     15  C   UNL     1      34.574   1.264  16.076  0.00  0.00    +0.037 A 
ATOM     16  C   UNL     1      35.906   0.678  16.245  0.00  0.00    +0.013 A 
ATOM     17  C   UNL     1      36.925   0.899  15.250  0.00  0.00    +0.005 A 
ATOM     18  C   UNL     1      36.615   1.709  14.075  0.00  0.00    -0.033 A 
ATOM     28  C   UNL     1      35.284   2.274  13.930  0.00  0.00    +0.005 A 
ATOM     29  C   UNL     1      34.283   2.061  14.903  0.00  0.00    +0.013 A 
BRANCH  18  19
ATOM     19  C   UNL     1      37.648   2.015  12.974  0.00  0.00    +0.119 C 
BRANCH  19  20
ATOM     20  N   UNL     1      37.295   1.620  11.578  0.00  0.00    -0.302 NA
ATOM     21  C   UNL     1      37.218   0.100  11.413  0.00  0.00    +0.066 C 
ATOM     22  C   UNL     1      36.826  -0.295   9.951  0.00  0.00    -0.064 C 
ATOM     23  N   UNL     1      37.839   0.305   8.975  0.00  0.00    +0.379 N 
ATOM     24  C   UNL     1      37.506  -0.112   7.605  0.00  0.00    -0.096 C 
ATOM     25  H   UNL     1      38.840  -0.118   9.224  0.00  0.00    -0.082 HD
ATOM     26  C   UNL     1      37.924   1.816   9.134  0.00  0.00    -0.064 C 
ATOM     27  C   UNL     1      38.285   2.199  10.597  0.00  0.00    +0.066 C 
ENDBRANCH  19  20
ENDBRANCH  18  19
ENDBRANCH  14  15
ENDBRANCH  12  13
TORSDOF 6
ENDMDL
MODEL 5
REMARK VINA RESULT:      -7.9     20.712     28.457
REMARK  Name = C:\Users\Docking\Desktop\test protocol\1iep_ligandH.pdb
REMARK  8 active torsions:
REMARK  status: ('A' for Active; 'I' for Inactive)
REMARK    1  A    between atoms: _5  and  _11
REMARK    2  A    between atoms: _19  and  _21
REMARK    3  A    between atoms: _22  and  _66
REMARK    4  A    between atoms: _27  and  _30
REMARK    5  A    between atoms: _32  and  _33
REMARK    6  A    between atoms: _38  and  _43
REMARK    7  A    between atoms: _43  and  _46
REMARK    8  A    between atoms: _53  and  _55
REMARK                            x       y       z     vdW  Elec       q    Type
REMARK                         _______ _______ _______ _____ _____    ______ ____
ROOT
ATOM     10  C   UNL     1      33.165   1.792  25.110  0.00  0.00    +0.038 A 
ATOM     11  C   UNL     1      34.322   2.596  25.267  0.00  0.00    +0.047 A 
ATOM     12  C   UNL     1      35.208   2.426  26.408  0.00  0.00    +0.035 A 
ATOM     32  C   UNL     1      34.886   1.424  27.370  0.00  0.00    +0.024 A 
ATOM     33  C   UNL     1      33.713   0.599  27.226  0.00  0.00    +0.007 A 
ATOM     34  C   UNL     1      32.834   0.764  26.104  0.00  0.00    -0.029 A 
ATOM     35  C   UNL     1      31.587  -0.145  26.005  0.00  0.00    +0.045 C 
ENDROOT
BRANCH  10   9
ATOM      4  C   UNL     1      32.100   1.170  20.471  0.00  0.00    +0.077 A 
ATOM      5  C   UNL     1      33.283   0.390  20.243  0.00  0.00    +0.048 A 
ATOM      6  C   UNL     1      34.142   0.178  21.345  0.00  0.00    +0.116 A 
ATOM      7  N   UNL     1      33.832   0.711  22.577  0.00  0.00    -0.223 NA
ATOM      8  C   UNL     1      32.685   1.460  22.762  0.00  0.00    +0.220 A 
ATOM      9  N   UNL     1      32.349   1.999  23.995  0.00  0.00    -0.283 N 
ATOM     36  H   UNL     1      31.498   2.551  24.089  0.00  0.00    +0.155 HD
ATOM     37  N   UNL     1      31.848   1.678  21.726  0.00  0.00    -0.214 NA
BRANCH   4   3
ATOM      1  C   UNL     1      29.979   1.039  17.187  0.00  0.00    +0.020 A 
ATOM      2  C   UNL     1      30.970   0.700  18.182  0.00  0.00    +0.013 A 
ATOM      3  C   UNL     1      31.093   1.479  19.408  0.00  0.00    +0.019 A 
ATOM     38  C   UNL     1      30.189   2.604  19.598  0.00  0.00    +0.120 A 
ATOM     39  N   UNL     1      29.246   2.908  18.621  0.00  0.00    -0.263 NA
ATOM     40  C   UNL     1      29.120   2.167  17.437  0.00  0.00    +0.111 A 
ENDBRANCH   4   3
ENDBRANCH  10   9
BRANCH  12  13
ATOM     13  N   UNL     1      36.393   3.219  26.624  0.00  0.00    -0.281 N 
ATOM     14  C   UNL     1      37.567   3.213  25.890  0.00  0.00    +0.248 C 
ATOM     30  O   UNL     1      37.858   2.366  25.058  0.00  0.00    -0.270 OA
ATOM     31  H   UNL     1      36.362   3.862  27.415  0.00  0.00    +0.155 HD
BRANCH  14  15
ATOM     15  C   UNL     1      38.570   4.296  26.123  0.00  0.00    +0.037 A 
ATOM     16  C   UNL     1      39.865   4.293  25.437  0.00  0.00    +0.013 A 
ATOM     17  C   UNL     1      40.821   5.341  25.693  0.00  0.00    +0.005 A 
ATOM     18  C   UNL     1      40.485   6.402  26.639  0.00  0.00    -0.033 A 
ATOM     28  C   UNL     1      39.191   6.384  27.301  0.00  0.00    +0.005 A 
ATOM     29  C   UNL     1      38.251   5.358  27.053  0.00  0.00    +0.013 A 
BRANCH  18  19
ATOM     19  C   UNL     1      41.452   7.549  26.989  0.00  0.00    +0.119 C 
BRANCH  19  20
ATOM     20  N   UNL     1      41.229   8.861  26.313  0.00  0.00    -0.302 NA
ATOM     21  C   UNL     1      41.482   8.781  24.805  0.00  0.00    +0.066 C 
ATOM     22  C   UNL     1      41.222  10.158  24.111  0.00  0.00    -0.064 C 
ATOM     23  N   UNL     1      42.111  11.225  24.752  0.00  0.00    +0.379 N 
ATOM     24  C   UNL     1      41.911  12.508  24.063  0.00  0.00    -0.096 C 
ATOM     25  H   UNL     1      43.171  10.919  24.598  0.00  0.00    -0.082 HD
ATOM     26  C   UNL     1      41.868  11.310  26.253  0.00  0.00    -0.064 C 
ATOM     27  C   UNL     1      42.100   9.929  26.929  0.00  0.00    +0.066 C 
ENDBRANCH  19  20
ENDBRANCH  18  19
ENDBRANCH  14  15
ENDBRANCH  12  13
TORSDOF 6
ENDMDL
