MODEL 1
REMARK VINA RESULT:      -7.9      0.000      0.000
REMARK  Name = C:\Users\Docking\Desktop\test protocol\1iep_ligandH.pdb
REMARK  8 active torsions:
REMARK  status: ('A' for Active; 'I' for Inactive)
REMARK    1  A    between atoms: _5  and  _11
REMARK    2  A    between atoms: _19  and  _21
REMARK    3  A    between atoms: _22  and  _66
REMARK    4  A    between atoms: _27  and  _30
REMARK    5  A    between atoms: _32  and  _33
REMARK    6  A    between atoms: _38  and  _43
REMARK    7  A    between atoms: _43  and  _46
REMARK    8  A    between atoms: _53  and  _55
REMARK                            x       y       z     vdW  Elec       q    Type
REMARK                         _______ _______ _______ _____ _____    ______ ____
ROOT
ATOM     10  C   UNL     1      54.939  26.436  12.000  0.00  0.00    +0.038 A 
ATOM     11  C   UNL     1      53.648  26.616  11.441  0.00  0.00    +0.047 A 
ATOM     12  C   UNL     1      52.933  27.874  11.590  0.00  0.00    +0.035 A 
ATOM     32  C   UNL     1      53.563  28.928  12.313  0.00  0.00    +0.024 A 
ATOM     33  C   UNL     1      54.874  28.762  12.888  0.00  0.00    +0.007 A 
ATOM     34  C   UNL     1      55.584  27.523  12.747  0.00  0.00    -0.029 A 
ATOM     35  C   UNL     1      56.985  27.399  13.390  0.00  0.00    +0.045 C 
ENDROOT
BRANCH  10   9
ATOM      4  C   UNL     1      57.866  23.493   9.590  0.00  0.00    +0.077 A 
ATOM      5  C   UNL     1      58.117  24.477   8.577  0.00  0.00    +0.048 A 
ATOM      6  C   UNL     1      57.468  25.725   8.709  0.00  0.00    +0.116 A 
ATOM      7  N   UNL     1      56.633  25.960   9.779  0.00  0.00    -0.223 NA
ATOM      8  C   UNL     1      56.411  24.989  10.738  0.00  0.00    +0.220 A 
ATOM      9  N   UNL     1      55.581  25.208  11.827  0.00  0.00    -0.283 N 
ATOM     36  H   UNL     1      55.437  24.463  12.508  0.00  0.00    +0.155 HD
ATOM     37  N   UNL     1      57.018  23.789  10.634  0.00  0.00    -0.214 NA
BRANCH   4   3
ATOM      1  C   UNL     1      59.576  20.167   8.442  0.00  0.00    +0.020 A 
ATOM      2  C   UNL     1      58.991  21.487   8.386  0.00  0.00    +0.013 A 
ATOM      3  C   UNL     1      58.481  22.128   9.592  0.00  0.00    +0.019 A 
ATOM     38  C   UNL     1      58.578  21.400  10.848  0.00  0.00    +0.120 A 
ATOM     39  N   UNL     1      59.145  20.130  10.871  0.00  0.00    -0.263 NA
ATOM     40  C   UNL     1      59.638  19.503   9.717  0.00  0.00    +0.111 A 
ENDBRANCH   4   3
ENDBRANCH  10   9
BRANCH  12  13
ATOM     13  N   UNL     1      51.616  28.112  11.052  0.00  0.00    -0.281 N 
ATOM     14  C   UNL     1      51.283  28.550   9.780  0.00  0.00    +0.248 C 
ATOM     30  O   UNL     1      52.080  29.010   8.977  0.00  0.00    -0.270 OA
ATOM     31  H   UNL     1      50.836  27.937  11.684  0.00  0.00    +0.155 HD
BRANCH  14  15
ATOM     15  C   UNL     1      49.855  28.480   9.344  0.00  0.00    +0.037 A 
ATOM     16  C   UNL     1      49.276  29.506   8.473  0.00  0.00    +0.013 A 
ATOM     17  C   UNL     1      47.891  29.424   8.081  0.00  0.00    +0.005 A 
ATOM     18  C   UNL     1      47.076  28.309   8.559  0.00  0.00    -0.033 A 
ATOM     28  C   UNL     1      47.678  27.303   9.418  0.00  0.00    +0.005 A 
ATOM     29  C   UNL     1      49.034  27.381   9.805  0.00  0.00    +0.013 A 
BRANCH  18  19
ATOM     19  C   UNL     1      45.585  28.153   8.208  0.00  0.00    +0.119 C 
BRANCH  19  20
ATOM     20  N   UNL     1      45.009  26.776   8.267  0.00  0.00    -0.302 NA
ATOM     21  C   UNL     1      45.145  26.039   6.932  0.00  0.00    +0.066 C 
ATOM     22  C   UNL     1      44.559  24.593   7.018  0.00  0.00    -0.064 C 
ATOM     23  N   UNL     1      43.093  24.665   7.450  0.00  0.00    +0.379 N 
ATOM     24  C   UNL     1      42.522  23.310   7.475  0.00  0.00    -0.096 C 
ATOM     25  H   UNL     1      42.542  25.250   6.677  0.00  0.00    -0.082 HD
ATOM     26  C   UNL     1      42.948  25.399   8.775  0.00  0.00    -0.064 C 
ATOM     27  C   UNL     1      43.561  26.824   8.688  0.00  0.00    +0.066 C 
ENDBRANCH  19  20
ENDBRANCH  18  19
ENDBRANCH  14  15
ENDBRANCH  12  13
TORSDOF 6
ENDMDL
MODEL 2
REMARK VINA RESULT:      -7.8      5.930     12.371
REMARK  Name = C:\Users\Docking\Desktop\test protocol\1iep_ligandH.pdb
REMARK  8 active torsions:
REMARK  status: ('A' for Active; 'I' for Inactive)
REMARK    1  A    between atoms: _5  and  _11
REMARK    2  A    between atoms: _19  and  _21
REMARK    3  A    between atoms: _22  and  _66
REMARK    4  A    between atoms: _27  and  _30
REMARK    5  A    between atoms: _32  and  _33
REMARK    6  A    between atoms: _38  and  _43
REMARK    7  A    between atoms: _43  and  _46
REMARK    8  A    between atoms: _53  and  _55
REMARK                            x       y       z     vdW  Elec       q    Type
REMARK                         _______ _______ _______ _____ _____    ______ ____
ROOT
ATOM     10  C   UNL     1      54.829  27.533  11.220  0.00  0.00    +0.038 A 
ATOM     11  C   UNL     1      55.498  26.293  11.062  0.00  0.00    +0.047 A 
ATOM     12  C   UNL     1      55.832  25.780   9.743  0.00  0.00    +0.035 A 
ATOM     32  C   UNL     1      55.472  26.559   8.604  0.00  0.00    +0.024 A 
ATOM     33  C   UNL     1      54.791  27.822   8.746  0.00  0.00    +0.007 A 
ATOM     34  C   UNL     1      54.457  28.331  10.045  0.00  0.00    -0.029 A 
ATOM     35  C   UNL     1      53.721  29.688  10.137  0.00  0.00    +0.045 C 
ENDROOT
BRANCH  10   9
ATOM      4  C   UNL     1      56.037  29.685  15.337  0.00  0.00    +0.077 A 
ATOM      5  C   UNL     1      57.380  29.919  14.889  0.00  0.00    +0.048 A 
ATOM      6  C   UNL     1      57.721  29.464  13.595  0.00  0.00    +0.116 A 
ATOM      7  N   UNL     1      56.782  28.824  12.817  0.00  0.00    -0.223 NA
ATOM      8  C   UNL     1      55.496  28.612  13.280  0.00  0.00    +0.220 A 
ATOM      9  N   UNL     1      54.533  27.978  12.510  0.00  0.00    -0.283 N 
ATOM     36  H   UNL     1      53.598  27.834  12.891  0.00  0.00    +0.155 HD
ATOM     37  N   UNL     1      55.146  29.036  14.512  0.00  0.00    -0.214 NA
BRANCH   4   3
ATOM      1  C   UNL     1      55.806  31.186  18.941  0.00  0.00    +0.020 A 
ATOM      2  C   UNL     1      56.351  30.798  17.661  0.00  0.00    +0.013 A 
ATOM      3  C   UNL     1      55.524  30.109  16.678  0.00  0.00    +0.019 A 
ATOM     38  C   UNL     1      54.139  29.827  17.024  0.00  0.00    +0.120 A 
ATOM     39  N   UNL     1      53.642  30.212  18.265  0.00  0.00    -0.263 NA
ATOM     40  C   UNL     1      54.429  30.874  19.220  0.00  0.00    +0.111 A 
ENDBRANCH   4   3
ENDBRANCH  10   9
BRANCH  12  13
ATOM     13  N   UNL     1      56.503  24.523   9.521  0.00  0.00    -0.281 N 
ATOM     14  C   UNL     1      57.792  24.316   9.056  0.00  0.00    +0.248 C 
ATOM     30  O   UNL     1      58.494  25.182   8.556  0.00  0.00    -0.270 OA
ATOM     31  H   UNL     1      55.962  23.684   9.731  0.00  0.00    +0.155 HD
BRANCH  14  15
ATOM     15  C   UNL     1      58.381  22.945   9.148  0.00  0.00    +0.037 A 
ATOM     16  C   UNL     1      58.477  22.244  10.430  0.00  0.00    +0.013 A 
ATOM     17  C   UNL     1      59.065  20.929  10.493  0.00  0.00    +0.005 A 
ATOM     18  C   UNL     1      59.560  20.307   9.268  0.00  0.00    -0.033 A 
ATOM     28  C   UNL     1      59.447  21.023   8.008  0.00  0.00    +0.005 A 
ATOM     29  C   UNL     1      58.872  22.312   7.943  0.00  0.00    +0.013 A 
BRANCH  18  19
ATOM     19  C   UNL     1      60.222  18.916   9.244  0.00  0.00    +0.119 C 
BRANCH  19  20
ATOM     20  N   UNL     1      60.872  18.447  10.503  0.00  0.00    -0.302 NA
ATOM     21  C   UNL     1      61.879  17.322  10.245  0.00  0.00    +0.066 C 
ATOM     22  C   UNL     1      62.567  16.859  11.571  0.00  0.00    -0.064 C 
ATOM     23  N   UNL     1      61.497  16.410  12.567  0.00  0.00    +0.379 N 
ATOM     24  C   UNL     1      62.144  15.919  13.793  0.00  0.00    -0.096 C 
ATOM     25  H   UNL     1      60.947  15.555  12.110  0.00  0.00    -0.082 HD
ATOM     26  C   UNL     1      60.490  17.521  12.828  0.00  0.00    -0.064 C 
ATOM     27  C   UNL     1      59.834  17.995  11.501  0.00  0.00    +0.066 C 
ENDBRANCH  19  20
ENDBRANCH  18  19
ENDBRANCH  14  15
ENDBRANCH  12  13
TORSDOF 6
ENDMDL
MODEL 3
REMARK VINA RESULT:      -7.6      7.790     11.607
REMARK  Name = C:\Users\Docking\Desktop\test protocol\1iep_ligandH.pdb
REMARK  8 active torsions:
REMARK  status: ('A' for Active; 'I' for Inactive)
REMARK    1  A    between atoms: _5  and  _11
REMARK    2  A    between atoms: _19  and  _21
REMARK    3  A    between atoms: _22  and  _66
REMARK    4  A    between atoms: _27  and  _30
REMARK    5  A    between atoms: _32  and  _33
REMARK    6  A    between atoms: _38  and  _43
REMARK    7  A    between atoms: _43  and  _46
REMARK    8  A    between atoms: _53  and  _55
REMARK                            x       y       z     vdW  Elec       q    Type
REMARK                         _______ _______ _______ _____ _____    ______ ____
ROOT
ATOM     10  C   UNL     1      59.989  31.298  18.599  0.00  0.00    +0.038 A 
ATOM     11  C   UNL     1      59.370  30.483  17.617  0.00  0.00    +0.047 A 
ATOM     12  C   UNL     1      58.868  31.050  16.375  0.00  0.00    +0.035 A 
ATOM     32  C   UNL     1      59.016  32.452  16.164  0.00  0.00    +0.024 A 
ATOM     33  C   UNL     1      59.642  33.296  17.152  0.00  0.00    +0.007 A 
ATOM     34  C   UNL     1      60.136  32.742  18.380  0.00  0.00    -0.029 A 
ATOM     35  C   UNL     1      60.792  33.696  19.406  0.00  0.00    +0.045 C 
ENDROOT
BRANCH  10   9
ATOM      4  C   UNL     1      63.022  28.444  20.984  0.00  0.00    +0.077 A 
ATOM      5  C   UNL     1      63.727  28.092  19.785  0.00  0.00    +0.048 A 
ATOM      6  C   UNL     1      63.272  28.661  18.575  0.00  0.00    +0.116 A 
ATOM      7  N   UNL     1      62.193  29.518  18.575  0.00  0.00    -0.223 NA
ATOM      8  C   UNL     1      61.535  29.836  19.749  0.00  0.00    +0.220 A 
ATOM      9  N   UNL     1      60.452  30.701  19.773  0.00  0.00    -0.283 N 
ATOM     36  H   UNL     1      59.989  30.904  20.659  0.00  0.00    +0.155 HD
ATOM     37  N   UNL     1      61.948  29.304  20.918  0.00  0.00    -0.214 NA
BRANCH   4   3
ATOM      1  C   UNL     1      64.104  26.092  23.917  0.00  0.00    +0.020 A 
ATOM      2  C   UNL     1      63.763  26.541  22.586  0.00  0.00    +0.013 A 
ATOM      3  C   UNL     1      63.384  27.927  22.342  0.00  0.00    +0.019 A 
ATOM     38  C   UNL     1      63.362  28.841  23.474  0.00  0.00    +0.120 A 
ATOM     39  N   UNL     1      63.694  28.381  24.744  0.00  0.00    -0.263 NA
ATOM     40  C   UNL     1      64.058  27.049  24.991  0.00  0.00    +0.111 A 
ENDBRANCH   4   3
ENDBRANCH  10   9
BRANCH  12  13
ATOM     13  N   UNL     1      58.224  30.273  15.346  0.00  0.00    -0.281 N 
ATOM     14  C   UNL     1      58.633  29.063  14.810  0.00  0.00    +0.248 C 
ATOM     30  O   UNL     1      59.736  28.567  14.985  0.00  0.00    -0.270 OA
ATOM     31  H   UNL     1      57.360  30.662  14.966  0.00  0.00    +0.155 HD
BRANCH  14  15
ATOM     15  C   UNL     1      57.686  28.300  13.941  0.00  0.00    +0.037 A 
ATOM     16  C   UNL     1      57.654  28.502  12.490  0.00  0.00    +0.013 A 
ATOM     17  C   UNL     1      56.719  27.766  11.678  0.00  0.00    +0.005 A 
ATOM     18  C   UNL     1      55.807  26.819  12.315  0.00  0.00    -0.033 A 
ATOM     28  C   UNL     1      55.863  26.634  13.756  0.00  0.00    +0.005 A 
ATOM     29  C   UNL     1      56.778  27.355  14.556  0.00  0.00    +0.013 A 
BRANCH  18  19
ATOM     19  C   UNL     1      54.761  26.006  11.529  0.00  0.00    +0.119 C 
BRANCH  19  20
ATOM     20  N   UNL     1      54.761  24.525  11.722  0.00  0.00    -0.302 NA
ATOM     21  C   UNL     1      55.987  23.862  11.088  0.00  0.00    +0.066 C 
ATOM     22  C   UNL     1      55.982  22.316  11.319  0.00  0.00    -0.064 C 
ATOM     23  N   UNL     1      54.691  21.723  10.751  0.00  0.00    +0.379 N 
ATOM     24  C   UNL     1      54.709  20.262  10.914  0.00  0.00    -0.096 C 
ATOM     25  H   UNL     1      54.672  21.941   9.658  0.00  0.00    -0.082 HD
ATOM     26  C   UNL     1      53.467  22.378  11.373  0.00  0.00    -0.064 C 
ATOM     27  C   UNL     1      53.497  23.918  11.164  0.00  0.00    +0.066 C 
ENDBRANCH  19  20
ENDBRANCH  18  19
ENDBRANCH  14  15
ENDBRANCH  12  13
TORSDOF 6
ENDMDL
MODEL 4
REMARK VINA RESULT:      -7.6      5.759     11.522
REMARK  Name = C:\Users\Docking\Desktop\test protocol\1iep_ligandH.pdb
REMARK  8 active torsions:
REMARK  status: ('A' for Active; 'I' for Inactive)
REMARK    1  A    between atoms: _5  and  _11
REMARK    2  A    between atoms: _19  and  _21
REMARK    3  A    between atoms: _22  and  _66
REMARK    4  A    between atoms: _27  and  _30
REMARK    5  A    between atoms: _32  and  _33
REMARK    6  A    between atoms: _38  and  _43
REMARK    7  A    between atoms: _43  and  _46
REMARK    8  A    between atoms: _53  and  _55
REMARK                            x       y       z     vdW  Elec       q    Type
REMARK                         _______ _______ _______ _____ _____    ______ ____
ROOT
ATOM     10  C   UNL     1      55.298  25.574  12.038  0.00  0.00    +0.038 A 
ATOM     11  C   UNL     1      55.969  26.510  12.865  0.00  0.00    +0.047 A 
ATOM     12  C   UNL     1      55.423  27.839  13.095  0.00  0.00    +0.035 A 
ATOM     32  C   UNL     1      54.189  28.180  12.468  0.00  0.00    +0.024 A 
ATOM     33  C   UNL     1      53.494  27.241  11.624  0.00  0.00    +0.007 A 
ATOM     34  C   UNL     1      54.029  25.930  11.391  0.00  0.00    -0.029 A 
ATOM     35  C   UNL     1      53.244  24.966  10.471  0.00  0.00    +0.045 C 
ENDROOT
BRANCH  10   9
ATOM      4  C   UNL     1      58.139  22.521   9.662  0.00  0.00    +0.077 A 
ATOM      5  C   UNL     1      58.499  23.517   8.694  0.00  0.00    +0.048 A 
ATOM      6  C   UNL     1      57.925  24.800   8.839  0.00  0.00    +0.116 A 
ATOM      7  N   UNL     1      57.058  25.057   9.879  0.00  0.00    -0.223 NA
ATOM      8  C   UNL     1      56.731  24.074  10.794  0.00  0.00    +0.220 A 
ATOM      9  N   UNL     1      55.867  24.312  11.852  0.00  0.00    -0.283 N 
ATOM     36  H   UNL     1      55.645  23.558  12.502  0.00  0.00    +0.155 HD
ATOM     37  N   UNL     1      57.264  22.840  10.677  0.00  0.00    -0.214 NA
BRANCH   4   3
ATOM      1  C   UNL     1      60.541  19.436   9.552  0.00  0.00    +0.020 A 
ATOM      2  C   UNL     1      60.086  20.807   9.565  0.00  0.00    +0.013 A 
ATOM      3  C   UNL     1      58.665  21.119   9.645  0.00  0.00    +0.019 A 
ATOM     38  C   UNL     1      57.723  20.012   9.713  0.00  0.00    +0.120 A 
ATOM     39  N   UNL     1      58.190  18.702   9.698  0.00  0.00    -0.263 NA
ATOM     40  C   UNL     1      59.556  18.389   9.619  0.00  0.00    +0.111 A 
ENDBRANCH   4   3
ENDBRANCH  10   9
BRANCH  12  13
ATOM     13  N   UNL     1      56.064  28.834  13.918  0.00  0.00    -0.281 N 
ATOM     14  C   UNL     1      55.796  29.146  15.241  0.00  0.00    +0.248 C 
ATOM     30  O   UNL     1      54.814  28.760  15.857  0.00  0.00    -0.270 OA
ATOM     31  H   UNL     1      56.805  29.374  13.472  0.00  0.00    +0.155 HD
BRANCH  14  15
ATOM     15  C   UNL     1      56.750  30.025  15.983  0.00  0.00    +0.037 A 
ATOM     16  C   UNL     1      56.338  30.744  17.191  0.00  0.00    +0.013 A 
ATOM     17  C   UNL     1      57.273  31.600  17.878  0.00  0.00    +0.005 A 
ATOM     18  C   UNL     1      58.631  31.739  17.358  0.00  0.00    -0.033 A 
ATOM     28  C   UNL     1      59.015  31.010  16.161  0.00  0.00    +0.005 A 
ATOM     29  C   UNL     1      58.101  30.172  15.484  0.00  0.00    +0.013 A 
BRANCH  18  19
ATOM     19  C   UNL     1      59.689  32.647  18.014  0.00  0.00    +0.119 C 
BRANCH  19  20
ATOM     20  N   UNL     1      60.794  31.977  18.763  0.00  0.00    -0.302 NA
ATOM     21  C   UNL     1      62.002  31.687  17.867  0.00  0.00    +0.066 C 
ATOM     22  C   UNL     1      63.157  31.008  18.671  0.00  0.00    -0.064 C 
ATOM     23  N   UNL     1      62.639  29.720  19.315  0.00  0.00    +0.379 N 
ATOM     24  C   UNL     1      63.738  29.049  20.024  0.00  0.00    -0.096 C 
ATOM     25  H   UNL     1      62.302  29.045  18.495  0.00  0.00    -0.082 HD
ATOM     26  C   UNL     1      61.436  30.000  20.206  0.00  0.00    -0.064 C 
ATOM     27  C   UNL     1      60.305  30.702  19.403  0.00  0.00    +0.066 C 
ENDBRANCH  19  20
ENDBRANCH  18  19
ENDBRANCH  14  15
ENDBRANCH  12  13
TORSDOF 6
ENDMDL
MODEL 5
REMARK VINA RESULT:      -7.3      6.314     10.973
REMARK  Name = C:\Users\Docking\Desktop\test protocol\1iep_ligandH.pdb
REMARK  8 active torsions:
REMARK  status: ('A' for Active; 'I' for Inactive)
REMARK    1  A    between atoms: _5  and  _11
REMARK    2  A    between atoms: _19  and  _21
REMARK    3  A    between atoms: _22  and  _66
REMARK    4  A    between atoms: _27  and  _30
REMARK    5  A    between atoms: _32  and  _33
REMARK    6  A    between atoms: _38  and  _43
REMARK    7  A    between atoms: _43  and  _46
REMARK    8  A    between atoms: _53  and  _55
REMARK                            x       y       z     vdW  Elec       q    Type
REMARK                         _______ _______ _______ _____ _____    ______ ____
ROOT
ATOM     10  C   UNL     1      56.579  26.840  10.258  0.00  0.00    +0.038 A 
ATOM     11  C   UNL     1      56.890  27.484  11.483  0.00  0.00    +0.047 A 
ATOM     12  C   UNL     1      56.193  28.692  11.897  0.00  0.00    +0.035 A 
ATOM     32  C   UNL     1      55.182  29.216  11.040  0.00  0.00    +0.024 A 
ATOM     33  C   UNL     1      54.853  28.575   9.791  0.00  0.00    +0.007 A 
ATOM     34  C   UNL     1      55.539  27.385   9.376  0.00  0.00    -0.029 A 
ATOM     35  C   UNL     1      55.150  26.743   8.024  0.00  0.00    +0.045 C 
ENDROOT
BRANCH  10   9
ATOM      4  C   UNL     1      57.312  22.103  10.499  0.00  0.00    +0.077 A 
ATOM      5  C   UNL     1      56.224  21.922  11.417  0.00  0.00    +0.048 A 
ATOM      6  C   UNL     1      55.506  23.074  11.807  0.00  0.00    +0.116 A 
ATOM      7  N   UNL     1      55.857  24.310  11.311  0.00  0.00    -0.223 NA
ATOM      8  C   UNL     1      56.913  24.451  10.429  0.00  0.00    +0.220 A 
ATOM      9  N   UNL     1      57.279  25.683   9.911  0.00  0.00    -0.283 N 
ATOM     36  H   UNL     1      58.069  25.746   9.268  0.00  0.00    +0.155 HD
ATOM     37  N   UNL     1      57.616  23.366  10.041  0.00  0.00    -0.214 NA
BRANCH   4   3
ATOM      1  C   UNL     1      60.375  20.003   9.270  0.00  0.00    +0.020 A 
ATOM      2  C   UNL     1      59.597  21.117   9.762  0.00  0.00    +0.013 A 
ATOM      3  C   UNL     1      58.164  20.982   9.990  0.00  0.00    +0.019 A 
ATOM     38  C   UNL     1      57.543  19.696   9.710  0.00  0.00    +0.120 A 
ATOM     39  N   UNL     1      58.317  18.642   9.235  0.00  0.00    -0.263 NA
ATOM     40  C   UNL     1      59.697  18.760   9.010  0.00  0.00    +0.111 A 
ENDBRANCH   4   3
ENDBRANCH  10   9
BRANCH  12  13
ATOM     13  N   UNL     1      56.472  29.394  13.125  0.00  0.00    -0.281 N 
ATOM     14  C   UNL     1      55.730  29.391  14.295  0.00  0.00    +0.248 C 
ATOM     30  O   UNL     1      54.594  28.952  14.392  0.00  0.00    -0.270 OA
ATOM     31  H   UNL     1      57.320  29.961  13.134  0.00  0.00    +0.155 HD
BRANCH  14  15
ATOM     15  C   UNL     1      56.331  29.974  15.533  0.00  0.00    +0.037 A 
ATOM     16  C   UNL     1      55.547  30.122  16.762  0.00  0.00    +0.013 A 
ATOM     17  C   UNL     1      56.146  30.703  17.937  0.00  0.00    +0.005 A 
ATOM     18  C   UNL     1      57.539  31.140  17.888  0.00  0.00    -0.033 A 
ATOM     28  C   UNL     1      58.296  30.977  16.658  0.00  0.00    +0.005 A 
ATOM     29  C   UNL     1      57.711  30.409  15.504  0.00  0.00    +0.013 A 
BRANCH  18  19
ATOM     19  C   UNL     1      58.254  31.791  19.088  0.00  0.00    +0.119 C 
BRANCH  19  20
ATOM     20  N   UNL     1      59.071  30.898  19.963  0.00  0.00    -0.302 NA
ATOM     21  C   UNL     1      59.940  29.935  19.150  0.00  0.00    +0.066 C 
ATOM     22  C   UNL     1      60.804  29.024  20.081  0.00  0.00    -0.064 C 
ATOM     23  N   UNL     1      59.886  28.254  21.032  0.00  0.00    +0.379 N 
ATOM     24  C   UNL     1      60.692  27.353  21.870  0.00  0.00    -0.096 C 
ATOM     25  H   UNL     1      59.209  27.623  20.410  0.00  0.00    -0.082 HD
ATOM     26  C   UNL     1      59.016  29.204  21.843  0.00  0.00    -0.064 C 
ATOM     27  C   UNL     1      58.183  30.125  20.907  0.00  0.00    +0.066 C 
ENDBRANCH  19  20
ENDBRANCH  18  19
ENDBRANCH  14  15
ENDBRANCH  12  13
TORSDOF 6
ENDMDL
