MODEL 1
REMARK VINA RESULT:      -6.8      0.000      0.000
REMARK  Name = C:\Users\Docking\Desktop\test protocol\1iep_ligandH.pdb
REMARK  8 active torsions:
REMARK  status: ('A' for Active; 'I' for Inactive)
REMARK    1  A    between atoms: _5  and  _11
REMARK    2  A    between atoms: _19  and  _21
REMARK    3  A    between atoms: _22  and  _66
REMARK    4  A    between atoms: _27  and  _30
REMARK    5  A    between atoms: _32  and  _33
REMARK    6  A    between atoms: _38  and  _43
REMARK    7  A    between atoms: _43  and  _46
REMARK    8  A    between atoms: _53  and  _55
REMARK                            x       y       z     vdW  Elec       q    Type
REMARK                         _______ _______ _______ _____ _____    ______ ____
ROOT
ATOM     10  C   UNL     1       7.309 -12.377  33.493  0.00  0.00    +0.038 A 
ATOM     11  C   UNL     1       8.203 -11.818  34.442  0.00  0.00    +0.047 A 
ATOM     12  C   UNL     1       7.855 -11.747  35.852  0.00  0.00    +0.035 A 
ATOM     32  C   UNL     1       6.589 -12.257  36.262  0.00  0.00    +0.024 A 
ATOM     33  C   UNL     1       5.668 -12.828  35.311  0.00  0.00    +0.007 A 
ATOM     34  C   UNL     1       6.005 -12.898  33.918  0.00  0.00    -0.029 A 
ATOM     35  C   UNL     1       4.976 -13.515  32.942  0.00  0.00    +0.045 C 
ENDROOT
BRANCH  10   9
ATOM      4  C   UNL     1       7.784 -10.368  29.159  0.00  0.00    +0.077 A 
ATOM      5  C   UNL     1       7.189  -9.139  29.599  0.00  0.00    +0.048 A 
ATOM      6  C   UNL     1       6.768  -9.067  30.945  0.00  0.00    +0.116 A 
ATOM      7  N   UNL     1       6.935 -10.150  31.782  0.00  0.00    -0.223 NA
ATOM      8  C   UNL     1       7.510 -11.321  31.326  0.00  0.00    +0.220 A 
ATOM      9  N   UNL     1       7.695 -12.419  32.151  0.00  0.00    -0.283 N 
ATOM     36  H   UNL     1       8.117 -13.268  31.775  0.00  0.00    +0.155 HD
ATOM     37  N   UNL     1       7.920 -11.416  30.043  0.00  0.00    -0.214 NA
BRANCH   4   3
ATOM      1  C   UNL     1       8.288 -10.127  25.288  0.00  0.00    +0.020 A 
ATOM      2  C   UNL     1       7.773  -9.868  26.612  0.00  0.00    +0.013 A 
ATOM      3  C   UNL     1       8.282 -10.598  27.766  0.00  0.00    +0.019 A 
ATOM     38  C   UNL     1       9.323 -11.591  27.544  0.00  0.00    +0.120 A 
ATOM     39  N   UNL     1       9.799 -11.820  26.257  0.00  0.00    -0.263 NA
ATOM     40  C   UNL     1       9.315 -11.125  25.139  0.00  0.00    +0.111 A 
ENDBRANCH   4   3
ENDBRANCH  10   9
BRANCH  12  13
ATOM     13  N   UNL     1       8.718 -11.183  36.860  0.00  0.00    -0.281 N 
ATOM     14  C   UNL     1       9.605 -11.848  37.692  0.00  0.00    +0.248 C 
ATOM     30  O   UNL     1       9.634 -13.060  37.842  0.00  0.00    -0.270 OA
ATOM     31  H   UNL     1       8.670 -10.170  36.975  0.00  0.00    +0.155 HD
BRANCH  14  15
ATOM     15  C   UNL     1      10.592 -11.050  38.481  0.00  0.00    +0.037 A 
ATOM     16  C   UNL     1      10.356 -10.731  39.891  0.00  0.00    +0.013 A 
ATOM     17  C   UNL     1      11.317  -9.945  40.625  0.00  0.00    +0.005 A 
ATOM     18  C   UNL     1      12.523  -9.474  39.949  0.00  0.00    -0.033 A 
ATOM     28  C   UNL     1      12.734  -9.810  38.550  0.00  0.00    +0.005 A 
ATOM     29  C   UNL     1      11.794 -10.579  37.828  0.00  0.00    +0.013 A 
BRANCH  18  19
ATOM     19  C   UNL     1      13.591  -8.612  40.648  0.00  0.00    +0.119 C 
BRANCH  19  20
ATOM     20  N   UNL     1      13.241  -7.189  40.934  0.00  0.00    -0.302 NA
ATOM     21  C   UNL     1      14.291  -6.218  40.387  0.00  0.00    +0.066 C 
ATOM     22  C   UNL     1      13.898  -4.732  40.675  0.00  0.00    -0.064 C 
ATOM     23  N   UNL     1      13.715  -4.540  42.182  0.00  0.00    +0.379 N 
ATOM     24  C   UNL     1      13.403  -3.131  42.462  0.00  0.00    -0.096 C 
ATOM     25  H   UNL     1      14.688  -4.775  42.673  0.00  0.00    -0.082 HD
ATOM     26  C   UNL     1      12.675  -5.503  42.735  0.00  0.00    -0.064 C 
ATOM     27  C   UNL     1      13.060  -6.975  42.417  0.00  0.00    +0.066 C 
ENDBRANCH  19  20
ENDBRANCH  18  19
ENDBRANCH  14  15
ENDBRANCH  12  13
TORSDOF 6
ENDMDL
MODEL 2
REMARK VINA RESULT:      -6.5      1.818      2.530
REMARK  Name = C:\Users\Docking\Desktop\test protocol\1iep_ligandH.pdb
REMARK  8 active torsions:
REMARK  status: ('A' for Active; 'I' for Inactive)
REMARK    1  A    between atoms: _5  and  _11
REMARK    2  A    between atoms: _19  and  _21
REMARK    3  A    between atoms: _22  and  _66
REMARK    4  A    between atoms: _27  and  _30
REMARK    5  A    between atoms: _32  and  _33
REMARK    6  A    between atoms: _38  and  _43
REMARK    7  A    between atoms: _43  and  _46
REMARK    8  A    between atoms: _53  and  _55
REMARK                            x       y       z     vdW  Elec       q    Type
REMARK                         _______ _______ _______ _____ _____    ______ ____
ROOT
ATOM     10  C   UNL     1       7.760 -12.795  32.449  0.00  0.00    +0.038 A 
ATOM     11  C   UNL     1       8.333 -12.066  33.522  0.00  0.00    +0.047 A 
ATOM     12  C   UNL     1       8.529 -12.678  34.827  0.00  0.00    +0.035 A 
ATOM     32  C   UNL     1       8.132 -14.035  35.004  0.00  0.00    +0.024 A 
ATOM     33  C   UNL     1       7.547 -14.790  33.924  0.00  0.00    +0.007 A 
ATOM     34  C   UNL     1       7.349 -14.192  32.635  0.00  0.00    -0.029 A 
ATOM     35  C   UNL     1       6.711 -15.047  31.515  0.00  0.00    +0.045 C 
ENDROOT
BRANCH  10   9
ATOM      4  C   UNL     1       9.174 -11.813  27.969  0.00  0.00    +0.077 A 
ATOM      5  C   UNL     1      10.356 -12.616  28.102  0.00  0.00    +0.048 A 
ATOM      6  C   UNL     1      10.566 -13.259  29.343  0.00  0.00    +0.116 A 
ATOM      7  N   UNL     1       9.656 -13.104  30.366  0.00  0.00    -0.223 NA
ATOM      8  C   UNL     1       8.528 -12.321  30.204  0.00  0.00    +0.220 A 
ATOM      9  N   UNL     1       7.595 -12.158  31.217  0.00  0.00    -0.283 N 
ATOM     36  H   UNL     1       6.779 -11.566  31.061  0.00  0.00    +0.155 HD
ATOM     37  N   UNL     1       8.305 -11.695  29.030  0.00  0.00    -0.214 NA
BRANCH   4   3
ATOM      1  C   UNL     1       7.527  -9.303  25.461  0.00  0.00    +0.020 A 
ATOM      2  C   UNL     1       7.842  -9.985  26.695  0.00  0.00    +0.013 A 
ATOM      3  C   UNL     1       8.811 -11.073  26.719  0.00  0.00    +0.019 A 
ATOM     38  C   UNL     1       9.449 -11.450  25.466  0.00  0.00    +0.120 A 
ATOM     39  N   UNL     1       9.125 -10.776  24.293  0.00  0.00    -0.263 NA
ATOM     40  C   UNL     1       8.193  -9.728  24.258  0.00  0.00    +0.111 A 
ENDBRANCH   4   3
ENDBRANCH  10   9
BRANCH  12  13
ATOM     13  N   UNL     1       9.099 -11.985  35.957  0.00  0.00    -0.281 N 
ATOM     14  C   UNL     1       8.581 -11.873  37.237  0.00  0.00    +0.248 C 
ATOM     30  O   UNL     1       7.439 -12.175  37.549  0.00  0.00    -0.270 OA
ATOM     31  H   UNL     1       9.992 -11.520  35.792  0.00  0.00    +0.155 HD
BRANCH  14  15
ATOM     15  C   UNL     1       9.454 -11.336  38.324  0.00  0.00    +0.037 A 
ATOM     16  C   UNL     1      10.769 -10.761  38.029  0.00  0.00    +0.013 A 
ATOM     17  C   UNL     1      11.598 -10.265  39.099  0.00  0.00    +0.005 A 
ATOM     18  C   UNL     1      11.113 -10.341  40.475  0.00  0.00    -0.033 A 
ATOM     28  C   UNL     1       9.803 -10.911  40.739  0.00  0.00    +0.005 A 
ATOM     29  C   UNL     1       8.987 -11.399  39.693  0.00  0.00    +0.013 A 
BRANCH  18  19
ATOM     19  C   UNL     1      11.939  -9.855  41.680  0.00  0.00    +0.119 C 
BRANCH  19  20
ATOM     20  N   UNL     1      12.954  -8.788  41.429  0.00  0.00    -0.302 NA
ATOM     21  C   UNL     1      14.223  -8.996  42.260  0.00  0.00    +0.066 C 
ATOM     22  C   UNL     1      15.283  -7.884  41.968  0.00  0.00    -0.064 C 
ATOM     23  N   UNL     1      14.669  -6.512  42.250  0.00  0.00    +0.379 N 
ATOM     24  C   UNL     1      15.681  -5.467  42.032  0.00  0.00    -0.096 C 
ATOM     25  H   UNL     1      14.382  -6.485  43.327  0.00  0.00    -0.082 HD
ATOM     26  C   UNL     1      13.405  -6.298  41.430  0.00  0.00    -0.064 C 
ATOM     27  C   UNL     1      12.370  -7.425  41.705  0.00  0.00    +0.066 C 
ENDBRANCH  19  20
ENDBRANCH  18  19
ENDBRANCH  14  15
ENDBRANCH  12  13
TORSDOF 6
ENDMDL
MODEL 3
REMARK VINA RESULT:      -6.4      3.712      6.163
REMARK  Name = C:\Users\Docking\Desktop\test protocol\1iep_ligandH.pdb
REMARK  8 active torsions:
REMARK  status: ('A' for Active; 'I' for Inactive)
REMARK    1  A    between atoms: _5  and  _11
REMARK    2  A    between atoms: _19  and  _21
REMARK    3  A    between atoms: _22  and  _66
REMARK    4  A    between atoms: _27  and  _30
REMARK    5  A    between atoms: _32  and  _33
REMARK    6  A    between atoms: _38  and  _43
REMARK    7  A    between atoms: _43  and  _46
REMARK    8  A    between atoms: _53  and  _55
REMARK                            x       y       z     vdW  Elec       q    Type
REMARK                         _______ _______ _______ _____ _____    ______ ____
ROOT
ATOM     10  C   UNL     1       9.151 -11.382  37.923  0.00  0.00    +0.038 A 
ATOM     11  C   UNL     1      10.408 -10.766  38.147  0.00  0.00    +0.047 A 
ATOM     12  C   UNL     1      10.955 -10.638  39.489  0.00  0.00    +0.035 A 
ATOM     32  C   UNL     1      10.195 -11.150  40.580  0.00  0.00    +0.024 A 
ATOM     33  C   UNL     1       8.914 -11.778  40.371  0.00  0.00    +0.007 A 
ATOM     34  C   UNL     1       8.368 -11.905  39.049  0.00  0.00    -0.029 A 
ATOM     35  C   UNL     1       6.987 -12.582  38.885  0.00  0.00    +0.045 C 
ENDROOT
BRANCH  10   9
ATOM      4  C   UNL     1       8.982 -13.514  33.626  0.00  0.00    +0.077 A 
ATOM      5  C   UNL     1       9.946 -14.504  34.014  0.00  0.00    +0.048 A 
ATOM      6  C   UNL     1      10.466 -14.424  35.325  0.00  0.00    +0.116 A 
ATOM      7  N   UNL     1      10.046 -13.426  36.177  0.00  0.00    -0.223 NA
ATOM      8  C   UNL     1       9.116 -12.486  35.771  0.00  0.00    +0.220 A 
ATOM      9  N   UNL     1       8.674 -11.479  36.614  0.00  0.00    -0.283 N 
ATOM     36  H   UNL     1       7.992 -10.800  36.274  0.00  0.00    +0.155 HD
ATOM     37  N   UNL     1       8.606 -12.540  34.523  0.00  0.00    -0.214 NA
BRANCH   4   3
ATOM      1  C   UNL     1       8.214 -14.095  29.835  0.00  0.00    +0.020 A 
ATOM      2  C   UNL     1       8.874 -14.173  31.118  0.00  0.00    +0.013 A 
ATOM      3  C   UNL     1       8.339 -13.467  32.275  0.00  0.00    +0.019 A 
ATOM     38  C   UNL     1       7.124 -12.685  32.100  0.00  0.00    +0.120 A 
ATOM     39  N   UNL     1       6.511 -12.628  30.852  0.00  0.00    -0.263 NA
ATOM     40  C   UNL     1       7.018 -13.301  29.731  0.00  0.00    +0.111 A 
ENDBRANCH   4   3
ENDBRANCH  10   9
BRANCH  12  13
ATOM     13  N   UNL     1      12.223 -10.015  39.778  0.00  0.00    -0.281 N 
ATOM     14  C   UNL     1      12.489  -9.009  40.693  0.00  0.00    +0.248 C 
ATOM     30  O   UNL     1      11.633  -8.340  41.252  0.00  0.00    -0.270 OA
ATOM     31  H   UNL     1      13.022 -10.358  39.244  0.00  0.00    +0.155 HD
BRANCH  14  15
ATOM     15  C   UNL     1      13.911  -8.690  41.023  0.00  0.00    +0.037 A 
ATOM     16  C   UNL     1      14.616  -7.589  40.362  0.00  0.00    +0.013 A 
ATOM     17  C   UNL     1      15.994  -7.314  40.686  0.00  0.00    +0.005 A 
ATOM     18  C   UNL     1      16.675  -8.142  41.679  0.00  0.00    -0.033 A 
ATOM     28  C   UNL     1      15.950  -9.224  42.323  0.00  0.00    +0.005 A 
ATOM     29  C   UNL     1      14.600  -9.498  42.007  0.00  0.00    +0.013 A 
BRANCH  18  19
ATOM     19  C   UNL     1      18.149  -7.934  42.072  0.00  0.00    +0.119 C 
BRANCH  19  20
ATOM     20  N   UNL     1      19.182  -8.612  41.234  0.00  0.00    -0.302 NA
ATOM     21  C   UNL     1      19.281  -7.998  39.835  0.00  0.00    +0.066 C 
ATOM     22  C   UNL     1      20.382  -8.706  38.979  0.00  0.00    -0.064 C 
ATOM     23  N   UNL     1      20.075 -10.202  38.894  0.00  0.00    +0.379 N 
ATOM     24  C   UNL     1      21.076 -10.860  38.042  0.00  0.00    -0.096 C 
ATOM     25  H   UNL     1      19.083 -10.315  38.399  0.00  0.00    -0.082 HD
ATOM     26  C   UNL     1      19.972 -10.820  40.281  0.00  0.00    -0.064 C 
ATOM     27  C   UNL     1      18.896 -10.090  41.133  0.00  0.00    +0.066 C 
ENDBRANCH  19  20
ENDBRANCH  18  19
ENDBRANCH  14  15
ENDBRANCH  12  13
TORSDOF 6
ENDMDL
MODEL 4
REMARK VINA RESULT:      -6.4      2.276      3.333
REMARK  Name = C:\Users\Docking\Desktop\test protocol\1iep_ligandH.pdb
REMARK  8 active torsions:
REMARK  status: ('A' for Active; 'I' for Inactive)
REMARK    1  A    between atoms: _5  and  _11
REMARK    2  A    between atoms: _19  and  _21
REMARK    3  A    between atoms: _22  and  _66
REMARK    4  A    between atoms: _27  and  _30
REMARK    5  A    between atoms: _32  and  _33
REMARK    6  A    between atoms: _38  and  _43
REMARK    7  A    between atoms: _43  and  _46
REMARK    8  A    between atoms: _53  and  _55
REMARK                            x       y       z     vdW  Elec       q    Type
REMARK                         _______ _______ _______ _____ _____    ______ ____
ROOT
ATOM     10  C   UNL     1       7.941 -12.583  36.192  0.00  0.00    +0.038 A 
ATOM     11  C   UNL     1       8.818 -11.921  37.089  0.00  0.00    +0.047 A 
ATOM     12  C   UNL     1       8.531 -11.858  38.514  0.00  0.00    +0.035 A 
ATOM     32  C   UNL     1       7.343 -12.483  38.992  0.00  0.00    +0.024 A 
ATOM     33  C   UNL     1       6.440 -13.160  38.094  0.00  0.00    +0.007 A 
ATOM     34  C   UNL     1       6.717 -13.223  36.688  0.00  0.00    -0.029 A 
ATOM     35  C   UNL     1       5.710 -13.957  35.771  0.00  0.00    +0.045 C 
ENDROOT
BRANCH  10   9
ATOM      4  C   UNL     1       7.893 -10.681  31.786  0.00  0.00    +0.077 A 
ATOM      5  C   UNL     1       7.134  -9.544  32.221  0.00  0.00    +0.048 A 
ATOM      6  C   UNL     1       6.770  -9.490  33.585  0.00  0.00    +0.116 A 
ATOM      7  N   UNL     1       7.143 -10.503  34.442  0.00  0.00    -0.223 NA
ATOM      8  C   UNL     1       7.873 -11.587  33.989  0.00  0.00    +0.220 A 
ATOM      9  N   UNL     1       8.266 -12.613  34.834  0.00  0.00    -0.283 N 
ATOM     36  H   UNL     1       8.798 -13.399  34.460  0.00  0.00    +0.155 HD
ATOM     37  N   UNL     1       8.232 -11.662  32.691  0.00  0.00    -0.214 NA
BRANCH   4   3
ATOM      1  C   UNL     1       9.673 -12.103  28.606  0.00  0.00    +0.020 A 
ATOM      2  C   UNL     1       9.257 -11.955  29.982  0.00  0.00    +0.013 A 
ATOM      3  C   UNL     1       8.356 -10.879  30.376  0.00  0.00    +0.019 A 
ATOM     38  C   UNL     1       7.890  -9.963  29.346  0.00  0.00    +0.120 A 
ATOM     39  N   UNL     1       8.309 -10.129  28.030  0.00  0.00    -0.263 NA
ATOM     40  C   UNL     1       9.177 -11.160  27.639  0.00  0.00    +0.111 A 
ENDBRANCH   4   3
ENDBRANCH  10   9
BRANCH  12  13
ATOM     13  N   UNL     1       9.380 -11.193  39.470  0.00  0.00    -0.281 N 
ATOM     14  C   UNL     1      10.356 -11.754  40.278  0.00  0.00    +0.248 C 
ATOM     30  O   UNL     1      10.500 -12.954  40.455  0.00  0.00    -0.270 OA
ATOM     31  H   UNL     1       9.246 -10.186  39.564  0.00  0.00    +0.155 HD
BRANCH  14  15
ATOM     15  C   UNL     1      11.298 -10.850  41.006  0.00  0.00    +0.037 A 
ATOM     16  C   UNL     1      12.458 -11.382  41.725  0.00  0.00    +0.013 A 
ATOM     17  C   UNL     1      13.342 -10.490  42.433  0.00  0.00    +0.005 A 
ATOM     18  C   UNL     1      13.068  -9.055  42.424  0.00  0.00    -0.033 A 
ATOM     28  C   UNL     1      11.913  -8.553  41.699  0.00  0.00    +0.005 A 
ATOM     29  C   UNL     1      11.044  -9.425  41.004  0.00  0.00    +0.013 A 
BRANCH  18  19
ATOM     19  C   UNL     1      13.945  -8.032  43.170  0.00  0.00    +0.119 C 
BRANCH  19  20
ATOM     20  N   UNL     1      13.372  -7.406  44.399  0.00  0.00    -0.302 NA
ATOM     21  C   UNL     1      12.262  -8.263  45.015  0.00  0.00    +0.066 C 
ATOM     22  C   UNL     1      11.689  -7.604  46.312  0.00  0.00    -0.064 C 
ATOM     23  N   UNL     1      11.171  -6.203  45.983  0.00  0.00    +0.379 N 
ATOM     24  C   UNL     1      10.579  -5.604  47.188  0.00  0.00    -0.096 C 
ATOM     25  H   UNL     1      10.361  -6.311  45.225  0.00  0.00    -0.082 HD
ATOM     26  C   UNL     1      12.268  -5.345  45.368  0.00  0.00    -0.064 C 
ATOM     27  C   UNL     1      12.851  -6.023  44.096  0.00  0.00    +0.066 C 
ENDBRANCH  19  20
ENDBRANCH  18  19
ENDBRANCH  14  15
ENDBRANCH  12  13
TORSDOF 6
ENDMDL
MODEL 5
REMARK VINA RESULT:      -6.3      6.183     10.921
REMARK  Name = C:\Users\Docking\Desktop\test protocol\1iep_ligandH.pdb
REMARK  8 active torsions:
REMARK  status: ('A' for Active; 'I' for Inactive)
REMARK    1  A    between atoms: _5  and  _11
REMARK    2  A    between atoms: _19  and  _21
REMARK    3  A    between atoms: _22  and  _66
REMARK    4  A    between atoms: _27  and  _30
REMARK    5  A    between atoms: _32  and  _33
REMARK    6  A    between atoms: _38  and  _43
REMARK    7  A    between atoms: _43  and  _46
REMARK    8  A    between atoms: _53  and  _55
REMARK                            x       y       z     vdW  Elec       q    Type
REMARK                         _______ _______ _______ _____ _____    ______ ____
ROOT
ATOM     10  C   UNL     1       8.634 -10.782  22.606  0.00  0.00    +0.038 A 
ATOM     11  C   UNL     1       8.751 -10.354  23.953  0.00  0.00    +0.047 A 
ATOM     12  C   UNL     1       8.164 -11.121  25.041  0.00  0.00    +0.035 A 
ATOM     32  C   UNL     1       7.465 -12.322  24.720  0.00  0.00    +0.024 A 
ATOM     33  C   UNL     1       7.335 -12.771  23.357  0.00  0.00    +0.007 A 
ATOM     34  C   UNL     1       7.910 -12.017  22.279  0.00  0.00    -0.029 A 
ATOM     35  C   UNL     1       7.734 -12.543  20.836  0.00  0.00    +0.045 C 
ENDROOT
BRANCH  10   9
ATOM      4  C   UNL     1       8.753  -6.900  19.787  0.00  0.00    +0.077 A 
ATOM      5  C   UNL     1       7.535  -6.385  20.344  0.00  0.00    +0.048 A 
ATOM      6  C   UNL     1       6.905  -7.154  21.349  0.00  0.00    +0.116 A 
ATOM      7  N   UNL     1       7.461  -8.346  21.758  0.00  0.00    -0.223 NA
ATOM      8  C   UNL     1       8.636  -8.814  21.199  0.00  0.00    +0.220 A 
ATOM      9  N   UNL     1       9.217 -10.007  21.602  0.00  0.00    -0.283 N 
ATOM     36  H   UNL     1      10.080 -10.322  21.159  0.00  0.00    +0.155 HD
ATOM     37  N   UNL     1       9.256  -8.100  20.237  0.00  0.00    -0.214 NA
BRANCH   4   3
ATOM      1  C   UNL     1      11.634  -5.828  17.368  0.00  0.00    +0.020 A 
ATOM      2  C   UNL     1      10.922  -6.533  18.409  0.00  0.00    +0.013 A 
ATOM      3  C   UNL     1       9.537  -6.202  18.720  0.00  0.00    +0.019 A 
ATOM     38  C   UNL     1       8.897  -5.145  17.952  0.00  0.00    +0.120 A 
ATOM     39  N   UNL     1       9.608  -4.482  16.956  0.00  0.00    -0.263 NA
ATOM     40  C   UNL     1      10.942  -4.791  16.650  0.00  0.00    +0.111 A 
ENDBRANCH   4   3
ENDBRANCH  10   9
BRANCH  12  13
ATOM     13  N   UNL     1       8.244 -10.732  26.427  0.00  0.00    -0.281 N 
ATOM     14  C   UNL     1       7.448  -9.821  27.103  0.00  0.00    +0.248 C 
ATOM     30  O   UNL     1       6.679  -9.041  26.562  0.00  0.00    -0.270 OA
ATOM     31  H   UNL     1       8.976 -11.182  26.976  0.00  0.00    +0.155 HD
BRANCH  14  15
ATOM     15  C   UNL     1       7.530  -9.759  28.594  0.00  0.00    +0.037 A 
ATOM     16  C   UNL     1       8.627 -10.401  29.323  0.00  0.00    +0.013 A 
ATOM     17  C   UNL     1       8.672 -10.340  30.762  0.00  0.00    +0.005 A 
ATOM     18  C   UNL     1       7.617  -9.632  31.483  0.00  0.00    -0.033 A 
ATOM     28  C   UNL     1       6.543  -8.999  30.734  0.00  0.00    +0.005 A 
ATOM     29  C   UNL     1       6.495  -9.058  29.324  0.00  0.00    +0.013 A 
BRANCH  18  19
ATOM     19  C   UNL     1       7.573  -9.535  33.019  0.00  0.00    +0.119 C 
BRANCH  19  20
ATOM     20  N   UNL     1       6.772 -10.563  33.747  0.00  0.00    -0.302 NA
ATOM     21  C   UNL     1       5.567  -9.949  34.467  0.00  0.00    +0.066 C 
ATOM     22  C   UNL     1       4.727 -11.042  35.204  0.00  0.00    -0.064 C 
ATOM     23  N   UNL     1       5.624 -11.790  36.192  0.00  0.00    +0.379 N 
ATOM     24  C   UNL     1       4.824 -12.779  36.929  0.00  0.00    -0.096 C 
ATOM     25  H   UNL     1       6.008 -11.048  36.930  0.00  0.00    -0.082 HD
ATOM     26  C   UNL     1       6.826 -12.402  35.485  0.00  0.00    -0.064 C 
ATOM     27  C   UNL     1       7.637 -11.311  34.731  0.00  0.00    +0.066 C 
ENDBRANCH  19  20
ENDBRANCH  18  19
ENDBRANCH  14  15
ENDBRANCH  12  13
TORSDOF 6
ENDMDL
