MODEL 1
REMARK VINA RESULT:     -11.4      0.000      0.000
REMARK  Name = C:\Users\Docking\Desktop\test protocol\1iep_ligandH.pdb
REMARK  8 active torsions:
REMARK  status: ('A' for Active; 'I' for Inactive)
REMARK    1  A    between atoms: _5  and  _11
REMARK    2  A    between atoms: _19  and  _21
REMARK    3  A    between atoms: _22  and  _66
REMARK    4  A    between atoms: _27  and  _30
REMARK    5  A    between atoms: _32  and  _33
REMARK    6  A    between atoms: _38  and  _43
REMARK    7  A    between atoms: _43  and  _46
REMARK    8  A    between atoms: _53  and  _55
REMARK                            x       y       z     vdW  Elec       q    Type
REMARK                         _______ _______ _______ _____ _____    ______ ____
ROOT
ATOM     10  C   UNL     1     -15.012  23.706 -25.601  0.00  0.00    +0.038 A 
ATOM     11  C   UNL     1     -15.002  22.551 -26.424  0.00  0.00    +0.047 A 
ATOM     12  C   UNL     1     -15.349  21.243 -25.889  0.00  0.00    +0.035 A 
ATOM     32  C   UNL     1     -15.703  21.149 -24.511  0.00  0.00    +0.024 A 
ATOM     33  C   UNL     1     -15.716  22.313 -23.660  0.00  0.00    +0.007 A 
ATOM     34  C   UNL     1     -15.373  23.605 -24.182  0.00  0.00    -0.029 A 
ATOM     35  C   UNL     1     -15.398  24.817 -23.222  0.00  0.00    +0.045 C 
ENDROOT
BRANCH  10   9
ATOM      4  C   UNL     1     -16.168  27.874 -27.681  0.00  0.00    +0.077 A 
ATOM      5  C   UNL     1     -17.568  27.562 -27.664  0.00  0.00    +0.048 A 
ATOM      6  C   UNL     1     -17.948  26.316 -27.117  0.00  0.00    +0.116 A 
ATOM      7  N   UNL     1     -16.992  25.454 -26.627  0.00  0.00    -0.223 NA
ATOM      8  C   UNL     1     -15.649  25.785 -26.661  0.00  0.00    +0.220 A 
ATOM      9  N   UNL     1     -14.671  24.936 -26.167  0.00  0.00    -0.283 N 
ATOM     36  H   UNL     1     -13.691  25.214 -26.217  0.00  0.00    +0.155 HD
ATOM     37  N   UNL     1     -15.260  26.968 -27.179  0.00  0.00    -0.214 NA
BRANCH   4   3
ATOM      1  C   UNL     1     -13.737  30.809 -28.563  0.00  0.00    +0.020 A 
ATOM      2  C   UNL     1     -14.226  29.563 -28.018  0.00  0.00    +0.013 A 
ATOM      3  C   UNL     1     -15.609  29.153 -28.223  0.00  0.00    +0.019 A 
ATOM     38  C   UNL     1     -16.478  30.031 -28.992  0.00  0.00    +0.120 A 
ATOM     39  N   UNL     1     -15.979  31.225 -29.504  0.00  0.00    -0.263 NA
ATOM     40  C   UNL     1     -14.650  31.632 -29.311  0.00  0.00    +0.111 A 
ENDBRANCH   4   3
ENDBRANCH  10   9
BRANCH  12  13
ATOM     13  N   UNL     1     -15.349  20.034 -26.674  0.00  0.00    -0.281 N 
ATOM     14  C   UNL     1     -16.330  19.058 -26.734  0.00  0.00    +0.248 C 
ATOM     30  O   UNL     1     -17.268  18.971 -25.955  0.00  0.00    -0.270 OA
ATOM     31  H   UNL     1     -14.526  19.878 -27.256  0.00  0.00    +0.155 HD
BRANCH  14  15
ATOM     15  C   UNL     1     -16.251  18.019 -27.806  0.00  0.00    +0.037 A 
ATOM     16  C   UNL     1     -15.370  18.189 -28.965  0.00  0.00    +0.013 A 
ATOM     17  C   UNL     1     -15.326  17.180 -29.994  0.00  0.00    +0.005 A 
ATOM     18  C   UNL     1     -16.164  15.990 -29.867  0.00  0.00    -0.033 A 
ATOM     28  C   UNL     1     -17.024  15.845 -28.704  0.00  0.00    +0.005 A 
ATOM     29  C   UNL     1     -17.072  16.832 -27.695  0.00  0.00    +0.013 A 
BRANCH  18  19
ATOM     19  C   UNL     1     -16.196  14.873 -30.926  0.00  0.00    +0.119 C 
BRANCH  19  20
ATOM     20  N   UNL     1     -16.202  15.290 -32.360  0.00  0.00    -0.302 NA
ATOM     21  C   UNL     1     -17.304  16.311 -32.657  0.00  0.00    +0.066 C 
ATOM     22  C   UNL     1     -17.282  16.753 -34.156  0.00  0.00    -0.064 C 
ATOM     23  N   UNL     1     -17.429  15.521 -35.051  0.00  0.00    +0.379 N 
ATOM     24  C   UNL     1     -17.467  15.940 -36.460  0.00  0.00    -0.096 C 
ATOM     25  H   UNL     1     -18.409  15.046 -34.813  0.00  0.00    -0.082 HD
ATOM     26  C   UNL     1     -16.339  14.500 -34.760  0.00  0.00    -0.064 C 
ATOM     27  C   UNL     1     -16.351  14.089 -33.261  0.00  0.00    +0.066 C 
ENDBRANCH  19  20
ENDBRANCH  18  19
ENDBRANCH  14  15
ENDBRANCH  12  13
TORSDOF 6
ENDMDL
MODEL 2
REMARK VINA RESULT:     -11.1      2.232      3.049
REMARK  Name = C:\Users\Docking\Desktop\test protocol\1iep_ligandH.pdb
REMARK  8 active torsions:
REMARK  status: ('A' for Active; 'I' for Inactive)
REMARK    1  A    between atoms: _5  and  _11
REMARK    2  A    between atoms: _19  and  _21
REMARK    3  A    between atoms: _22  and  _66
REMARK    4  A    between atoms: _27  and  _30
REMARK    5  A    between atoms: _32  and  _33
REMARK    6  A    between atoms: _38  and  _43
REMARK    7  A    between atoms: _43  and  _46
REMARK    8  A    between atoms: _53  and  _55
REMARK                            x       y       z     vdW  Elec       q    Type
REMARK                         _______ _______ _______ _____ _____    ______ ____
ROOT
ATOM     10  C   UNL     1     -14.932  22.187 -25.372  0.00  0.00    +0.038 A 
ATOM     11  C   UNL     1     -14.940  21.299 -26.477  0.00  0.00    +0.047 A 
ATOM     12  C   UNL     1     -15.946  20.254 -26.596  0.00  0.00    +0.035 A 
ATOM     32  C   UNL     1     -16.931  20.146 -25.571  0.00  0.00    +0.024 A 
ATOM     33  C   UNL     1     -16.937  21.040 -24.440  0.00  0.00    +0.007 A 
ATOM     34  C   UNL     1     -15.946  22.070 -24.317  0.00  0.00    -0.029 A 
ATOM     35  C   UNL     1     -15.997  22.996 -23.079  0.00  0.00    +0.045 C 
ENDROOT
BRANCH  10   9
ATOM      4  C   UNL     1     -13.409  26.701 -25.959  0.00  0.00    +0.077 A 
ATOM      5  C   UNL     1     -14.683  27.128 -26.460  0.00  0.00    +0.048 A 
ATOM      6  C   UNL     1     -15.702  26.154 -26.557  0.00  0.00    +0.116 A 
ATOM      7  N   UNL     1     -15.454  24.853 -26.179  0.00  0.00    -0.223 NA
ATOM      8  C   UNL     1     -14.213  24.473 -25.702  0.00  0.00    +0.220 A 
ATOM      9  N   UNL     1     -13.943  23.172 -25.308  0.00  0.00    -0.283 N 
ATOM     36  H   UNL     1     -13.013  22.930 -24.968  0.00  0.00    +0.155 HD
ATOM     37  N   UNL     1     -13.223  25.384 -25.600  0.00  0.00    -0.214 NA
BRANCH   4   3
ATOM      1  C   UNL     1     -11.135  29.883 -25.882  0.00  0.00    +0.020 A 
ATOM      2  C   UNL     1     -12.299  29.046 -26.057  0.00  0.00    +0.013 A 
ATOM      3  C   UNL     1     -12.234  27.613 -25.794  0.00  0.00    +0.019 A 
ATOM     38  C   UNL     1     -10.965  27.056 -25.351  0.00  0.00    +0.120 A 
ATOM     39  N   UNL     1      -9.860  27.886 -25.192  0.00  0.00    -0.263 NA
ATOM     40  C   UNL     1      -9.911  29.266 -25.444  0.00  0.00    +0.111 A 
ENDBRANCH   4   3
ENDBRANCH  10   9
BRANCH  12  13
ATOM     13  N   UNL     1     -15.999  19.318 -27.691  0.00  0.00    -0.281 N 
ATOM     14  C   UNL     1     -15.874  17.939 -27.639  0.00  0.00    +0.248 C 
ATOM     30  O   UNL     1     -15.482  17.317 -26.664  0.00  0.00    -0.270 OA
ATOM     31  H   UNL     1     -16.147  19.720 -28.617  0.00  0.00    +0.155 HD
BRANCH  14  15
ATOM     15  C   UNL     1     -16.221  17.137 -28.852  0.00  0.00    +0.037 A 
ATOM     16  C   UNL     1     -17.337  16.188 -28.842  0.00  0.00    +0.013 A 
ATOM     17  C   UNL     1     -17.640  15.415 -30.019  0.00  0.00    +0.005 A 
ATOM     18  C   UNL     1     -16.824  15.588 -31.219  0.00  0.00    -0.033 A 
ATOM     28  C   UNL     1     -15.726  16.540 -31.204  0.00  0.00    +0.005 A 
ATOM     29  C   UNL     1     -15.426  17.299 -30.051  0.00  0.00    +0.013 A 
BRANCH  18  19
ATOM     19  C   UNL     1     -17.062  14.789 -32.514  0.00  0.00    +0.119 C 
BRANCH  19  20
ATOM     20  N   UNL     1     -16.587  15.400 -33.792  0.00  0.00    -0.302 NA
ATOM     21  C   UNL     1     -17.356  16.678 -34.137  0.00  0.00    +0.066 C 
ATOM     22  C   UNL     1     -16.831  17.317 -35.465  0.00  0.00    -0.064 C 
ATOM     23  N   UNL     1     -16.942  16.295 -36.597  0.00  0.00    +0.379 N 
ATOM     24  C   UNL     1     -16.503  16.911 -37.858  0.00  0.00    -0.096 C 
ATOM     25  H   UNL     1     -18.018  16.028 -36.708  0.00  0.00    -0.082 HD
ATOM     26  C   UNL     1     -16.182  15.020 -36.260  0.00  0.00    -0.064 C 
ATOM     27  C   UNL     1     -16.691  14.410 -34.925  0.00  0.00    +0.066 C 
ENDBRANCH  19  20
ENDBRANCH  18  19
ENDBRANCH  14  15
ENDBRANCH  12  13
TORSDOF 6
ENDMDL
MODEL 3
REMARK VINA RESULT:     -11.1      6.607     12.779
REMARK  Name = C:\Users\Docking\Desktop\test protocol\1iep_ligandH.pdb
REMARK  8 active torsions:
REMARK  status: ('A' for Active; 'I' for Inactive)
REMARK    1  A    between atoms: _5  and  _11
REMARK    2  A    between atoms: _19  and  _21
REMARK    3  A    between atoms: _22  and  _66
REMARK    4  A    between atoms: _27  and  _30
REMARK    5  A    between atoms: _32  and  _33
REMARK    6  A    between atoms: _38  and  _43
REMARK    7  A    between atoms: _43  and  _46
REMARK    8  A    between atoms: _53  and  _55
REMARK                            x       y       z     vdW  Elec       q    Type
REMARK                         _______ _______ _______ _____ _____    ______ ____
ROOT
ATOM     10  C   UNL     1     -14.139  23.857 -25.729  0.00  0.00    +0.038 A 
ATOM     11  C   UNL     1     -13.015  23.926 -24.866  0.00  0.00    +0.047 A 
ATOM     12  C   UNL     1     -12.795  25.078 -24.007  0.00  0.00    +0.035 A 
ATOM     32  C   UNL     1     -13.742  26.143 -24.049  0.00  0.00    +0.024 A 
ATOM     33  C   UNL     1     -14.890  26.090 -24.920  0.00  0.00    +0.007 A 
ATOM     34  C   UNL     1     -15.111  24.957 -25.772  0.00  0.00    -0.029 A 
ATOM     35  C   UNL     1     -16.355  24.957 -26.691  0.00  0.00    +0.045 C 
ENDROOT
BRANCH  10   9
ATOM      4  C   UNL     1     -16.106  19.582 -26.674  0.00  0.00    +0.077 A 
ATOM      5  C   UNL     1     -16.854  19.590 -25.450  0.00  0.00    +0.048 A 
ATOM      6  C   UNL     1     -16.699  20.709 -24.601  0.00  0.00    +0.116 A 
ATOM      7  N   UNL     1     -15.857  21.738 -24.960  0.00  0.00    -0.223 NA
ATOM      8  C   UNL     1     -15.148  21.699 -26.147  0.00  0.00    +0.220 A 
ATOM      9  N   UNL     1     -14.301  22.726 -26.532  0.00  0.00    -0.283 N 
ATOM     36  H   UNL     1     -13.791  22.656 -27.412  0.00  0.00    +0.155 HD
ATOM     37  N   UNL     1     -15.278  20.640 -26.974  0.00  0.00    -0.214 NA
BRANCH   4   3
ATOM      1  C   UNL     1     -17.090  16.290 -28.544  0.00  0.00    +0.020 A 
ATOM      2  C   UNL     1     -17.071  17.336 -27.547  0.00  0.00    +0.013 A 
ATOM      3  C   UNL     1     -16.166  18.472 -27.676  0.00  0.00    +0.019 A 
ATOM     38  C   UNL     1     -15.287  18.519 -28.834  0.00  0.00    +0.120 A 
ATOM     39  N   UNL     1     -15.326  17.496 -29.777  0.00  0.00    -0.263 NA
ATOM     40  C   UNL     1     -16.191  16.398 -29.663  0.00  0.00    +0.111 A 
ENDBRANCH   4   3
ENDBRANCH  10   9
BRANCH  12  13
ATOM     13  N   UNL     1     -11.668  25.207 -23.117  0.00  0.00    -0.281 N 
ATOM     14  C   UNL     1     -11.254  24.324 -22.134  0.00  0.00    +0.248 C 
ATOM     30  O   UNL     1     -11.918  23.383 -21.725  0.00  0.00    -0.270 OA
ATOM     31  H   UNL     1     -11.108  26.053 -23.224  0.00  0.00    +0.155 HD
BRANCH  14  15
ATOM     15  C   UNL     1      -9.913  24.522 -21.504  0.00  0.00    +0.037 A 
ATOM     16  C   UNL     1      -9.547  23.833 -20.264  0.00  0.00    +0.013 A 
ATOM     17  C   UNL     1      -8.253  24.055 -19.668  0.00  0.00    +0.005 A 
ATOM     18  C   UNL     1      -7.315  24.970 -20.313  0.00  0.00    -0.033 A 
ATOM     28  C   UNL     1      -7.702  25.636 -21.546  0.00  0.00    +0.005 A 
ATOM     29  C   UNL     1      -8.969  25.422 -22.132  0.00  0.00    +0.013 A 
BRANCH  18  19
ATOM     19  C   UNL     1      -5.921  25.282 -19.737  0.00  0.00    +0.119 C 
BRANCH  19  20
ATOM     20  N   UNL     1      -4.944  24.156 -19.660  0.00  0.00    -0.302 NA
ATOM     21  C   UNL     1      -5.151  23.138 -20.785  0.00  0.00    +0.066 C 
ATOM     22  C   UNL     1      -4.107  21.978 -20.703  0.00  0.00    -0.064 C 
ATOM     23  N   UNL     1      -4.208  21.300 -19.335  0.00  0.00    +0.379 N 
ATOM     24  C   UNL     1      -3.267  20.172 -19.275  0.00  0.00    -0.096 C 
ATOM     25  H   UNL     1      -5.239  20.887 -19.238  0.00  0.00    -0.082 HD
ATOM     26  C   UNL     1      -4.006  22.306 -18.210  0.00  0.00    -0.064 C 
ATOM     27  C   UNL     1      -5.030  23.470 -18.318  0.00  0.00    +0.066 C 
ENDBRANCH  19  20
ENDBRANCH  18  19
ENDBRANCH  14  15
ENDBRANCH  12  13
TORSDOF 6
ENDMDL
MODEL 4
REMARK VINA RESULT:     -10.7      4.046      6.006
REMARK  Name = C:\Users\Docking\Desktop\test protocol\1iep_ligandH.pdb
REMARK  8 active torsions:
REMARK  status: ('A' for Active; 'I' for Inactive)
REMARK    1  A    between atoms: _5  and  _11
REMARK    2  A    between atoms: _19  and  _21
REMARK    3  A    between atoms: _22  and  _66
REMARK    4  A    between atoms: _27  and  _30
REMARK    5  A    between atoms: _32  and  _33
REMARK    6  A    between atoms: _38  and  _43
REMARK    7  A    between atoms: _43  and  _46
REMARK    8  A    between atoms: _53  and  _55
REMARK                            x       y       z     vdW  Elec       q    Type
REMARK                         _______ _______ _______ _____ _____    ______ ____
ROOT
ATOM     10  C   UNL     1     -14.646  25.636 -24.205  0.00  0.00    +0.038 A 
ATOM     11  C   UNL     1     -14.721  24.292 -24.652  0.00  0.00    +0.047 A 
ATOM     12  C   UNL     1     -15.500  23.932 -25.826  0.00  0.00    +0.035 A 
ATOM     32  C   UNL     1     -16.187  24.968 -26.524  0.00  0.00    +0.024 A 
ATOM     33  C   UNL     1     -16.123  26.339 -26.083  0.00  0.00    +0.007 A 
ATOM     34  C   UNL     1     -15.358  26.699 -24.924  0.00  0.00    -0.029 A 
ATOM     35  C   UNL     1     -15.330  28.184 -24.493  0.00  0.00    +0.045 C 
ENDROOT
BRANCH  10   9
ATOM      4  C   UNL     1     -10.596  27.107 -22.089  0.00  0.00    +0.077 A 
ATOM      5  C   UNL     1      -9.934  27.289 -23.349  0.00  0.00    +0.048 A 
ATOM      6  C   UNL     1     -10.669  26.986 -24.518  0.00  0.00    +0.116 A 
ATOM      7  N   UNL     1     -11.968  26.536 -24.421  0.00  0.00    -0.223 NA
ATOM      8  C   UNL     1     -12.575  26.369 -23.191  0.00  0.00    +0.220 A 
ATOM      9  N   UNL     1     -13.883  25.925 -23.071  0.00  0.00    -0.283 N 
ATOM     36  H   UNL     1     -14.293  25.809 -22.144  0.00  0.00    +0.155 HD
ATOM     37  N   UNL     1     -11.895  26.650 -22.060  0.00  0.00    -0.214 NA
BRANCH   4   3
ATOM      1  C   UNL     1      -9.962  28.354 -18.436  0.00  0.00    +0.020 A 
ATOM      2  C   UNL     1     -10.628  28.110 -19.695  0.00  0.00    +0.013 A 
ATOM      3  C   UNL     1      -9.953  27.387 -20.766  0.00  0.00    +0.019 A 
ATOM     38  C   UNL     1      -8.596  26.920 -20.529  0.00  0.00    +0.120 A 
ATOM     39  N   UNL     1      -7.980  27.171 -19.307  0.00  0.00    -0.263 NA
ATOM     40  C   UNL     1      -8.618  27.867 -18.270  0.00  0.00    +0.111 A 
ENDBRANCH   4   3
ENDBRANCH  10   9
BRANCH  12  13
ATOM     13  N   UNL     1     -15.620  22.584 -26.322  0.00  0.00    -0.281 N 
ATOM     14  C   UNL     1     -15.744  21.415 -25.590  0.00  0.00    +0.248 C 
ATOM     30  O   UNL     1     -15.555  21.331 -24.385  0.00  0.00    -0.270 OA
ATOM     31  H   UNL     1     -15.612  22.478 -27.337  0.00  0.00    +0.155 HD
BRANCH  14  15
ATOM     15  C   UNL     1     -16.118  20.154 -26.300  0.00  0.00    +0.037 A 
ATOM     16  C   UNL     1     -17.352  19.434 -25.972  0.00  0.00    +0.013 A 
ATOM     17  C   UNL     1     -17.680  18.211 -26.661  0.00  0.00    +0.005 A 
ATOM     18  C   UNL     1     -16.772  17.700 -27.685  0.00  0.00    -0.033 A 
ATOM     28  C   UNL     1     -15.558  18.437 -27.994  0.00  0.00    +0.005 A 
ATOM     29  C   UNL     1     -15.232  19.635 -27.320  0.00  0.00    +0.013 A 
BRANCH  18  19
ATOM     19  C   UNL     1     -17.032  16.392 -28.455  0.00  0.00    +0.119 C 
BRANCH  19  20
ATOM     20  N   UNL     1     -16.470  16.288 -29.835  0.00  0.00    -0.302 NA
ATOM     21  C   UNL     1     -17.310  17.059 -30.857  0.00  0.00    +0.066 C 
ATOM     22  C   UNL     1     -16.695  16.958 -32.291  0.00  0.00    -0.064 C 
ATOM     23  N   UNL     1     -16.576  15.486 -32.689  0.00  0.00    +0.379 N 
ATOM     24  C   UNL     1     -16.053  15.389 -34.060  0.00  0.00    -0.096 C 
ATOM     25  H   UNL     1     -17.603  15.051 -32.687  0.00  0.00    -0.082 HD
ATOM     26  C   UNL     1     -15.745  14.711 -31.677  0.00  0.00    -0.064 C 
ATOM     27  C   UNL     1     -16.348  14.842 -30.250  0.00  0.00    +0.066 C 
ENDBRANCH  19  20
ENDBRANCH  18  19
ENDBRANCH  14  15
ENDBRANCH  12  13
TORSDOF 6
ENDMDL
MODEL 5
REMARK VINA RESULT:     -10.7      4.038      5.999
REMARK  Name = C:\Users\Docking\Desktop\test protocol\1iep_ligandH.pdb
REMARK  8 active torsions:
REMARK  status: ('A' for Active; 'I' for Inactive)
REMARK    1  A    between atoms: _5  and  _11
REMARK    2  A    between atoms: _19  and  _21
REMARK    3  A    between atoms: _22  and  _66
REMARK    4  A    between atoms: _27  and  _30
REMARK    5  A    between atoms: _32  and  _33
REMARK    6  A    between atoms: _38  and  _43
REMARK    7  A    between atoms: _43  and  _46
REMARK    8  A    between atoms: _53  and  _55
REMARK                            x       y       z     vdW  Elec       q    Type
REMARK                         _______ _______ _______ _____ _____    ______ ____
ROOT
ATOM     10  C   UNL     1     -13.700  25.342 -25.117  0.00  0.00    +0.038 A 
ATOM     11  C   UNL     1     -13.793  23.994 -25.546  0.00  0.00    +0.047 A 
ATOM     12  C   UNL     1     -15.016  23.476 -26.141  0.00  0.00    +0.035 A 
ATOM     32  C   UNL     1     -16.124  24.360 -26.285  0.00  0.00    +0.024 A 
ATOM     33  C   UNL     1     -16.047  25.734 -25.853  0.00  0.00    +0.007 A 
ATOM     34  C   UNL     1     -14.845  26.249 -25.263  0.00  0.00    -0.029 A 
ATOM     35  C   UNL     1     -14.821  27.728 -24.812  0.00  0.00    +0.045 C 
ENDROOT
BRANCH  10   9
ATOM      4  C   UNL     1     -10.157  25.004 -21.897  0.00  0.00    +0.077 A 
ATOM      5  C   UNL     1     -10.757  23.863 -21.268  0.00  0.00    +0.048 A 
ATOM      6  C   UNL     1     -11.981  23.398 -21.799  0.00  0.00    +0.116 A 
ATOM      7  N   UNL     1     -12.553  24.035 -22.879  0.00  0.00    -0.223 NA
ATOM      8  C   UNL     1     -11.949  25.135 -23.461  0.00  0.00    +0.220 A 
ATOM      9  N   UNL     1     -12.502  25.786 -24.552  0.00  0.00    -0.283 N 
ATOM     36  H   UNL     1     -12.029  26.598 -24.948  0.00  0.00    +0.155 HD
ATOM     37  N   UNL     1     -10.780  25.599 -22.971  0.00  0.00    -0.214 NA
BRANCH   4   3
ATOM      1  C   UNL     1      -7.035  25.987 -19.754  0.00  0.00    +0.020 A 
ATOM      2  C   UNL     1      -8.289  25.377 -20.133  0.00  0.00    +0.013 A 
ATOM      3  C   UNL     1      -8.862  25.611 -21.452  0.00  0.00    +0.019 A 
ATOM     38  C   UNL     1      -8.136  26.474 -22.372  0.00  0.00    +0.120 A 
ATOM     39  N   UNL     1      -6.932  27.049 -21.978  0.00  0.00    -0.263 NA
ATOM     40  C   UNL     1      -6.371  26.832 -20.710  0.00  0.00    +0.111 A 
ENDBRANCH   4   3
ENDBRANCH  10   9
BRANCH  12  13
ATOM     13  N   UNL     1     -15.171  22.114 -26.589  0.00  0.00    -0.281 N 
ATOM     14  C   UNL     1     -15.728  21.049 -25.899  0.00  0.00    +0.248 C 
ATOM     30  O   UNL     1     -15.985  21.058 -24.704  0.00  0.00    -0.270 OA
ATOM     31  H   UNL     1     -14.830  21.910 -27.528  0.00  0.00    +0.155 HD
BRANCH  14  15
ATOM     15  C   UNL     1     -16.030  19.787 -26.641  0.00  0.00    +0.037 A 
ATOM     16  C   UNL     1     -15.178  19.331 -27.742  0.00  0.00    +0.013 A 
ATOM     17  C   UNL     1     -15.502  18.119 -28.452  0.00  0.00    +0.005 A 
ATOM     18  C   UNL     1     -16.684  17.354 -28.061  0.00  0.00    -0.033 A 
ATOM     28  C   UNL     1     -17.508  17.827 -26.962  0.00  0.00    +0.005 A 
ATOM     29  C   UNL     1     -17.195  19.015 -26.264  0.00  0.00    +0.013 A 
BRANCH  18  19
ATOM     19  C   UNL     1     -17.117  16.060 -28.777  0.00  0.00    +0.119 C 
BRANCH  19  20
ATOM     20  N   UNL     1     -16.612  15.845 -30.166  0.00  0.00    -0.302 NA
ATOM     21  C   UNL     1     -17.608  16.334 -31.221  0.00  0.00    +0.066 C 
ATOM     22  C   UNL     1     -17.053  16.121 -32.668  0.00  0.00    -0.064 C 
ATOM     23  N   UNL     1     -16.728  14.641 -32.874  0.00  0.00    +0.379 N 
ATOM     24  C   UNL     1     -16.262  14.429 -34.252  0.00  0.00    -0.096 C 
ATOM     25  H   UNL     1     -17.674  14.066 -32.745  0.00  0.00    -0.082 HD
ATOM     26  C   UNL     1     -15.741  14.146 -31.827  0.00  0.00    -0.064 C 
ATOM     27  C   UNL     1     -16.288  14.389 -30.393  0.00  0.00    +0.066 C 
ENDBRANCH  19  20
ENDBRANCH  18  19
ENDBRANCH  14  15
ENDBRANCH  12  13
TORSDOF 6
ENDMDL
