MODEL 1
REMARK VINA RESULT:      -7.6      0.000      0.000
REMARK  Name = C:\Users\Docking\Desktop\test protocol\1iep_ligandH.pdb
REMARK  8 active torsions:
REMARK  status: ('A' for Active; 'I' for Inactive)
REMARK    1  A    between atoms: _5  and  _11
REMARK    2  A    between atoms: _19  and  _21
REMARK    3  A    between atoms: _22  and  _66
REMARK    4  A    between atoms: _27  and  _30
REMARK    5  A    between atoms: _32  and  _33
REMARK    6  A    between atoms: _38  and  _43
REMARK    7  A    between atoms: _43  and  _46
REMARK    8  A    between atoms: _53  and  _55
REMARK                            x       y       z     vdW  Elec       q    Type
REMARK                         _______ _______ _______ _____ _____    ______ ____
ROOT
ATOM     10  C   UNL     1      37.901  -5.178  19.525  0.00  0.00    +0.038 A 
ATOM     11  C   UNL     1      39.052  -5.921  19.889  0.00  0.00    +0.047 A 
ATOM     12  C   UNL     1      40.385  -5.475  19.514  0.00  0.00    +0.035 A 
ATOM     32  C   UNL     1      40.509  -4.265  18.771  0.00  0.00    +0.024 A 
ATOM     33  C   UNL     1      39.349  -3.498  18.392  0.00  0.00    +0.007 A 
ATOM     34  C   UNL     1      38.032  -3.934  18.756  0.00  0.00    -0.029 A 
ATOM     35  C   UNL     1      36.823  -3.074  18.317  0.00  0.00    +0.045 C 
ENDROOT
BRANCH  10   9
ATOM      4  C   UNL     1      33.997  -7.880  18.820  0.00  0.00    +0.077 A 
ATOM      5  C   UNL     1      34.488  -8.367  17.563  0.00  0.00    +0.048 A 
ATOM      6  C   UNL     1      35.747  -7.892  17.131  0.00  0.00    +0.116 A 
ATOM      7  N   UNL     1      36.453  -6.997  17.905  0.00  0.00    -0.223 NA
ATOM      8  C   UNL     1      35.949  -6.546  19.112  0.00  0.00    +0.220 A 
ATOM      9  N   UNL     1      36.645  -5.652  19.911  0.00  0.00    -0.283 N 
ATOM     36  H   UNL     1      36.236  -5.338  20.790  0.00  0.00    +0.155 HD
ATOM     37  N   UNL     1      34.749  -6.983  19.546  0.00  0.00    -0.214 NA
BRANCH   4   3
ATOM      1  C   UNL     1      31.288  -9.568  21.080  0.00  0.00    +0.020 A 
ATOM      2  C   UNL     1      32.579  -9.203  20.545  0.00  0.00    +0.013 A 
ATOM      3  C   UNL     1      32.685  -8.291  19.413  0.00  0.00    +0.019 A 
ATOM     38  C   UNL     1      31.456  -7.760  18.843  0.00  0.00    +0.120 A 
ATOM     39  N   UNL     1      30.227  -8.130  19.379  0.00  0.00    -0.263 NA
ATOM     40  C   UNL     1      30.112  -9.009  20.466  0.00  0.00    +0.111 A 
ENDBRANCH   4   3
ENDBRANCH  10   9
BRANCH  12  13
ATOM     13  N   UNL     1      41.591  -6.193  19.848  0.00  0.00    -0.281 N 
ATOM     14  C   UNL     1      42.615  -6.579  19.000  0.00  0.00    +0.248 C 
ATOM     30  O   UNL     1      42.549  -6.553  17.780  0.00  0.00    -0.270 OA
ATOM     31  H   UNL     1      41.702  -6.447  20.830  0.00  0.00    +0.155 HD
BRANCH  14  15
ATOM     15  C   UNL     1      43.892  -7.081  19.591  0.00  0.00    +0.037 A 
ATOM     16  C   UNL     1      44.657  -8.155  18.951  0.00  0.00    +0.013 A 
ATOM     17  C   UNL     1      45.877  -8.632  19.552  0.00  0.00    +0.005 A 
ATOM     18  C   UNL     1      46.342  -8.033  20.801  0.00  0.00    -0.033 A 
ATOM     28  C   UNL     1      45.567  -6.966  21.412  0.00  0.00    +0.005 A 
ATOM     29  C   UNL     1      44.370  -6.497  20.827  0.00  0.00    +0.013 A 
BRANCH  18  19
ATOM     19  C   UNL     1      47.621  -8.494  21.524  0.00  0.00    +0.119 C 
BRANCH  19  20
ATOM     20  N   UNL     1      48.820  -7.609  21.423  0.00  0.00    -0.302 NA
ATOM     21  C   UNL     1      49.768  -8.051  20.305  0.00  0.00    +0.066 C 
ATOM     22  C   UNL     1      51.005  -7.101  20.199  0.00  0.00    -0.064 C 
ATOM     23  N   UNL     1      51.733  -7.064  21.543  0.00  0.00    +0.379 N 
ATOM     24  C   UNL     1      52.930  -6.217  21.430  0.00  0.00    -0.096 C 
ATOM     25  H   UNL     1      52.073  -8.101  21.772  0.00  0.00    -0.082 HD
ATOM     26  C   UNL     1      50.797  -6.628  22.661  0.00  0.00    -0.064 C 
ATOM     27  C   UNL     1      49.556  -7.561  22.739  0.00  0.00    +0.066 C 
ENDBRANCH  19  20
ENDBRANCH  18  19
ENDBRANCH  14  15
ENDBRANCH  12  13
TORSDOF 6
ENDMDL
MODEL 2
REMARK VINA RESULT:      -7.5      1.750      2.383
REMARK  Name = C:\Users\Docking\Desktop\test protocol\1iep_ligandH.pdb
REMARK  8 active torsions:
REMARK  status: ('A' for Active; 'I' for Inactive)
REMARK    1  A    between atoms: _5  and  _11
REMARK    2  A    between atoms: _19  and  _21
REMARK    3  A    between atoms: _22  and  _66
REMARK    4  A    between atoms: _27  and  _30
REMARK    5  A    between atoms: _32  and  _33
REMARK    6  A    between atoms: _38  and  _43
REMARK    7  A    between atoms: _43  and  _46
REMARK    8  A    between atoms: _53  and  _55
REMARK                            x       y       z     vdW  Elec       q    Type
REMARK                         _______ _______ _______ _____ _____    ______ ____
ROOT
ATOM     10  C   UNL     1      36.351  -5.345  20.039  0.00  0.00    +0.038 A 
ATOM     11  C   UNL     1      37.652  -5.808  20.366  0.00  0.00    +0.047 A 
ATOM     12  C   UNL     1      38.838  -5.162  19.824  0.00  0.00    +0.035 A 
ATOM     32  C   UNL     1      38.663  -4.047  18.955  0.00  0.00    +0.024 A 
ATOM     33  C   UNL     1      37.348  -3.564  18.611  0.00  0.00    +0.007 A 
ATOM     34  C   UNL     1      36.174  -4.198  19.140  0.00  0.00    -0.029 A 
ATOM     35  C   UNL     1      34.790  -3.642  18.733  0.00  0.00    +0.045 C 
ENDROOT
BRANCH  10   9
ATOM      4  C   UNL     1      32.885  -8.661  19.869  0.00  0.00    +0.077 A 
ATOM      5  C   UNL     1      33.291  -9.104  18.567  0.00  0.00    +0.048 A 
ATOM      6  C   UNL     1      34.392  -8.448  17.972  0.00  0.00    +0.116 A 
ATOM      7  N   UNL     1      35.032  -7.426  18.639  0.00  0.00    -0.223 NA
ATOM      8  C   UNL     1      34.614  -7.022  19.894  0.00  0.00    +0.220 A 
ATOM      9  N   UNL     1      35.247  -6.002  20.587  0.00  0.00    -0.283 N 
ATOM     36  H   UNL     1      34.904  -5.729  21.507  0.00  0.00    +0.155 HD
ATOM     37  N   UNL     1      33.564  -7.632  20.483  0.00  0.00    -0.214 NA
BRANCH   4   3
ATOM      1  C   UNL     1      30.787 -10.741  22.432  0.00  0.00    +0.020 A 
ATOM      2  C   UNL     1      31.925 -10.195  21.731  0.00  0.00    +0.013 A 
ATOM      3  C   UNL     1      31.742  -9.258  20.629  0.00  0.00    +0.019 A 
ATOM     38  C   UNL     1      30.382  -8.891  20.261  0.00  0.00    +0.120 A 
ATOM     39  N   UNL     1      29.305  -9.435  20.954  0.00  0.00    -0.263 NA
ATOM     40  C   UNL     1      29.470 -10.339  22.014  0.00  0.00    +0.111 A 
ENDBRANCH   4   3
ENDBRANCH  10   9
BRANCH  12  13
ATOM     13  N   UNL     1      40.183  -5.592  20.114  0.00  0.00    -0.281 N 
ATOM     14  C   UNL     1      40.907  -6.600  19.497  0.00  0.00    +0.248 C 
ATOM     30  O   UNL     1      40.428  -7.431  18.740  0.00  0.00    -0.270 OA
ATOM     31  H   UNL     1      40.660  -5.094  20.866  0.00  0.00    +0.155 HD
BRANCH  14  15
ATOM     15  C   UNL     1      42.372  -6.708  19.771  0.00  0.00    +0.037 A 
ATOM     16  C   UNL     1      43.276  -7.365  18.824  0.00  0.00    +0.013 A 
ATOM     17  C   UNL     1      44.683  -7.471  19.121  0.00  0.00    +0.005 A 
ATOM     18  C   UNL     1      45.194  -6.917  20.372  0.00  0.00    -0.033 A 
ATOM     28  C   UNL     1      44.276  -6.266  21.292  0.00  0.00    +0.005 A 
ATOM     29  C   UNL     1      42.896  -6.161  21.005  0.00  0.00    +0.013 A 
BRANCH  18  19
ATOM     19  C   UNL     1      46.676  -7.004  20.781  0.00  0.00    +0.119 C 
BRANCH  19  20
ATOM     20  N   UNL     1      47.454  -8.179  20.288  0.00  0.00    -0.302 NA
ATOM     21  C   UNL     1      47.056  -9.473  21.004  0.00  0.00    +0.066 C 
ATOM     22  C   UNL     1      47.864 -10.696  20.460  0.00  0.00    -0.064 C 
ATOM     23  N   UNL     1      49.361 -10.427  20.620  0.00  0.00    +0.379 N 
ATOM     24  C   UNL     1      50.121 -11.599  20.163  0.00  0.00    -0.096 C 
ATOM     25  H   UNL     1      49.566 -10.294  21.708  0.00  0.00    -0.082 HD
ATOM     26  C   UNL     1      49.765  -9.141  19.913  0.00  0.00    -0.064 C 
ATOM     27  C   UNL     1      48.936  -7.937  20.441  0.00  0.00    +0.066 C 
ENDBRANCH  19  20
ENDBRANCH  18  19
ENDBRANCH  14  15
ENDBRANCH  12  13
TORSDOF 6
ENDMDL
MODEL 3
REMARK VINA RESULT:      -7.4     14.702     21.149
REMARK  Name = C:\Users\Docking\Desktop\test protocol\1iep_ligandH.pdb
REMARK  8 active torsions:
REMARK  status: ('A' for Active; 'I' for Inactive)
REMARK    1  A    between atoms: _5  and  _11
REMARK    2  A    between atoms: _19  and  _21
REMARK    3  A    between atoms: _22  and  _66
REMARK    4  A    between atoms: _27  and  _30
REMARK    5  A    between atoms: _32  and  _33
REMARK    6  A    between atoms: _38  and  _43
REMARK    7  A    between atoms: _43  and  _46
REMARK    8  A    between atoms: _53  and  _55
REMARK                            x       y       z     vdW  Elec       q    Type
REMARK                         _______ _______ _______ _____ _____    ______ ____
ROOT
ATOM     10  C   UNL     1      22.265  -8.583  26.813  0.00  0.00    +0.038 A 
ATOM     11  C   UNL     1      22.897  -8.478  28.078  0.00  0.00    +0.047 A 
ATOM     12  C   UNL     1      22.118  -8.357  29.301  0.00  0.00    +0.035 A 
ATOM     32  C   UNL     1      20.697  -8.349  29.199  0.00  0.00    +0.024 A 
ATOM     33  C   UNL     1      20.037  -8.454  27.921  0.00  0.00    +0.007 A 
ATOM     34  C   UNL     1      20.800  -8.571  26.711  0.00  0.00    -0.029 A 
ATOM     35  C   UNL     1      20.041  -8.674  25.368  0.00  0.00    +0.045 C 
ENDROOT
BRANCH  10   9
ATOM      4  C   UNL     1      26.027  -7.286  24.131  0.00  0.00    +0.077 A 
ATOM      5  C   UNL     1      26.425  -6.277  25.070  0.00  0.00    +0.048 A 
ATOM      6  C   UNL     1      25.630  -6.120  26.228  0.00  0.00    +0.116 A 
ATOM      7  N   UNL     1      24.522  -6.917  26.421  0.00  0.00    -0.223 NA
ATOM      8  C   UNL     1      24.166  -7.879  25.494  0.00  0.00    +0.220 A 
ATOM      9  N   UNL     1      23.061  -8.697  25.672  0.00  0.00    -0.283 N 
ATOM     36  H   UNL     1      22.827  -9.390  24.961  0.00  0.00    +0.155 HD
ATOM     37  N   UNL     1      24.908  -8.048  24.380  0.00  0.00    -0.214 NA
BRANCH   4   3
ATOM      1  C   UNL     1      28.790  -8.379  21.586  0.00  0.00    +0.020 A 
ATOM      2  C   UNL     1      28.120  -8.117  22.839  0.00  0.00    +0.013 A 
ATOM      3  C   UNL     1      26.767  -7.575  22.862  0.00  0.00    +0.019 A 
ATOM     38  C   UNL     1      26.115  -7.308  21.589  0.00  0.00    +0.120 A 
ATOM     39  N   UNL     1      26.785  -7.568  20.398  0.00  0.00    -0.263 NA
ATOM     40  C   UNL     1      28.088  -8.088  20.364  0.00  0.00    +0.111 A 
ENDBRANCH   4   3
ENDBRANCH  10   9
BRANCH  12  13
ATOM     13  N   UNL     1      22.705  -8.239  30.613  0.00  0.00    -0.281 N 
ATOM     14  C   UNL     1      23.001  -9.254  31.508  0.00  0.00    +0.248 C 
ATOM     30  O   UNL     1      22.608 -10.406  31.401  0.00  0.00    -0.270 OA
ATOM     31  H   UNL     1      22.929  -7.292  30.919  0.00  0.00    +0.155 HD
BRANCH  14  15
ATOM     15  C   UNL     1      23.845  -8.941  32.701  0.00  0.00    +0.037 A 
ATOM     16  C   UNL     1      24.542  -9.998  33.438  0.00  0.00    +0.013 A 
ATOM     17  C   UNL     1      25.335  -9.670  34.596  0.00  0.00    +0.005 A 
ATOM     18  C   UNL     1      25.437  -8.277  35.024  0.00  0.00    -0.033 A 
ATOM     28  C   UNL     1      24.739  -7.247  34.272  0.00  0.00    +0.005 A 
ATOM     29  C   UNL     1      23.960  -7.565  33.137  0.00  0.00    +0.013 A 
BRANCH  18  19
ATOM     19  C   UNL     1      26.244  -7.839  36.260  0.00  0.00    +0.119 C 
BRANCH  19  20
ATOM     20  N   UNL     1      25.703  -6.700  37.061  0.00  0.00    -0.302 NA
ATOM     21  C   UNL     1      26.734  -5.582  37.239  0.00  0.00    +0.066 C 
ATOM     22  C   UNL     1      26.144  -4.389  38.060  0.00  0.00    -0.064 C 
ATOM     23  N   UNL     1      25.658  -4.899  39.418  0.00  0.00    +0.379 N 
ATOM     24  C   UNL     1      25.156  -3.770  40.215  0.00  0.00    -0.096 C 
ATOM     25  H   UNL     1      26.538  -5.327  39.953  0.00  0.00    -0.082 HD
ATOM     26  C   UNL     1      24.634  -6.013  39.250  0.00  0.00    -0.064 C 
ATOM     27  C   UNL     1      25.221  -7.180  38.408  0.00  0.00    +0.066 C 
ENDBRANCH  19  20
ENDBRANCH  18  19
ENDBRANCH  14  15
ENDBRANCH  12  13
TORSDOF 6
ENDMDL
MODEL 4
REMARK VINA RESULT:      -7.2     21.271     25.985
REMARK  Name = C:\Users\Docking\Desktop\test protocol\1iep_ligandH.pdb
REMARK  8 active torsions:
REMARK  status: ('A' for Active; 'I' for Inactive)
REMARK    1  A    between atoms: _5  and  _11
REMARK    2  A    between atoms: _19  and  _21
REMARK    3  A    between atoms: _22  and  _66
REMARK    4  A    between atoms: _27  and  _30
REMARK    5  A    between atoms: _32  and  _33
REMARK    6  A    between atoms: _38  and  _43
REMARK    7  A    between atoms: _43  and  _46
REMARK    8  A    between atoms: _53  and  _55
REMARK                            x       y       z     vdW  Elec       q    Type
REMARK                         _______ _______ _______ _____ _____    ______ ____
ROOT
ATOM     10  C   UNL     1      44.364  16.040  30.936  0.00  0.00    +0.038 A 
ATOM     11  C   UNL     1      43.137  15.700  30.310  0.00  0.00    +0.047 A 
ATOM     12  C   UNL     1      42.534  16.572  29.314  0.00  0.00    +0.035 A 
ATOM     32  C   UNL     1      43.208  17.782  28.977  0.00  0.00    +0.024 A 
ATOM     33  C   UNL     1      44.455  18.143  29.604  0.00  0.00    +0.007 A 
ATOM     34  C   UNL     1      45.054  17.288  30.589  0.00  0.00    -0.029 A 
ATOM     35  C   UNL     1      46.389  17.729  31.233  0.00  0.00    +0.045 C 
ENDROOT
BRANCH  10   9
ATOM      4  C   UNL     1      46.929  12.172  32.158  0.00  0.00    +0.077 A 
ATOM      5  C   UNL     1      47.206  11.850  30.787  0.00  0.00    +0.048 A 
ATOM      6  C   UNL     1      46.664  12.701  29.798  0.00  0.00    +0.116 A 
ATOM      7  N   UNL     1      45.903  13.790  30.164  0.00  0.00    -0.223 NA
ATOM      8  C   UNL     1      45.654  14.071  31.495  0.00  0.00    +0.220 A 
ATOM      9  N   UNL     1      44.898  15.166  31.885  0.00  0.00    -0.283 N 
ATOM     36  H   UNL     1      44.731  15.335  32.877  0.00  0.00    +0.155 HD
ATOM     37  N   UNL     1      46.159  13.273  32.458  0.00  0.00    -0.214 NA
BRANCH   4   3
ATOM      1  C   UNL     1      47.850   9.191  34.517  0.00  0.00    +0.020 A 
ATOM      2  C   UNL     1      47.346   9.917  33.374  0.00  0.00    +0.013 A 
ATOM      3  C   UNL     1      47.435  11.371  33.317  0.00  0.00    +0.019 A 
ATOM     38  C   UNL     1      48.045  12.064  34.441  0.00  0.00    +0.120 A 
ATOM     39  N   UNL     1      48.520  11.339  35.529  0.00  0.00    -0.263 NA
ATOM     40  C   UNL     1      48.438   9.940  35.596  0.00  0.00    +0.111 A 
ENDBRANCH   4   3
ENDBRANCH  10   9
BRANCH  12  13
ATOM     13  N   UNL     1      41.286  16.283  28.651  0.00  0.00    -0.281 N 
ATOM     14  C   UNL     1      41.050  15.363  27.643  0.00  0.00    +0.248 C 
ATOM     30  O   UNL     1      41.926  14.796  27.007  0.00  0.00    -0.270 OA
ATOM     31  H   UNL     1      40.479  16.823  28.963  0.00  0.00    +0.155 HD
BRANCH  14  15
ATOM     15  C   UNL     1      39.638  15.037  27.279  0.00  0.00    +0.037 A 
ATOM     16  C   UNL     1      39.250  13.681  26.880  0.00  0.00    +0.013 A 
ATOM     17  C   UNL     1      37.884  13.398  26.518  0.00  0.00    +0.005 A 
ATOM     18  C   UNL     1      36.895  14.473  26.554  0.00  0.00    -0.033 A 
ATOM     28  C   UNL     1      37.306  15.807  26.958  0.00  0.00    +0.005 A 
ATOM     29  C   UNL     1      38.645  16.089  27.313  0.00  0.00    +0.013 A 
BRANCH  18  19
ATOM     19  C   UNL     1      35.420  14.265  26.163  0.00  0.00    +0.119 C 
BRANCH  19  20
ATOM     20  N   UNL     1      35.139  13.360  25.009  0.00  0.00    -0.302 NA
ATOM     21  C   UNL     1      34.023  13.902  24.112  0.00  0.00    +0.066 C 
ATOM     22  C   UNL     1      33.757  12.954  22.898  0.00  0.00    -0.064 C 
ATOM     23  N   UNL     1      33.408  11.556  23.412  0.00  0.00    +0.379 N 
ATOM     24  C   UNL     1      33.101  10.677  22.275  0.00  0.00    -0.096 C 
ATOM     25  H   UNL     1      32.484  11.645  24.030  0.00  0.00    -0.082 HD
ATOM     26  C   UNL     1      34.511  11.011  24.308  0.00  0.00    -0.064 C 
ATOM     27  C   UNL     1      34.787  11.975  25.495  0.00  0.00    +0.066 C 
ENDBRANCH  19  20
ENDBRANCH  18  19
ENDBRANCH  14  15
ENDBRANCH  12  13
TORSDOF 6
ENDMDL
MODEL 5
REMARK VINA RESULT:      -7.2      2.015     13.051
REMARK  Name = C:\Users\Docking\Desktop\test protocol\1iep_ligandH.pdb
REMARK  8 active torsions:
REMARK  status: ('A' for Active; 'I' for Inactive)
REMARK    1  A    between atoms: _5  and  _11
REMARK    2  A    between atoms: _19  and  _21
REMARK    3  A    between atoms: _22  and  _66
REMARK    4  A    between atoms: _27  and  _30
REMARK    5  A    between atoms: _32  and  _33
REMARK    6  A    between atoms: _38  and  _43
REMARK    7  A    between atoms: _43  and  _46
REMARK    8  A    between atoms: _53  and  _55
REMARK                            x       y       z     vdW  Elec       q    Type
REMARK                         _______ _______ _______ _____ _____    ______ ____
ROOT
ATOM     10  C   UNL     1      41.875  -4.602  18.859  0.00  0.00    +0.038 A 
ATOM     11  C   UNL     1      40.705  -5.381  19.052  0.00  0.00    +0.047 A 
ATOM     12  C   UNL     1      39.483  -5.098  18.316  0.00  0.00    +0.035 A 
ATOM     32  C   UNL     1      39.488  -4.016  17.389  0.00  0.00    +0.024 A 
ATOM     33  C   UNL     1      40.667  -3.214  17.180  0.00  0.00    +0.007 A 
ATOM     34  C   UNL     1      41.875  -3.486  17.906  0.00  0.00    -0.029 A 
ATOM     35  C   UNL     1      43.108  -2.589  17.647  0.00  0.00    +0.045 C 
ENDROOT
BRANCH  10   9
ATOM      4  C   UNL     1      45.602  -7.453  19.868  0.00  0.00    +0.077 A 
ATOM      5  C   UNL     1      45.219  -8.407  18.868  0.00  0.00    +0.048 A 
ATOM      6  C   UNL     1      44.053  -8.130  18.120  0.00  0.00    +0.116 A 
ATOM      7  N   UNL     1      43.331  -6.982  18.363  0.00  0.00    -0.223 NA
ATOM      8  C   UNL     1      43.727  -6.083  19.337  0.00  0.00    +0.220 A 
ATOM      9  N   UNL     1      43.021  -4.918  19.592  0.00  0.00    -0.283 N 
ATOM     36  H   UNL     1      43.341  -4.284  20.324  0.00  0.00    +0.155 HD
ATOM     37  N   UNL     1      44.837  -6.325  20.065  0.00  0.00    -0.214 NA
BRANCH   4   3
ATOM      1  C   UNL     1      48.946  -8.762  21.419  0.00  0.00    +0.020 A 
ATOM      2  C   UNL     1      47.795  -8.662  20.552  0.00  0.00    +0.013 A 
ATOM      3  C   UNL     1      46.812  -7.602  20.738  0.00  0.00    +0.019 A 
ATOM     38  C   UNL     1      47.025  -6.651  21.818  0.00  0.00    +0.120 A 
ATOM     39  N   UNL     1      48.143  -6.773  22.638  0.00  0.00    -0.263 NA
ATOM     40  C   UNL     1      49.094  -7.790  22.470  0.00  0.00    +0.111 A 
ENDBRANCH   4   3
ENDBRANCH  10   9
BRANCH  12  13
ATOM     13  N   UNL     1      38.262  -5.849  18.477  0.00  0.00    -0.281 N 
ATOM     14  C   UNL     1      37.490  -5.985  19.618  0.00  0.00    +0.248 C 
ATOM     30  O   UNL     1      37.848  -5.653  20.739  0.00  0.00    -0.270 OA
ATOM     31  H   UNL     1      37.927  -6.340  17.648  0.00  0.00    +0.155 HD
BRANCH  14  15
ATOM     15  C   UNL     1      36.128  -6.591  19.501  0.00  0.00    +0.037 A 
ATOM     16  C   UNL     1      35.813  -7.552  18.441  0.00  0.00    +0.013 A 
ATOM     17  C   UNL     1      34.487  -8.108  18.341  0.00  0.00    +0.005 A 
ATOM     18  C   UNL     1      33.466  -7.705  19.305  0.00  0.00    -0.033 A 
ATOM     28  C   UNL     1      33.808  -6.754  20.350  0.00  0.00    +0.005 A 
ATOM     29  C   UNL     1      35.106  -6.206  20.451  0.00  0.00    +0.013 A 
BRANCH  18  19
ATOM     19  C   UNL     1      32.019  -8.232  19.261  0.00  0.00    +0.119 C 
BRANCH  19  20
ATOM     20  N   UNL     1      31.471  -8.830  20.514  0.00  0.00    -0.302 NA
ATOM     21  C   UNL     1      32.001 -10.247  20.754  0.00  0.00    +0.066 C 
ATOM     22  C   UNL     1      31.434 -10.849  22.081  0.00  0.00    -0.064 C 
ATOM     23  N   UNL     1      29.906 -10.845  22.028  0.00  0.00    +0.379 N 
ATOM     24  C   UNL     1      29.371 -11.464  23.250  0.00  0.00    -0.096 C 
ATOM     25  H   UNL     1      29.595 -11.477  21.164  0.00  0.00    -0.082 HD
ATOM     26  C   UNL     1      29.370  -9.440  21.787  0.00  0.00    -0.064 C 
ATOM     27  C   UNL     1      29.962  -8.840  20.482  0.00  0.00    +0.066 C 
ENDBRANCH  19  20
ENDBRANCH  18  19
ENDBRANCH  14  15
ENDBRANCH  12  13
TORSDOF 6
ENDMDL
