MODEL 1
REMARK VINA RESULT:      -8.8      0.000      0.000
REMARK  Name = C:\Users\Docking\Desktop\test protocol\1iep_ligandH.pdb
REMARK  8 active torsions:
REMARK  status: ('A' for Active; 'I' for Inactive)
REMARK    1  A    between atoms: _5  and  _11
REMARK    2  A    between atoms: _19  and  _21
REMARK    3  A    between atoms: _22  and  _66
REMARK    4  A    between atoms: _27  and  _30
REMARK    5  A    between atoms: _32  and  _33
REMARK    6  A    between atoms: _38  and  _43
REMARK    7  A    between atoms: _43  and  _46
REMARK    8  A    between atoms: _53  and  _55
REMARK                            x       y       z     vdW  Elec       q    Type
REMARK                         _______ _______ _______ _____ _____    ______ ____
ROOT
ATOM     10  C   UNL     1      16.199  30.085   5.261  0.00  0.00    +0.038 A 
ATOM     11  C   UNL     1      16.614  31.415   5.527  0.00  0.00    +0.047 A 
ATOM     12  C   UNL     1      15.913  32.244   6.495  0.00  0.00    +0.035 A 
ATOM     32  C   UNL     1      14.793  31.685   7.177  0.00  0.00    +0.024 A 
ATOM     33  C   UNL     1      14.356  30.335   6.918  0.00  0.00    +0.007 A 
ATOM     34  C   UNL     1      15.042  29.514   5.963  0.00  0.00    -0.029 A 
ATOM     35  C   UNL     1      14.526  28.077   5.721  0.00  0.00    +0.045 C 
ENDROOT
BRANCH  10   9
ATOM      4  C   UNL     1      16.686  28.114   0.912  0.00  0.00    +0.077 A 
ATOM      5  C   UNL     1      15.406  28.599   0.484  0.00  0.00    +0.048 A 
ATOM      6  C   UNL     1      14.650  29.345   1.416  0.00  0.00    +0.116 A 
ATOM      7  N   UNL     1      15.147  29.583   2.679  0.00  0.00    -0.223 NA
ATOM      8  C   UNL     1      16.385  29.100   3.060  0.00  0.00    +0.220 A 
ATOM      9  N   UNL     1      16.909  29.334   4.322  0.00  0.00    -0.283 N 
ATOM     36  H   UNL     1      17.823  28.954   4.568  0.00  0.00    +0.155 HD
ATOM     37  N   UNL     1      17.126  28.383   2.189  0.00  0.00    -0.214 NA
BRANCH   4   3
ATOM      1  C   UNL     1      19.221  25.418  -0.356  0.00  0.00    +0.020 A 
ATOM      2  C   UNL     1      18.348  26.158   0.527  0.00  0.00    +0.013 A 
ATOM      3  C   UNL     1      17.604  27.313   0.042  0.00  0.00    +0.019 A 
ATOM     38  C   UNL     1      17.765  27.696  -1.353  0.00  0.00    +0.120 A 
ATOM     39  N   UNL     1      18.614  26.966  -2.179  0.00  0.00    -0.263 NA
ATOM     40  C   UNL     1      19.337  25.853  -1.723  0.00  0.00    +0.111 A 
ENDBRANCH   4   3
ENDBRANCH  10   9
BRANCH  12  13
ATOM     13  N   UNL     1      16.284  33.603   6.800  0.00  0.00    -0.281 N 
ATOM     14  C   UNL     1      16.784  34.102   7.992  0.00  0.00    +0.248 C 
ATOM     30  O   UNL     1      16.786  33.491   9.050  0.00  0.00    -0.270 OA
ATOM     31  H   UNL     1      16.164  34.279   6.046  0.00  0.00    +0.155 HD
BRANCH  14  15
ATOM     15  C   UNL     1      17.349  35.486   8.015  0.00  0.00    +0.037 A 
ATOM     16  C   UNL     1      18.769  35.731   7.749  0.00  0.00    +0.013 A 
ATOM     17  C   UNL     1      19.291  37.074   7.794  0.00  0.00    +0.005 A 
ATOM     18  C   UNL     1      18.392  38.182   8.105  0.00  0.00    -0.033 A 
ATOM     28  C   UNL     1      16.987  37.911   8.360  0.00  0.00    +0.005 A 
ATOM     29  C   UNL     1      16.472  36.596   8.318  0.00  0.00    +0.013 A 
BRANCH  18  19
ATOM     19  C   UNL     1      18.868  39.644   8.196  0.00  0.00    +0.119 C 
BRANCH  19  20
ATOM     20  N   UNL     1      18.454  40.567   7.097  0.00  0.00    -0.302 NA
ATOM     21  C   UNL     1      18.505  39.888   5.726  0.00  0.00    +0.066 C 
ATOM     22  C   UNL     1      18.047  40.860   4.591  0.00  0.00    -0.064 C 
ATOM     23  N   UNL     1      18.928  42.111   4.609  0.00  0.00    +0.379 N 
ATOM     24  C   UNL     1      18.537  43.002   3.506  0.00  0.00    -0.096 C 
ATOM     25  H   UNL     1      19.979  41.787   4.426  0.00  0.00    -0.082 HD
ATOM     26  C   UNL     1      18.884  42.792   5.970  0.00  0.00    -0.064 C 
ATOM     27  C   UNL     1      19.313  41.808   7.094  0.00  0.00    +0.066 C 
ENDBRANCH  19  20
ENDBRANCH  18  19
ENDBRANCH  14  15
ENDBRANCH  12  13
TORSDOF 6
ENDMDL
MODEL 2
REMARK VINA RESULT:      -8.3      7.949     17.846
REMARK  Name = C:\Users\Docking\Desktop\test protocol\1iep_ligandH.pdb
REMARK  8 active torsions:
REMARK  status: ('A' for Active; 'I' for Inactive)
REMARK    1  A    between atoms: _5  and  _11
REMARK    2  A    between atoms: _19  and  _21
REMARK    3  A    between atoms: _22  and  _66
REMARK    4  A    between atoms: _27  and  _30
REMARK    5  A    between atoms: _32  and  _33
REMARK    6  A    between atoms: _38  and  _43
REMARK    7  A    between atoms: _43  and  _46
REMARK    8  A    between atoms: _53  and  _55
REMARK                            x       y       z     vdW  Elec       q    Type
REMARK                         _______ _______ _______ _____ _____    ______ ____
ROOT
ATOM     10  C   UNL     1      13.199  24.394  -1.607  0.00  0.00    +0.038 A 
ATOM     11  C   UNL     1      14.129  23.393  -1.988  0.00  0.00    +0.047 A 
ATOM     12  C   UNL     1      13.923  22.590  -3.183  0.00  0.00    +0.035 A 
ATOM     32  C   UNL     1      12.759  22.835  -3.969  0.00  0.00    +0.024 A 
ATOM     33  C   UNL     1      11.803  23.848  -3.596  0.00  0.00    +0.007 A 
ATOM     34  C   UNL     1      12.001  24.642  -2.417  0.00  0.00    -0.029 A 
ATOM     35  C   UNL     1      10.940  25.710  -2.062  0.00  0.00    +0.045 C 
ENDROOT
BRANCH  10   9
ATOM      4  C   UNL     1      15.977  27.237   1.084  0.00  0.00    +0.077 A 
ATOM      5  C   UNL     1      17.034  27.222   0.115  0.00  0.00    +0.048 A 
ATOM      6  C   UNL     1      16.826  26.465  -1.060  0.00  0.00    +0.116 A 
ATOM      7  N   UNL     1      15.645  25.778  -1.241  0.00  0.00    -0.223 NA
ATOM      8  C   UNL     1      14.646  25.812  -0.285  0.00  0.00    +0.220 A 
ATOM      9  N   UNL     1      13.448  25.136  -0.450  0.00  0.00    -0.283 N 
ATOM     36  H   UNL     1      12.739  25.181   0.282  0.00  0.00    +0.155 HD
ATOM     37  N   UNL     1      14.821  26.527   0.846  0.00  0.00    -0.214 NA
BRANCH   4   3
ATOM      1  C   UNL     1      15.169  28.598   4.662  0.00  0.00    +0.020 A 
ATOM      2  C   UNL     1      15.056  27.844   3.434  0.00  0.00    +0.013 A 
ATOM      3  C   UNL     1      16.045  27.994   2.374  0.00  0.00    +0.019 A 
ATOM     38  C   UNL     1      17.145  28.922   2.590  0.00  0.00    +0.120 A 
ATOM     39  N   UNL     1      17.226  29.636   3.781  0.00  0.00    -0.263 NA
ATOM     40  C   UNL     1      16.280  29.501   4.808  0.00  0.00    +0.111 A 
ENDBRANCH   4   3
ENDBRANCH  10   9
BRANCH  12  13
ATOM     13  N   UNL     1      14.828  21.554  -3.615  0.00  0.00    -0.281 N 
ATOM     14  C   UNL     1      14.882  20.238  -3.186  0.00  0.00    +0.248 C 
ATOM     30  O   UNL     1      14.296  19.805  -2.205  0.00  0.00    -0.270 OA
ATOM     31  H   UNL     1      15.511  21.824  -4.322  0.00  0.00    +0.155 HD
BRANCH  14  15
ATOM     15  C   UNL     1      15.721  19.264  -3.949  0.00  0.00    +0.037 A 
ATOM     16  C   UNL     1      17.182  19.271  -3.841  0.00  0.00    +0.013 A 
ATOM     17  C   UNL     1      17.968  18.332  -4.601  0.00  0.00    +0.005 A 
ATOM     18  C   UNL     1      17.294  17.376  -5.476  0.00  0.00    -0.033 A 
ATOM     28  C   UNL     1      15.843  17.388  -5.561  0.00  0.00    +0.005 A 
ATOM     29  C   UNL     1      15.069  18.308  -4.818  0.00  0.00    +0.013 A 
BRANCH  18  19
ATOM     19  C   UNL     1      18.054  16.353  -6.340  0.00  0.00    +0.119 C 
BRANCH  19  20
ATOM     20  N   UNL     1      18.216  16.668  -7.791  0.00  0.00    -0.302 NA
ATOM     21  C   UNL     1      19.048  15.609  -8.519  0.00  0.00    +0.066 C 
ATOM     22  C   UNL     1      19.188  15.943 -10.040  0.00  0.00    -0.064 C 
ATOM     23  N   UNL     1      19.816  17.329 -10.199  0.00  0.00    +0.379 N 
ATOM     24  C   UNL     1      20.003  17.622 -11.628  0.00  0.00    -0.096 C 
ATOM     25  H   UNL     1      20.824  17.300  -9.725  0.00  0.00    -0.082 HD
ATOM     26  C   UNL     1      18.996  18.388  -9.475  0.00  0.00    -0.064 C 
ATOM     27  C   UNL     1      18.838  18.031  -7.971  0.00  0.00    +0.066 C 
ENDBRANCH  19  20
ENDBRANCH  18  19
ENDBRANCH  14  15
ENDBRANCH  12  13
TORSDOF 6
ENDMDL
MODEL 3
REMARK VINA RESULT:      -8.2      2.398      3.203
REMARK  Name = C:\Users\Docking\Desktop\test protocol\1iep_ligandH.pdb
REMARK  8 active torsions:
REMARK  status: ('A' for Active; 'I' for Inactive)
REMARK    1  A    between atoms: _5  and  _11
REMARK    2  A    between atoms: _19  and  _21
REMARK    3  A    between atoms: _22  and  _66
REMARK    4  A    between atoms: _27  and  _30
REMARK    5  A    between atoms: _32  and  _33
REMARK    6  A    between atoms: _38  and  _43
REMARK    7  A    between atoms: _43  and  _46
REMARK    8  A    between atoms: _53  and  _55
REMARK                            x       y       z     vdW  Elec       q    Type
REMARK                         _______ _______ _______ _____ _____    ______ ____
ROOT
ATOM     10  C   UNL     1      14.641  29.332   6.176  0.00  0.00    +0.038 A 
ATOM     11  C   UNL     1      15.453  30.468   5.924  0.00  0.00    +0.047 A 
ATOM     12  C   UNL     1      15.887  31.337   7.006  0.00  0.00    +0.035 A 
ATOM     32  C   UNL     1      15.478  31.019   8.334  0.00  0.00    +0.024 A 
ATOM     33  C   UNL     1      14.652  29.869   8.608  0.00  0.00    +0.007 A 
ATOM     34  C   UNL     1      14.219  29.009   7.544  0.00  0.00    -0.029 A 
ATOM     35  C   UNL     1      13.329  27.794   7.895  0.00  0.00    +0.045 C 
ENDROOT
BRANCH  10   9
ATOM      4  C   UNL     1      15.417  27.373   1.863  0.00  0.00    +0.077 A 
ATOM      5  C   UNL     1      16.690  28.020   1.733  0.00  0.00    +0.048 A 
ATOM      6  C   UNL     1      17.106  28.854   2.795  0.00  0.00    +0.116 A 
ATOM      7  N   UNL     1      16.300  29.021   3.900  0.00  0.00    -0.223 NA
ATOM      8  C   UNL     1      15.077  28.384   3.993  0.00  0.00    +0.220 A 
ATOM      9  N   UNL     1      14.253  28.532   5.099  0.00  0.00    -0.283 N 
ATOM     36  H   UNL     1      13.355  28.050   5.126  0.00  0.00    +0.155 HD
ATOM     37  N   UNL     1      14.656  27.583   2.992  0.00  0.00    -0.214 NA
BRANCH   4   3
ATOM      1  C   UNL     1      15.053  24.889  -1.137  0.00  0.00    +0.020 A 
ATOM      2  C   UNL     1      15.659  25.762  -0.158  0.00  0.00    +0.013 A 
ATOM      3  C   UNL     1      14.841  26.458   0.827  0.00  0.00    +0.019 A 
ATOM     38  C   UNL     1      13.401  26.246   0.796  0.00  0.00    +0.120 A 
ATOM     39  N   UNL     1      12.846  25.401  -0.160  0.00  0.00    -0.263 NA
ATOM     40  C   UNL     1      13.623  24.727  -1.114  0.00  0.00    +0.111 A 
ENDBRANCH   4   3
ENDBRANCH  10   9
BRANCH  12  13
ATOM     13  N   UNL     1      16.705  32.508   6.811  0.00  0.00    -0.281 N 
ATOM     14  C   UNL     1      16.332  33.726   6.265  0.00  0.00    +0.248 C 
ATOM     30  O   UNL     1      15.287  33.923   5.664  0.00  0.00    -0.270 OA
ATOM     31  H   UNL     1      17.677  32.430   7.111  0.00  0.00    +0.155 HD
BRANCH  14  15
ATOM     15  C   UNL     1      17.261  34.890   6.394  0.00  0.00    +0.037 A 
ATOM     16  C   UNL     1      16.963  36.174   5.756  0.00  0.00    +0.013 A 
ATOM     17  C   UNL     1      17.884  37.276   5.882  0.00  0.00    +0.005 A 
ATOM     18  C   UNL     1      19.113  37.097   6.652  0.00  0.00    -0.033 A 
ATOM     28  C   UNL     1      19.381  35.813   7.280  0.00  0.00    +0.005 A 
ATOM     29  C   UNL     1      18.481  34.731   7.157  0.00  0.00    +0.013 A 
BRANCH  18  19
ATOM     19  C   UNL     1      20.163  38.210   6.822  0.00  0.00    +0.119 C 
BRANCH  19  20
ATOM     20  N   UNL     1      19.814  39.348   7.725  0.00  0.00    -0.302 NA
ATOM     21  C   UNL     1      19.108  38.874   8.999  0.00  0.00    +0.066 C 
ATOM     22  C   UNL     1      18.770  40.074   9.942  0.00  0.00    -0.064 C 
ATOM     23  N   UNL     1      17.905  41.085   9.187  0.00  0.00    +0.379 N 
ATOM     24  C   UNL     1      17.538  42.186  10.089  0.00  0.00    -0.096 C 
ATOM     25  H   UNL     1      16.965  40.566   8.886  0.00  0.00    -0.082 HD
ATOM     26  C   UNL     1      18.598  41.559   7.918  0.00  0.00    -0.064 C 
ATOM     27  C   UNL     1      18.956  40.356   7.001  0.00  0.00    +0.066 C 
ENDBRANCH  19  20
ENDBRANCH  18  19
ENDBRANCH  14  15
ENDBRANCH  12  13
TORSDOF 6
ENDMDL
MODEL 4
REMARK VINA RESULT:      -8.0      6.684     13.502
REMARK  Name = C:\Users\Docking\Desktop\test protocol\1iep_ligandH.pdb
REMARK  8 active torsions:
REMARK  status: ('A' for Active; 'I' for Inactive)
REMARK    1  A    between atoms: _5  and  _11
REMARK    2  A    between atoms: _19  and  _21
REMARK    3  A    between atoms: _22  and  _66
REMARK    4  A    between atoms: _27  and  _30
REMARK    5  A    between atoms: _32  and  _33
REMARK    6  A    between atoms: _38  and  _43
REMARK    7  A    between atoms: _43  and  _46
REMARK    8  A    between atoms: _53  and  _55
REMARK                            x       y       z     vdW  Elec       q    Type
REMARK                         _______ _______ _______ _____ _____    ______ ____
ROOT
ATOM     10  C   UNL     1      14.184  28.646   7.840  0.00  0.00    +0.038 A 
ATOM     11  C   UNL     1      14.226  28.063   6.548  0.00  0.00    +0.047 A 
ATOM     12  C   UNL     1      14.736  28.803   5.404  0.00  0.00    +0.035 A 
ATOM     32  C   UNL     1      15.199  30.134   5.613  0.00  0.00    +0.024 A 
ATOM     33  C   UNL     1      15.163  30.743   6.920  0.00  0.00    +0.007 A 
ATOM     34  C   UNL     1      14.659  30.019   8.051  0.00  0.00    -0.029 A 
ATOM     35  C   UNL     1      14.638  30.724   9.428  0.00  0.00    +0.045 C 
ENDROOT
BRANCH  10   9
ATOM      4  C   UNL     1      10.573  26.586  10.239  0.00  0.00    +0.077 A 
ATOM      5  C   UNL     1       9.597  27.082   9.312  0.00  0.00    +0.048 A 
ATOM      6  C   UNL     1      10.064  27.868   8.236  0.00  0.00    +0.116 A 
ATOM      7  N   UNL     1      11.410  28.133   8.106  0.00  0.00    -0.223 NA
ATOM      8  C   UNL     1      12.325  27.642   9.018  0.00  0.00    +0.220 A 
ATOM      9  N   UNL     1      13.685  27.889   8.903  0.00  0.00    -0.283 N 
ATOM     36  H   UNL     1      14.327  27.515   9.601  0.00  0.00    +0.155 HD
ATOM     37  N   UNL     1      11.904  26.889  10.056  0.00  0.00    -0.214 NA
BRANCH   4   3
ATOM      1  C   UNL     1       9.870  25.397  13.899  0.00  0.00    +0.020 A 
ATOM      2  C   UNL     1      10.203  26.258  12.787  0.00  0.00    +0.013 A 
ATOM      3  C   UNL     1      10.235  25.739  11.426  0.00  0.00    +0.019 A 
ATOM     38  C   UNL     1       9.923  24.332  11.222  0.00  0.00    +0.120 A 
ATOM     39  N   UNL     1       9.607  23.527  12.311  0.00  0.00    -0.263 NA
ATOM     40  C   UNL     1       9.575  24.015  13.626  0.00  0.00    +0.111 A 
ENDBRANCH   4   3
ENDBRANCH  10   9
BRANCH  12  13
ATOM     13  N   UNL     1      14.795  28.266   4.067  0.00  0.00    -0.281 N 
ATOM     14  C   UNL     1      15.898  28.175   3.234  0.00  0.00    +0.248 C 
ATOM     30  O   UNL     1      16.963  28.739   3.433  0.00  0.00    -0.270 OA
ATOM     31  H   UNL     1      13.917  27.910   3.689  0.00  0.00    +0.155 HD
BRANCH  14  15
ATOM     15  C   UNL     1      15.799  27.348   1.993  0.00  0.00    +0.037 A 
ATOM     16  C   UNL     1      16.755  27.508   0.895  0.00  0.00    +0.013 A 
ATOM     17  C   UNL     1      16.627  26.710  -0.299  0.00  0.00    +0.005 A 
ATOM     18  C   UNL     1      15.536  25.743  -0.400  0.00  0.00    -0.033 A 
ATOM     28  C   UNL     1      14.604  25.601   0.707  0.00  0.00    +0.005 A 
ATOM     29  C   UNL     1      14.727  26.382   1.878  0.00  0.00    +0.013 A 
BRANCH  18  19
ATOM     19  C   UNL     1      15.310  24.865  -1.644  0.00  0.00    +0.119 C 
BRANCH  19  20
ATOM     20  N   UNL     1      13.983  24.191  -1.774  0.00  0.00    -0.302 NA
ATOM     21  C   UNL     1      14.114  22.761  -2.306  0.00  0.00    +0.066 C 
ATOM     22  C   UNL     1      12.719  22.064  -2.414  0.00  0.00    -0.064 C 
ATOM     23  N   UNL     1      11.805  22.896  -3.315  0.00  0.00    +0.379 N 
ATOM     24  C   UNL     1      10.511  22.213  -3.465  0.00  0.00    -0.096 C 
ATOM     25  H   UNL     1      12.279  22.948  -4.322  0.00  0.00    -0.082 HD
ATOM     26  C   UNL     1      11.671  24.320  -2.794  0.00  0.00    -0.064 C 
ATOM     27  C   UNL     1      13.065  24.993  -2.663  0.00  0.00    +0.066 C 
ENDBRANCH  19  20
ENDBRANCH  18  19
ENDBRANCH  14  15
ENDBRANCH  12  13
TORSDOF 6
ENDMDL
MODEL 5
REMARK VINA RESULT:      -7.9     17.205     20.095
REMARK  Name = C:\Users\Docking\Desktop\test protocol\1iep_ligandH.pdb
REMARK  8 active torsions:
REMARK  status: ('A' for Active; 'I' for Inactive)
REMARK    1  A    between atoms: _5  and  _11
REMARK    2  A    between atoms: _19  and  _21
REMARK    3  A    between atoms: _22  and  _66
REMARK    4  A    between atoms: _27  and  _30
REMARK    5  A    between atoms: _32  and  _33
REMARK    6  A    between atoms: _38  and  _43
REMARK    7  A    between atoms: _43  and  _46
REMARK    8  A    between atoms: _53  and  _55
REMARK                            x       y       z     vdW  Elec       q    Type
REMARK                         _______ _______ _______ _____ _____    ______ ____
ROOT
ATOM     10  C   UNL     1      24.959  47.061  12.075  0.00  0.00    +0.038 A 
ATOM     11  C   UNL     1      25.686  45.939  12.547  0.00  0.00    +0.047 A 
ATOM     12  C   UNL     1      25.658  45.559  13.950  0.00  0.00    +0.035 A 
ATOM     32  C   UNL     1      24.876  46.344  14.847  0.00  0.00    +0.024 A 
ATOM     33  C   UNL     1      24.131  47.489  14.385  0.00  0.00    +0.007 A 
ATOM     34  C   UNL     1      24.157  47.870  13.002  0.00  0.00    -0.029 A 
ATOM     35  C   UNL     1      23.344  49.111  12.564  0.00  0.00    +0.045 C 
ENDROOT
BRANCH  10   9
ATOM      4  C   UNL     1      27.073  49.166   8.315  0.00  0.00    +0.077 A 
ATOM      5  C   UNL     1      28.128  49.697   9.130  0.00  0.00    +0.048 A 
ATOM      6  C   UNL     1      28.085  49.411  10.514  0.00  0.00    +0.116 A 
ATOM      7  N   UNL     1      27.060  48.650  11.032  0.00  0.00    -0.223 NA
ATOM      8  C   UNL     1      26.058  48.155  10.218  0.00  0.00    +0.220 A 
ATOM      9  N   UNL     1      25.022  47.381  10.717  0.00  0.00    -0.283 N 
ATOM     36  H   UNL     1      24.297  47.040  10.085  0.00  0.00    +0.155 HD
ATOM     37  N   UNL     1      26.075  48.415   8.894  0.00  0.00    -0.214 NA
BRANCH   4   3
ATOM      1  C   UNL     1      26.208  48.720   4.527  0.00  0.00    +0.020 A 
ATOM      2  C   UNL     1      26.267  48.469   5.949  0.00  0.00    +0.013 A 
ATOM      3  C   UNL     1      26.981  49.378   6.836  0.00  0.00    +0.019 A 
ATOM     38  C   UNL     1      27.629  50.541   6.249  0.00  0.00    +0.120 A 
ATOM     39  N   UNL     1      27.556  50.756   4.876  0.00  0.00    -0.263 NA
ATOM     40  C   UNL     1      26.873  49.887   4.012  0.00  0.00    +0.111 A 
ENDBRANCH   4   3
ENDBRANCH  10   9
BRANCH  12  13
ATOM     13  N   UNL     1      26.382  44.434  14.488  0.00  0.00    -0.281 N 
ATOM     14  C   UNL     1      26.405  43.132  14.017  0.00  0.00    +0.248 C 
ATOM     30  O   UNL     1      25.632  42.686  13.182  0.00  0.00    -0.270 OA
ATOM     31  H   UNL     1      26.947  44.621  15.317  0.00  0.00    +0.155 HD
BRANCH  14  15
ATOM     15  C   UNL     1      27.424  42.184  14.563  0.00  0.00    +0.037 A 
ATOM     16  C   UNL     1      28.005  42.377  15.894  0.00  0.00    +0.013 A 
ATOM     17  C   UNL     1      28.998  41.458  16.390  0.00  0.00    +0.005 A 
ATOM     18  C   UNL     1      29.416  40.335  15.553  0.00  0.00    -0.033 A 
ATOM     28  C   UNL     1      28.819  40.164  14.239  0.00  0.00    +0.005 A 
ATOM     29  C   UNL     1      27.846  41.064  13.749  0.00  0.00    +0.013 A 
BRANCH  18  19
ATOM     19  C   UNL     1      30.485  39.317  15.992  0.00  0.00    +0.119 C 
BRANCH  19  20
ATOM     20  N   UNL     1      30.007  37.976  16.444  0.00  0.00    -0.302 NA
ATOM     21  C   UNL     1      29.609  37.976  17.922  0.00  0.00    +0.066 C 
ATOM     22  C   UNL     1      29.091  36.571  18.372  0.00  0.00    -0.064 C 
ATOM     23  N   UNL     1      30.171  35.522  18.102  0.00  0.00    +0.379 N 
ATOM     24  C   UNL     1      29.709  34.210  18.577  0.00  0.00    -0.096 C 
ATOM     25  H   UNL     1      31.070  35.801  18.699  0.00  0.00    -0.082 HD
ATOM     26  C   UNL     1      30.574  35.517  16.635  0.00  0.00    -0.064 C 
ATOM     27  C   UNL     1      31.060  36.925  16.190  0.00  0.00    +0.066 C 
ENDBRANCH  19  20
ENDBRANCH  18  19
ENDBRANCH  14  15
ENDBRANCH  12  13
TORSDOF 6
ENDMDL
