MODEL 1
REMARK VINA RESULT:      -9.0      0.000      0.000
REMARK  Name = C:\Users\Docking\Desktop\test protocol\1iep_ligandH.pdb
REMARK  8 active torsions:
REMARK  status: ('A' for Active; 'I' for Inactive)
REMARK    1  A    between atoms: _5  and  _11
REMARK    2  A    between atoms: _19  and  _21
REMARK    3  A    between atoms: _22  and  _66
REMARK    4  A    between atoms: _27  and  _30
REMARK    5  A    between atoms: _32  and  _33
REMARK    6  A    between atoms: _38  and  _43
REMARK    7  A    between atoms: _43  and  _46
REMARK    8  A    between atoms: _53  and  _55
REMARK                            x       y       z     vdW  Elec       q    Type
REMARK                         _______ _______ _______ _____ _____    ______ ____
ROOT
ATOM     10  C   UNL     1      16.591  30.237   5.575  0.00  0.00    +0.038 A 
ATOM     11  C   UNL     1      17.220  31.452   5.947  0.00  0.00    +0.047 A 
ATOM     12  C   UNL     1      16.640  32.320   6.961  0.00  0.00    +0.035 A 
ATOM     32  C   UNL     1      15.419  31.918   7.576  0.00  0.00    +0.024 A 
ATOM     33  C   UNL     1      14.766  30.686   7.209  0.00  0.00    +0.007 A 
ATOM     34  C   UNL     1      15.332  29.827   6.208  0.00  0.00    -0.029 A 
ATOM     35  C   UNL     1      14.584  28.522   5.849  0.00  0.00    +0.045 C 
ENDROOT
BRANCH  10   9
ATOM      4  C   UNL     1      16.676  28.234   1.214  0.00  0.00    +0.077 A 
ATOM      5  C   UNL     1      15.404  28.797   0.866  0.00  0.00    +0.048 A 
ATOM      6  C   UNL     1      14.757  29.590   1.839  0.00  0.00    +0.116 A 
ATOM      7  N   UNL     1      15.348  29.798   3.067  0.00  0.00    -0.223 NA
ATOM      8  C   UNL     1      16.575  29.239   3.371  0.00  0.00    +0.220 A 
ATOM      9  N   UNL     1      17.192  29.442   4.596  0.00  0.00    -0.283 N 
ATOM     36  H   UNL     1      18.094  29.006   4.785  0.00  0.00    +0.155 HD
ATOM     37  N   UNL     1      17.213  28.476   2.459  0.00  0.00    -0.214 NA
BRANCH   4   3
ATOM      1  C   UNL     1      18.994  25.412  -0.189  0.00  0.00    +0.020 A 
ATOM      2  C   UNL     1      18.229  26.207   0.743  0.00  0.00    +0.013 A 
ATOM      3  C   UNL     1      17.485  27.376   0.291  0.00  0.00    +0.019 A 
ATOM     38  C   UNL     1      17.536  27.715  -1.123  0.00  0.00    +0.120 A 
ATOM     39  N   UNL     1      18.282  26.932  -1.998  0.00  0.00    -0.263 NA
ATOM     40  C   UNL     1      19.003  25.806  -1.574  0.00  0.00    +0.111 A 
ENDBRANCH   4   3
ENDBRANCH  10   9
BRANCH  12  13
ATOM     13  N   UNL     1      17.230  33.569   7.374  0.00  0.00    -0.281 N 
ATOM     14  C   UNL     1      17.143  34.801   6.746  0.00  0.00    +0.248 C 
ATOM     30  O   UNL     1      16.719  34.970   5.613  0.00  0.00    -0.270 OA
ATOM     31  H   UNL     1      17.778  33.542   8.234  0.00  0.00    +0.155 HD
BRANCH  14  15
ATOM     15  C   UNL     1      17.607  36.019   7.478  0.00  0.00    +0.037 A 
ATOM     16  C   UNL     1      16.797  36.623   8.539  0.00  0.00    +0.013 A 
ATOM     17  C   UNL     1      17.260  37.807   9.217  0.00  0.00    +0.005 A 
ATOM     18  C   UNL     1      18.542  38.395   8.837  0.00  0.00    -0.033 A 
ATOM     28  C   UNL     1      19.328  37.772   7.785  0.00  0.00    +0.005 A 
ATOM     29  C   UNL     1      18.877  36.612   7.117  0.00  0.00    +0.013 A 
BRANCH  18  19
ATOM     19  C   UNL     1      19.105  39.670   9.492  0.00  0.00    +0.119 C 
BRANCH  19  20
ATOM     20  N   UNL     1      19.121  40.914   8.665  0.00  0.00    -0.302 NA
ATOM     21  C   UNL     1      18.037  40.899   7.584  0.00  0.00    +0.066 C 
ATOM     22  C   UNL     1      18.053  42.217   6.743  0.00  0.00    -0.064 C 
ATOM     23  N   UNL     1      19.438  42.403   6.120  0.00  0.00    +0.379 N 
ATOM     24  C   UNL     1      19.439  43.611   5.281  0.00  0.00    -0.096 C 
ATOM     25  H   UNL     1      19.629  41.529   5.454  0.00  0.00    -0.082 HD
ATOM     26  C   UNL     1      20.522  42.417   7.188  0.00  0.00    -0.064 C 
ATOM     27  C   UNL     1      20.478  41.115   8.036  0.00  0.00    +0.066 C 
ENDBRANCH  19  20
ENDBRANCH  18  19
ENDBRANCH  14  15
ENDBRANCH  12  13
TORSDOF 6
ENDMDL
MODEL 2
REMARK VINA RESULT:      -8.1     14.739     20.549
REMARK  Name = C:\Users\Docking\Desktop\test protocol\1iep_ligandH.pdb
REMARK  8 active torsions:
REMARK  status: ('A' for Active; 'I' for Inactive)
REMARK    1  A    between atoms: _5  and  _11
REMARK    2  A    between atoms: _19  and  _21
REMARK    3  A    between atoms: _22  and  _66
REMARK    4  A    between atoms: _27  and  _30
REMARK    5  A    between atoms: _32  and  _33
REMARK    6  A    between atoms: _38  and  _43
REMARK    7  A    between atoms: _43  and  _46
REMARK    8  A    between atoms: _53  and  _55
REMARK                            x       y       z     vdW  Elec       q    Type
REMARK                         _______ _______ _______ _____ _____    ______ ____
ROOT
ATOM     10  C   UNL     1      30.496  35.418  17.619  0.00  0.00    +0.038 A 
ATOM     11  C   UNL     1      29.566  34.373  17.853  0.00  0.00    +0.047 A 
ATOM     12  C   UNL     1      29.906  33.239  18.699  0.00  0.00    +0.035 A 
ATOM     32  C   UNL     1      31.201  33.203  19.293  0.00  0.00    +0.024 A 
ATOM     33  C   UNL     1      32.159  34.257  19.065  0.00  0.00    +0.007 A 
ATOM     34  C   UNL     1      31.830  35.376  18.229  0.00  0.00    -0.029 A 
ATOM     35  C   UNL     1      32.899  36.474  18.015  0.00  0.00    +0.045 C 
ENDROOT
BRANCH  10   9
ATOM      4  C   UNL     1      28.531  39.743  16.934  0.00  0.00    +0.077 A 
ATOM      5  C   UNL     1      28.209  39.882  18.325  0.00  0.00    +0.048 A 
ATOM      6  C   UNL     1      28.559  38.815  19.182  0.00  0.00    +0.116 A 
ATOM      7  N   UNL     1      29.185  37.697  18.675  0.00  0.00    -0.223 NA
ATOM      8  C   UNL     1      29.480  37.594  17.328  0.00  0.00    +0.220 A 
ATOM      9  N   UNL     1      30.117  36.482  16.798  0.00  0.00    -0.283 N 
ATOM     36  H   UNL     1      30.311  36.442  15.798  0.00  0.00    +0.155 HD
ATOM     37  N   UNL     1      29.155  38.599  16.489  0.00  0.00    -0.214 NA
BRANCH   4   3
ATOM      1  C   UNL     1      28.389  41.742  13.575  0.00  0.00    +0.020 A 
ATOM      2  C   UNL     1      28.711  40.708  14.531  0.00  0.00    +0.013 A 
ATOM      3  C   UNL     1      28.228  40.786  15.904  0.00  0.00    +0.019 A 
ATOM     38  C   UNL     1      27.415  41.933  16.280  0.00  0.00    +0.120 A 
ATOM     39  N   UNL     1      27.123  42.914  15.338  0.00  0.00    -0.263 NA
ATOM     40  C   UNL     1      27.583  42.850  14.014  0.00  0.00    +0.111 A 
ENDBRANCH   4   3
ENDBRANCH  10   9
BRANCH  12  13
ATOM     13  N   UNL     1      29.006  32.144  18.966  0.00  0.00    -0.281 N 
ATOM     14  C   UNL     1      28.790  31.012  18.198  0.00  0.00    +0.248 C 
ATOM     30  O   UNL     1      29.184  30.871  17.049  0.00  0.00    -0.270 OA
ATOM     31  H   UNL     1      28.463  32.212  19.827  0.00  0.00    +0.155 HD
BRANCH  14  15
ATOM     15  C   UNL     1      28.012  29.879  18.784  0.00  0.00    +0.037 A 
ATOM     16  C   UNL     1      28.649  28.594  19.083  0.00  0.00    +0.013 A 
ATOM     17  C   UNL     1      27.871  27.512  19.632  0.00  0.00    +0.005 A 
ATOM     18  C   UNL     1      26.447  27.711  19.888  0.00  0.00    -0.033 A 
ATOM     28  C   UNL     1      25.842  28.998  19.588  0.00  0.00    +0.005 A 
ATOM     29  C   UNL     1      26.600  30.061  19.048  0.00  0.00    +0.013 A 
BRANCH  18  19
ATOM     19  C   UNL     1      25.535  26.606  20.453  0.00  0.00    +0.119 C 
BRANCH  19  20
ATOM     20  N   UNL     1      24.980  25.616  19.483  0.00  0.00    -0.302 NA
ATOM     21  C   UNL     1      25.440  25.895  18.050  0.00  0.00    +0.066 C 
ATOM     22  C   UNL     1      24.867  24.837  17.052  0.00  0.00    -0.064 C 
ATOM     23  N   UNL     1      23.340  24.831  17.139  0.00  0.00    +0.379 N 
ATOM     24  C   UNL     1      22.796  23.879  16.160  0.00  0.00    -0.096 C 
ATOM     25  H   UNL     1      22.982  25.849  16.856  0.00  0.00    -0.082 HD
ATOM     26  C   UNL     1      22.874  24.557  18.561  0.00  0.00    -0.064 C 
ATOM     27  C   UNL     1      23.472  25.597  19.549  0.00  0.00    +0.066 C 
ENDBRANCH  19  20
ENDBRANCH  18  19
ENDBRANCH  14  15
ENDBRANCH  12  13
TORSDOF 6
ENDMDL
MODEL 3
REMARK VINA RESULT:      -8.0      7.491     17.871
REMARK  Name = C:\Users\Docking\Desktop\test protocol\1iep_ligandH.pdb
REMARK  8 active torsions:
REMARK  status: ('A' for Active; 'I' for Inactive)
REMARK    1  A    between atoms: _5  and  _11
REMARK    2  A    between atoms: _19  and  _21
REMARK    3  A    between atoms: _22  and  _66
REMARK    4  A    between atoms: _27  and  _30
REMARK    5  A    between atoms: _32  and  _33
REMARK    6  A    between atoms: _38  and  _43
REMARK    7  A    between atoms: _43  and  _46
REMARK    8  A    between atoms: _53  and  _55
REMARK                            x       y       z     vdW  Elec       q    Type
REMARK                         _______ _______ _______ _____ _____    ______ ____
ROOT
ATOM     10  C   UNL     1      12.983  25.567  -1.127  0.00  0.00    +0.038 A 
ATOM     11  C   UNL     1      13.839  24.451  -1.310  0.00  0.00    +0.047 A 
ATOM     12  C   UNL     1      13.629  23.513  -2.402  0.00  0.00    +0.035 A 
ATOM     32  C   UNL     1      12.539  23.745  -3.291  0.00  0.00    +0.024 A 
ATOM     33  C   UNL     1      11.659  24.874  -3.119  0.00  0.00    +0.007 A 
ATOM     34  C   UNL     1      11.860  25.801  -2.042  0.00  0.00    -0.029 A 
ATOM     35  C   UNL     1      10.882  26.990  -1.902  0.00  0.00    +0.045 C 
ENDROOT
BRANCH  10   9
ATOM      4  C   UNL     1      15.883  27.489   2.180  0.00  0.00    +0.077 A 
ATOM      5  C   UNL     1      16.990  26.676   1.768  0.00  0.00    +0.048 A 
ATOM      6  C   UNL     1      16.770  25.770   0.706  0.00  0.00    +0.116 A 
ATOM      7  N   UNL     1      15.531  25.693   0.108  0.00  0.00    -0.223 NA
ATOM      8  C   UNL     1      14.484  26.491   0.531  0.00  0.00    +0.220 A 
ATOM      9  N   UNL     1      13.231  26.436  -0.062  0.00  0.00    -0.283 N 
ATOM     36  H   UNL     1      12.483  27.036   0.284  0.00  0.00    +0.155 HD
ATOM     37  N   UNL     1      14.668  27.363   1.544  0.00  0.00    -0.214 NA
BRANCH   4   3
ATOM      1  C   UNL     1      17.193  30.203   4.674  0.00  0.00    +0.020 A 
ATOM      2  C   UNL     1      17.172  29.242   3.595  0.00  0.00    +0.013 A 
ATOM      3  C   UNL     1      15.959  28.496   3.286  0.00  0.00    +0.019 A 
ATOM     38  C   UNL     1      14.774  28.749   4.092  0.00  0.00    +0.120 A 
ATOM     39  N   UNL     1      14.824  29.680   5.125  0.00  0.00    -0.263 NA
ATOM     40  C   UNL     1      15.987  30.403   5.433  0.00  0.00    +0.111 A 
ENDBRANCH   4   3
ENDBRANCH  10   9
BRANCH  12  13
ATOM     13  N   UNL     1      14.459  22.357  -2.633  0.00  0.00    -0.281 N 
ATOM     14  C   UNL     1      14.164  21.030  -2.369  0.00  0.00    +0.248 C 
ATOM     30  O   UNL     1      13.219  20.654  -1.692  0.00  0.00    -0.270 OA
ATOM     31  H   UNL     1      15.376  22.540  -3.041  0.00  0.00    +0.155 HD
BRANCH  14  15
ATOM     15  C   UNL     1      15.056  19.967  -2.925  0.00  0.00    +0.037 A 
ATOM     16  C   UNL     1      14.632  18.566  -2.970  0.00  0.00    +0.013 A 
ATOM     17  C   UNL     1      15.519  17.558  -3.496  0.00  0.00    +0.005 A 
ATOM     18  C   UNL     1      16.840  17.950  -3.982  0.00  0.00    -0.033 A 
ATOM     28  C   UNL     1      17.233  19.348  -3.930  0.00  0.00    +0.005 A 
ATOM     29  C   UNL     1      16.367  20.338  -3.415  0.00  0.00    +0.013 A 
BRANCH  18  19
ATOM     19  C   UNL     1      17.859  16.939  -4.540  0.00  0.00    +0.119 C 
BRANCH  19  20
ATOM     20  N   UNL     1      17.826  16.675  -6.009  0.00  0.00    -0.302 NA
ATOM     21  C   UNL     1      18.270  15.249  -6.347  0.00  0.00    +0.066 C 
ATOM     22  C   UNL     1      18.208  14.982  -7.886  0.00  0.00    -0.064 C 
ATOM     23  N   UNL     1      19.079  16.007  -8.614  0.00  0.00    +0.379 N 
ATOM     24  C   UNL     1      19.069  15.724 -10.056  0.00  0.00    -0.096 C 
ATOM     25  H   UNL     1      20.126  15.880  -8.251  0.00  0.00    -0.082 HD
ATOM     26  C   UNL     1      18.646  17.428  -8.282  0.00  0.00    -0.064 C 
ATOM     27  C   UNL     1      18.683  17.673  -6.748  0.00  0.00    +0.066 C 
ENDBRANCH  19  20
ENDBRANCH  18  19
ENDBRANCH  14  15
ENDBRANCH  12  13
TORSDOF 6
ENDMDL
MODEL 4
REMARK VINA RESULT:      -8.0      7.377     17.647
REMARK  Name = C:\Users\Docking\Desktop\test protocol\1iep_ligandH.pdb
REMARK  8 active torsions:
REMARK  status: ('A' for Active; 'I' for Inactive)
REMARK    1  A    between atoms: _5  and  _11
REMARK    2  A    between atoms: _19  and  _21
REMARK    3  A    between atoms: _22  and  _66
REMARK    4  A    between atoms: _27  and  _30
REMARK    5  A    between atoms: _32  and  _33
REMARK    6  A    between atoms: _38  and  _43
REMARK    7  A    between atoms: _43  and  _46
REMARK    8  A    between atoms: _53  and  _55
REMARK                            x       y       z     vdW  Elec       q    Type
REMARK                         _______ _______ _______ _____ _____    ______ ____
ROOT
ATOM     10  C   UNL     1      12.725  26.500  -0.280  0.00  0.00    +0.038 A 
ATOM     11  C   UNL     1      13.466  25.305  -0.471  0.00  0.00    +0.047 A 
ATOM     12  C   UNL     1      13.234  24.454  -1.628  0.00  0.00    +0.035 A 
ATOM     32  C   UNL     1      12.243  24.851  -2.571  0.00  0.00    +0.024 A 
ATOM     33  C   UNL     1      11.480  26.061  -2.392  0.00  0.00    +0.007 A 
ATOM     34  C   UNL     1      11.702  26.904  -1.252  0.00  0.00    -0.029 A 
ATOM     35  C   UNL     1      10.851  28.186  -1.107  0.00  0.00    +0.045 C 
ENDROOT
BRANCH  10   9
ATOM      4  C   UNL     1      15.735  28.806   2.663  0.00  0.00    +0.077 A 
ATOM      5  C   UNL     1      16.882  28.401   1.903  0.00  0.00    +0.048 A 
ATOM      6  C   UNL     1      16.656  27.594   0.766  0.00  0.00    +0.116 A 
ATOM      7  N   UNL     1      15.373  27.225   0.423  0.00  0.00    -0.223 NA
ATOM      8  C   UNL     1      14.288  27.632   1.179  0.00  0.00    +0.220 A 
ATOM      9  N   UNL     1      12.989  27.279   0.849  0.00  0.00    -0.283 N 
ATOM     36  H   UNL     1      12.216  27.593   1.436  0.00  0.00    +0.155 HD
ATOM     37  N   UNL     1      14.479  28.402   2.270  0.00  0.00    -0.214 NA
BRANCH   4   3
ATOM      1  C   UNL     1      17.092  30.873   5.694  0.00  0.00    +0.020 A 
ATOM      2  C   UNL     1      17.073  30.043   4.512  0.00  0.00    +0.013 A 
ATOM      3  C   UNL     1      15.812  29.663   3.888  0.00  0.00    +0.019 A 
ATOM     38  C   UNL     1      14.577  30.144   4.490  0.00  0.00    +0.120 A 
ATOM     39  N   UNL     1      14.626  30.941   5.630  0.00  0.00    -0.263 NA
ATOM     40  C   UNL     1      15.834  31.311   6.240  0.00  0.00    +0.111 A 
ENDBRANCH   4   3
ENDBRANCH  10   9
BRANCH  12  13
ATOM     13  N   UNL     1      13.950  23.225  -1.871  0.00  0.00    -0.281 N 
ATOM     14  C   UNL     1      13.429  21.949  -2.004  0.00  0.00    +0.248 C 
ATOM     30  O   UNL     1      12.282  21.637  -1.721  0.00  0.00    -0.270 OA
ATOM     31  H   UNL     1      14.963  23.307  -1.955  0.00  0.00    +0.155 HD
BRANCH  14  15
ATOM     15  C   UNL     1      14.314  20.857  -2.513  0.00  0.00    +0.037 A 
ATOM     16  C   UNL     1      14.080  19.458  -2.148  0.00  0.00    +0.013 A 
ATOM     17  C   UNL     1      14.960  18.426  -2.639  0.00  0.00    +0.005 A 
ATOM     18  C   UNL     1      16.081  18.791  -3.501  0.00  0.00    -0.033 A 
ATOM     28  C   UNL     1      16.287  20.187  -3.851  0.00  0.00    +0.005 A 
ATOM     29  C   UNL     1      15.428  21.201  -3.371  0.00  0.00    +0.013 A 
BRANCH  18  19
ATOM     19  C   UNL     1      17.082  17.759  -4.053  0.00  0.00    +0.119 C 
BRANCH  19  20
ATOM     20  N   UNL     1      16.627  16.339  -4.131  0.00  0.00    -0.302 NA
ATOM     21  C   UNL     1      17.693  15.365  -3.620  0.00  0.00    +0.066 C 
ATOM     22  C   UNL     1      17.191  13.886  -3.689  0.00  0.00    -0.064 C 
ATOM     23  N   UNL     1      16.796  13.550  -5.128  0.00  0.00    +0.379 N 
ATOM     24  C   UNL     1      16.379  12.142  -5.206  0.00  0.00    -0.096 C 
ATOM     25  H   UNL     1      17.704  13.670  -5.764  0.00  0.00    -0.082 HD
ATOM     26  C   UNL     1      15.739  14.515  -5.645  0.00  0.00    -0.064 C 
ATOM     27  C   UNL     1      16.236  15.985  -5.545  0.00  0.00    +0.066 C 
ENDBRANCH  19  20
ENDBRANCH  18  19
ENDBRANCH  14  15
ENDBRANCH  12  13
TORSDOF 6
ENDMDL
MODEL 5
REMARK VINA RESULT:      -8.0     20.806     23.990
REMARK  Name = C:\Users\Docking\Desktop\test protocol\1iep_ligandH.pdb
REMARK  8 active torsions:
REMARK  status: ('A' for Active; 'I' for Inactive)
REMARK    1  A    between atoms: _5  and  _11
REMARK    2  A    between atoms: _19  and  _21
REMARK    3  A    between atoms: _22  and  _66
REMARK    4  A    between atoms: _27  and  _30
REMARK    5  A    between atoms: _32  and  _33
REMARK    6  A    between atoms: _38  and  _43
REMARK    7  A    between atoms: _43  and  _46
REMARK    8  A    between atoms: _53  and  _55
REMARK                            x       y       z     vdW  Elec       q    Type
REMARK                         _______ _______ _______ _____ _____    ______ ____
ROOT
ATOM     10  C   UNL     1      34.333  26.457  -9.629  0.00  0.00    +0.038 A 
ATOM     11  C   UNL     1      33.868  27.794  -9.721  0.00  0.00    +0.047 A 
ATOM     12  C   UNL     1      33.427  28.521  -8.541  0.00  0.00    +0.035 A 
ATOM     32  C   UNL     1      33.476  27.856  -7.281  0.00  0.00    +0.024 A 
ATOM     33  C   UNL     1      33.944  26.497  -7.169  0.00  0.00    +0.007 A 
ATOM     34  C   UNL     1      34.378  25.774  -8.330  0.00  0.00    -0.029 A 
ATOM     35  C   UNL     1      34.865  24.317  -8.151  0.00  0.00    +0.045 C 
ENDROOT
BRANCH  10   9
ATOM      4  C   UNL     1      37.700  25.194 -12.808  0.00  0.00    +0.077 A 
ATOM      5  C   UNL     1      38.721  25.913 -12.101  0.00  0.00    +0.048 A 
ATOM      6  C   UNL     1      38.336  26.601 -10.928  0.00  0.00    +0.116 A 
ATOM      7  N   UNL     1      37.026  26.565 -10.503  0.00  0.00    -0.223 NA
ATOM      8  C   UNL     1      36.066  25.863 -11.208  0.00  0.00    +0.220 A 
ATOM      9  N   UNL     1      34.744  25.807 -10.794  0.00  0.00    -0.283 N 
ATOM     36  H   UNL     1      34.065  25.284 -11.347  0.00  0.00    +0.155 HD
ATOM     37  N   UNL     1      36.408  25.199 -12.332  0.00  0.00    -0.214 NA
BRANCH   4   3
ATOM      1  C   UNL     1      37.380  22.601 -15.718  0.00  0.00    +0.020 A 
ATOM      2  C   UNL     1      37.094  23.320 -14.499  0.00  0.00    +0.013 A 
ATOM      3  C   UNL     1      37.951  24.416 -14.062  0.00  0.00    +0.019 A 
ATOM     38  C   UNL     1      39.097  24.762 -14.889  0.00  0.00    +0.120 A 
ATOM     39  N   UNL     1      39.348  24.050 -16.058  0.00  0.00    -0.263 NA
ATOM     40  C   UNL     1      38.532  22.993 -16.488  0.00  0.00    +0.111 A 
ENDBRANCH   4   3
ENDBRANCH  10   9
BRANCH  12  13
ATOM     13  N   UNL     1      32.938  29.876  -8.575  0.00  0.00    -0.281 N 
ATOM     14  C   UNL     1      33.575  31.023  -8.131  0.00  0.00    +0.248 C 
ATOM     30  O   UNL     1      34.582  31.030  -7.439  0.00  0.00    -0.270 OA
ATOM     31  H   UNL     1      32.008  30.007  -8.975  0.00  0.00    +0.155 HD
BRANCH  14  15
ATOM     15  C   UNL     1      33.004  32.355  -8.498  0.00  0.00    +0.037 A 
ATOM     16  C   UNL     1      32.876  33.426  -7.506  0.00  0.00    +0.013 A 
ATOM     17  C   UNL     1      32.306  34.695  -7.882  0.00  0.00    +0.005 A 
ATOM     18  C   UNL     1      31.860  34.901  -9.258  0.00  0.00    -0.033 A 
ATOM     28  C   UNL     1      32.004  33.823 -10.223  0.00  0.00    +0.005 A 
ATOM     29  C   UNL     1      32.561  32.577  -9.858  0.00  0.00    +0.013 A 
BRANCH  18  19
ATOM     19  C   UNL     1      31.220  36.215  -9.742  0.00  0.00    +0.119 C 
BRANCH  19  20
ATOM     20  N   UNL     1      31.676  36.753 -11.059  0.00  0.00    -0.302 NA
ATOM     21  C   UNL     1      32.386  38.102 -10.914  0.00  0.00    +0.066 C 
ATOM     22  C   UNL     1      32.876  38.639 -12.298  0.00  0.00    -0.064 C 
ATOM     23  N   UNL     1      31.683  38.754 -13.248  0.00  0.00    +0.379 N 
ATOM     24  C   UNL     1      32.131  39.314 -14.532  0.00  0.00    -0.096 C 
ATOM     25  H   UNL     1      30.961  39.475 -12.799  0.00  0.00    -0.082 HD
ATOM     26  C   UNL     1      30.970  37.418 -13.396  0.00  0.00    -0.064 C 
ATOM     27  C   UNL     1      30.513  36.879 -12.012  0.00  0.00    +0.066 C 
ENDBRANCH  19  20
ENDBRANCH  18  19
ENDBRANCH  14  15
ENDBRANCH  12  13
TORSDOF 6
ENDMDL
