MODEL 1
REMARK VINA RESULT:     -10.9      0.000      0.000
REMARK  Name = C:\Users\Docking\Desktop\test protocol\1iep_ligandH.pdb
REMARK  8 active torsions:
REMARK  status: ('A' for Active; 'I' for Inactive)
REMARK    1  A    between atoms: _5  and  _11
REMARK    2  A    between atoms: _19  and  _21
REMARK    3  A    between atoms: _22  and  _66
REMARK    4  A    between atoms: _27  and  _30
REMARK    5  A    between atoms: _32  and  _33
REMARK    6  A    between atoms: _38  and  _43
REMARK    7  A    between atoms: _43  and  _46
REMARK    8  A    between atoms: _53  and  _55
REMARK                            x       y       z     vdW  Elec       q    Type
REMARK                         _______ _______ _______ _____ _____    ______ ____
ROOT
ATOM     10  C   UNL     1      16.475  27.308  -0.268  0.00  0.00    +0.038 A 
ATOM     11  C   UNL     1      16.624  28.167   0.850  0.00  0.00    +0.047 A 
ATOM     12  C   UNL     1      16.086  27.807   2.153  0.00  0.00    +0.035 A 
ATOM     32  C   UNL     1      15.405  26.561   2.281  0.00  0.00    +0.024 A 
ATOM     33  C   UNL     1      15.244  25.676   1.154  0.00  0.00    +0.007 A 
ATOM     34  C   UNL     1      15.770  26.028  -0.133  0.00  0.00    -0.029 A 
ATOM     35  C   UNL     1      15.562  25.043  -1.308  0.00  0.00    +0.045 C 
ENDROOT
BRANCH  10   9
ATOM      4  C   UNL     1      19.985  27.337  -3.543  0.00  0.00    +0.077 A 
ATOM      5  C   UNL     1      20.832  26.514  -2.728  0.00  0.00    +0.048 A 
ATOM      6  C   UNL     1      20.330  26.112  -1.470  0.00  0.00    +0.116 A 
ATOM      7  N   UNL     1      19.073  26.507  -1.067  0.00  0.00    -0.223 NA
ATOM      8  C   UNL     1      18.282  27.301  -1.877  0.00  0.00    +0.220 A 
ATOM      9  N   UNL     1      17.012  27.704  -1.495  0.00  0.00    -0.283 N 
ATOM     36  H   UNL     1      16.462  28.297  -2.118  0.00  0.00    +0.155 HD
ATOM     37  N   UNL     1      18.739  27.701  -3.082  0.00  0.00    -0.214 NA
BRANCH   4   3
ATOM      1  C   UNL     1      21.920  27.942  -6.887  0.00  0.00    +0.020 A 
ATOM      2  C   UNL     1      21.593  27.426  -5.578  0.00  0.00    +0.013 A 
ATOM      3  C   UNL     1      20.372  27.840  -4.898  0.00  0.00    +0.019 A 
ATOM     38  C   UNL     1      19.497  28.785  -5.576  0.00  0.00    +0.120 A 
ATOM     39  N   UNL     1      19.839  29.266  -6.836  0.00  0.00    -0.263 NA
ATOM     40  C   UNL     1      21.012  28.876  -7.499  0.00  0.00    +0.111 A 
ENDBRANCH   4   3
ENDBRANCH  10   9
BRANCH  12  13
ATOM     13  N   UNL     1      16.199  28.642   3.323  0.00  0.00    -0.281 N 
ATOM     14  C   UNL     1      15.238  29.478   3.868  0.00  0.00    +0.248 C 
ATOM     30  O   UNL     1      14.201  29.798   3.306  0.00  0.00    -0.270 OA
ATOM     31  H   UNL     1      17.096  28.614   3.807  0.00  0.00    +0.155 HD
BRANCH  14  15
ATOM     15  C   UNL     1      15.469  30.054   5.228  0.00  0.00    +0.037 A 
ATOM     16  C   UNL     1      14.471  29.915   6.292  0.00  0.00    +0.013 A 
ATOM     17  C   UNL     1      14.712  30.494   7.589  0.00  0.00    +0.005 A 
ATOM     18  C   UNL     1      15.959  31.217   7.831  0.00  0.00    -0.033 A 
ATOM     28  C   UNL     1      16.934  31.335   6.759  0.00  0.00    +0.005 A 
ATOM     29  C   UNL     1      16.701  30.769   5.486  0.00  0.00    +0.013 A 
BRANCH  18  19
ATOM     19  C   UNL     1      16.291  31.885   9.178  0.00  0.00    +0.119 C 
BRANCH  19  20
ATOM     20  N   UNL     1      16.669  33.330   9.150  0.00  0.00    -0.302 NA
ATOM     21  C   UNL     1      17.173  33.818  10.511  0.00  0.00    +0.066 C 
ATOM     22  C   UNL     1      17.586  35.325  10.458  0.00  0.00    -0.064 C 
ATOM     23  N   UNL     1      16.393  36.161   9.990  0.00  0.00    +0.379 N 
ATOM     24  C   UNL     1      16.761  37.585   9.994  0.00  0.00    -0.096 C 
ATOM     25  H   UNL     1      15.572  36.021  10.730  0.00  0.00    -0.082 HD
ATOM     26  C   UNL     1      15.884  35.681   8.639  0.00  0.00    -0.064 C 
ATOM     27  C   UNL     1      15.505  34.175   8.695  0.00  0.00    +0.066 C 
ENDBRANCH  19  20
ENDBRANCH  18  19
ENDBRANCH  14  15
ENDBRANCH  12  13
TORSDOF 6
ENDMDL
MODEL 2
REMARK VINA RESULT:     -10.6      4.850     13.927
REMARK  Name = C:\Users\Docking\Desktop\test protocol\1iep_ligandH.pdb
REMARK  8 active torsions:
REMARK  status: ('A' for Active; 'I' for Inactive)
REMARK    1  A    between atoms: _5  and  _11
REMARK    2  A    between atoms: _19  and  _21
REMARK    3  A    between atoms: _22  and  _66
REMARK    4  A    between atoms: _27  and  _30
REMARK    5  A    between atoms: _32  and  _33
REMARK    6  A    between atoms: _38  and  _43
REMARK    7  A    between atoms: _43  and  _46
REMARK    8  A    between atoms: _53  and  _55
REMARK                            x       y       z     vdW  Elec       q    Type
REMARK                         _______ _______ _______ _____ _____    ______ ____
ROOT
ATOM     10  C   UNL     1      17.400  27.125  -0.663  0.00  0.00    +0.038 A 
ATOM     11  C   UNL     1      17.898  27.683  -1.868  0.00  0.00    +0.047 A 
ATOM     12  C   UNL     1      19.212  27.324  -2.377  0.00  0.00    +0.035 A 
ATOM     32  C   UNL     1      19.992  26.390  -1.634  0.00  0.00    +0.024 A 
ATOM     33  C   UNL     1      19.502  25.813  -0.407  0.00  0.00    +0.007 A 
ATOM     34  C   UNL     1      18.207  26.166   0.101  0.00  0.00    -0.029 A 
ATOM     35  C   UNL     1      17.735  25.522   1.425  0.00  0.00    +0.045 C 
ENDROOT
BRANCH  10   9
ATOM      4  C   UNL     1      14.485  29.295   2.472  0.00  0.00    +0.077 A 
ATOM      5  C   UNL     1      15.580  29.681   3.314  0.00  0.00    +0.048 A 
ATOM      6  C   UNL     1      16.878  29.295   2.908  0.00  0.00    +0.116 A 
ATOM      7  N   UNL     1      17.054  28.577   1.745  0.00  0.00    -0.223 NA
ATOM      8  C   UNL     1      15.976  28.220   0.957  0.00  0.00    +0.220 A 
ATOM      9  N   UNL     1      16.131  27.505  -0.221  0.00  0.00    -0.283 N 
ATOM     36  H   UNL     1      15.309  27.255  -0.770  0.00  0.00    +0.155 HD
ATOM     37  N   UNL     1      14.727  28.575   1.324  0.00  0.00    -0.214 NA
BRANCH   4   3
ATOM      1  C   UNL     1      11.261  30.797   4.101  0.00  0.00    +0.020 A 
ATOM      2  C   UNL     1      12.655  30.504   3.862  0.00  0.00    +0.013 A 
ATOM      3  C   UNL     1      13.055  29.631   2.765  0.00  0.00    +0.019 A 
ATOM     38  C   UNL     1      12.012  29.068   1.921  0.00  0.00    +0.120 A 
ATOM     39  N   UNL     1      10.677  29.367   2.177  0.00  0.00    -0.263 NA
ATOM     40  C   UNL     1      10.280  30.204   3.230  0.00  0.00    +0.111 A 
ENDBRANCH   4   3
ENDBRANCH  10   9
BRANCH  12  13
ATOM     13  N   UNL     1      19.774  27.865  -3.590  0.00  0.00    -0.281 N 
ATOM     14  C   UNL     1      20.787  27.332  -4.371  0.00  0.00    +0.248 C 
ATOM     30  O   UNL     1      21.513  26.412  -4.026  0.00  0.00    -0.270 OA
ATOM     31  H   UNL     1      19.377  28.747  -3.912  0.00  0.00    +0.155 HD
BRANCH  14  15
ATOM     15  C   UNL     1      21.038  27.915  -5.724  0.00  0.00    +0.037 A 
ATOM     16  C   UNL     1      20.079  28.831  -6.346  0.00  0.00    +0.013 A 
ATOM     17  C   UNL     1      20.338  29.366  -7.660  0.00  0.00    +0.005 A 
ATOM     18  C   UNL     1      21.562  28.986  -8.359  0.00  0.00    -0.033 A 
ATOM     28  C   UNL     1      22.499  28.079  -7.716  0.00  0.00    +0.005 A 
ATOM     29  C   UNL     1      22.248  27.552  -6.429  0.00  0.00    +0.013 A 
BRANCH  18  19
ATOM     19  C   UNL     1      21.910  29.491  -9.772  0.00  0.00    +0.119 C 
BRANCH  19  20
ATOM     20  N   UNL     1      20.783  29.641 -10.741  0.00  0.00    -0.302 NA
ATOM     21  C   UNL     1      20.015  28.331 -10.935  0.00  0.00    +0.066 C 
ATOM     22  C   UNL     1      18.826  28.511 -11.935  0.00  0.00    -0.064 C 
ATOM     23  N   UNL     1      19.361  29.029 -13.271  0.00  0.00    +0.379 N 
ATOM     24  C   UNL     1      18.254  29.144 -14.231  0.00  0.00    -0.096 C 
ATOM     25  H   UNL     1      20.074  28.269 -13.667  0.00  0.00    -0.082 HD
ATOM     26  C   UNL     1      20.129  30.330 -13.086  0.00  0.00    -0.064 C 
ATOM     27  C   UNL     1      21.290  30.147 -12.069  0.00  0.00    +0.066 C 
ENDBRANCH  19  20
ENDBRANCH  18  19
ENDBRANCH  14  15
ENDBRANCH  12  13
TORSDOF 6
ENDMDL
MODEL 3
REMARK VINA RESULT:     -10.6      7.060     14.103
REMARK  Name = C:\Users\Docking\Desktop\test protocol\1iep_ligandH.pdb
REMARK  8 active torsions:
REMARK  status: ('A' for Active; 'I' for Inactive)
REMARK    1  A    between atoms: _5  and  _11
REMARK    2  A    between atoms: _19  and  _21
REMARK    3  A    between atoms: _22  and  _66
REMARK    4  A    between atoms: _27  and  _30
REMARK    5  A    between atoms: _32  and  _33
REMARK    6  A    between atoms: _38  and  _43
REMARK    7  A    between atoms: _43  and  _46
REMARK    8  A    between atoms: _53  and  _55
REMARK                            x       y       z     vdW  Elec       q    Type
REMARK                         _______ _______ _______ _____ _____    ______ ____
ROOT
ATOM     10  C   UNL     1      17.527  26.970  -0.809  0.00  0.00    +0.038 A 
ATOM     11  C   UNL     1      17.851  27.571  -2.052  0.00  0.00    +0.047 A 
ATOM     12  C   UNL     1      19.176  27.431  -2.634  0.00  0.00    +0.035 A 
ATOM     32  C   UNL     1      20.149  26.669  -1.924  0.00  0.00    +0.024 A 
ATOM     33  C   UNL     1      19.838  26.051  -0.658  0.00  0.00    +0.007 A 
ATOM     34  C   UNL     1      18.532  26.188  -0.078  0.00  0.00    -0.029 A 
ATOM     35  C   UNL     1      18.256  25.510   1.284  0.00  0.00    +0.045 C 
ENDROOT
BRANCH  10   9
ATOM      4  C   UNL     1      12.997  25.509  -0.189  0.00  0.00    +0.077 A 
ATOM      5  C   UNL     1      13.209  24.327  -0.973  0.00  0.00    +0.048 A 
ATOM      6  C   UNL     1      14.495  24.136  -1.525  0.00  0.00    +0.116 A 
ATOM      7  N   UNL     1      15.489  25.064  -1.302  0.00  0.00    -0.223 NA
ATOM      8  C   UNL     1      15.252  26.194  -0.541  0.00  0.00    +0.220 A 
ATOM      9  N   UNL     1      16.239  27.137  -0.297  0.00  0.00    -0.283 N 
ATOM     36  H   UNL     1      16.022  27.961   0.263  0.00  0.00    +0.155 HD
ATOM     37  N   UNL     1      14.031  26.401  -0.005  0.00  0.00    -0.214 NA
BRANCH   4   3
ATOM      1  C   UNL     1       9.470  25.226   1.478  0.00  0.00    +0.020 A 
ATOM      2  C   UNL     1      10.714  24.843   0.851  0.00  0.00    +0.013 A 
ATOM      3  C   UNL     1      11.694  25.851   0.463  0.00  0.00    +0.019 A 
ATOM     38  C   UNL     1      11.381  27.247   0.727  0.00  0.00    +0.120 A 
ATOM     39  N   UNL     1      10.175  27.586   1.331  0.00  0.00    -0.263 NA
ATOM     40  C   UNL     1       9.224  26.626   1.707  0.00  0.00    +0.111 A 
ENDBRANCH   4   3
ENDBRANCH  10   9
BRANCH  12  13
ATOM     13  N   UNL     1      19.565  28.026  -3.889  0.00  0.00    -0.281 N 
ATOM     14  C   UNL     1      20.663  27.717  -4.674  0.00  0.00    +0.248 C 
ATOM     30  O   UNL     1      21.601  27.024  -4.308  0.00  0.00    -0.270 OA
ATOM     31  H   UNL     1      18.956  28.765  -4.241  0.00  0.00    +0.155 HD
BRANCH  14  15
ATOM     15  C   UNL     1      20.738  28.269  -6.061  0.00  0.00    +0.037 A 
ATOM     16  C   UNL     1      21.924  28.065  -6.897  0.00  0.00    +0.013 A 
ATOM     17  C   UNL     1      21.976  28.623  -8.225  0.00  0.00    +0.005 A 
ATOM     18  C   UNL     1      20.838  29.389  -8.726  0.00  0.00    -0.033 A 
ATOM     28  C   UNL     1      19.672  29.571  -7.877  0.00  0.00    +0.005 A 
ATOM     29  C   UNL     1      19.617  29.027  -6.575  0.00  0.00    +0.013 A 
BRANCH  18  19
ATOM     19  C   UNL     1      20.815  30.038 -10.123  0.00  0.00    +0.119 C 
BRANCH  19  20
ATOM     20  N   UNL     1      21.912  29.668 -11.066  0.00  0.00    -0.302 NA
ATOM     21  C   UNL     1      23.221  30.393 -10.739  0.00  0.00    +0.066 C 
ATOM     22  C   UNL     1      24.363  29.978 -11.722  0.00  0.00    -0.064 C 
ATOM     23  N   UNL     1      23.927  30.269 -13.159  0.00  0.00    +0.379 N 
ATOM     24  C   UNL     1      25.022  29.933 -14.081  0.00  0.00    -0.096 C 
ATOM     25  H   UNL     1      23.741  31.365 -13.240  0.00  0.00    -0.082 HD
ATOM     26  C   UNL     1      22.626  29.553 -13.492  0.00  0.00    -0.064 C 
ATOM     27  C   UNL     1      21.505  29.951 -12.491  0.00  0.00    +0.066 C 
ENDBRANCH  19  20
ENDBRANCH  18  19
ENDBRANCH  14  15
ENDBRANCH  12  13
TORSDOF 6
ENDMDL
MODEL 4
REMARK VINA RESULT:     -10.4      2.585     13.440
REMARK  Name = C:\Users\Docking\Desktop\test protocol\1iep_ligandH.pdb
REMARK  8 active torsions:
REMARK  status: ('A' for Active; 'I' for Inactive)
REMARK    1  A    between atoms: _5  and  _11
REMARK    2  A    between atoms: _19  and  _21
REMARK    3  A    between atoms: _22  and  _66
REMARK    4  A    between atoms: _27  and  _30
REMARK    5  A    between atoms: _32  and  _33
REMARK    6  A    between atoms: _38  and  _43
REMARK    7  A    between atoms: _43  and  _46
REMARK    8  A    between atoms: _53  and  _55
REMARK                            x       y       z     vdW  Elec       q    Type
REMARK                         _______ _______ _______ _____ _____    ______ ____
ROOT
ATOM     10  C   UNL     1      16.896  27.238   1.019  0.00  0.00    +0.038 A 
ATOM     11  C   UNL     1      17.748  27.710  -0.012  0.00  0.00    +0.047 A 
ATOM     12  C   UNL     1      17.702  27.136  -1.348  0.00  0.00    +0.035 A 
ATOM     32  C   UNL     1      16.773  26.085  -1.600  0.00  0.00    +0.024 A 
ATOM     33  C   UNL     1      15.900  25.593  -0.564  0.00  0.00    +0.007 A 
ATOM     34  C   UNL     1      15.943  26.153   0.757  0.00  0.00    -0.029 A 
ATOM     35  C   UNL     1      14.988  25.581   1.830  0.00  0.00    +0.045 C 
ENDROOT
BRANCH  10   9
ATOM      4  C   UNL     1      15.087  29.890   4.587  0.00  0.00    +0.077 A 
ATOM      5  C   UNL     1      13.878  30.152   3.859  0.00  0.00    +0.048 A 
ATOM      6  C   UNL     1      13.765  29.591   2.567  0.00  0.00    +0.116 A 
ATOM      7  N   UNL     1      14.789  28.827   2.052  0.00  0.00    -0.223 NA
ATOM      8  C   UNL     1      15.942  28.596   2.779  0.00  0.00    +0.220 A 
ATOM      9  N   UNL     1      16.982  27.825   2.284  0.00  0.00    -0.283 N 
ATOM     36  H   UNL     1      17.819  27.684   2.848  0.00  0.00    +0.155 HD
ATOM     37  N   UNL     1      16.076  29.122   4.015  0.00  0.00    -0.214 NA
BRANCH   4   3
ATOM      1  C   UNL     1      14.717  30.784   8.377  0.00  0.00    +0.020 A 
ATOM      2  C   UNL     1      14.409  30.263   7.065  0.00  0.00    +0.013 A 
ATOM      3  C   UNL     1      15.354  30.411   5.965  0.00  0.00    +0.019 A 
ATOM     38  C   UNL     1      16.612  31.094   6.229  0.00  0.00    +0.120 A 
ATOM     39  N   UNL     1      16.880  31.586   7.502  0.00  0.00    -0.263 NA
ATOM     40  C   UNL     1      15.977  31.452   8.568  0.00  0.00    +0.111 A 
ENDBRANCH   4   3
ENDBRANCH  10   9
BRANCH  12  13
ATOM     13  N   UNL     1      18.549  27.569  -2.432  0.00  0.00    -0.281 N 
ATOM     14  C   UNL     1      19.747  27.015  -2.850  0.00  0.00    +0.248 C 
ATOM     30  O   UNL     1      20.384  26.187  -2.215  0.00  0.00    -0.270 OA
ATOM     31  H   UNL     1      18.225  28.383  -2.955  0.00  0.00    +0.155 HD
BRANCH  14  15
ATOM     15  C   UNL     1      20.330  27.454  -4.154  0.00  0.00    +0.037 A 
ATOM     16  C   UNL     1      21.590  26.894  -4.650  0.00  0.00    +0.013 A 
ATOM     17  C   UNL     1      22.139  27.348  -5.903  0.00  0.00    +0.005 A 
ATOM     18  C   UNL     1      21.427  28.367  -6.670  0.00  0.00    -0.033 A 
ATOM     28  C   UNL     1      20.177  28.902  -6.156  0.00  0.00    +0.005 A 
ATOM     29  C   UNL     1      19.636  28.461  -4.928  0.00  0.00    +0.013 A 
BRANCH  18  19
ATOM     19  C   UNL     1      21.950  28.926  -8.007  0.00  0.00    +0.119 C 
BRANCH  19  20
ATOM     20  N   UNL     1      20.934  29.296  -9.037  0.00  0.00    -0.302 NA
ATOM     21  C   UNL     1      19.963  28.147  -9.324  0.00  0.00    +0.066 C 
ATOM     22  C   UNL     1      18.893  28.559 -10.388  0.00  0.00    -0.064 C 
ATOM     23  N   UNL     1      19.599  29.004 -11.670  0.00  0.00    +0.379 N 
ATOM     24  C   UNL     1      18.595  29.337 -12.692  0.00  0.00    -0.096 C 
ATOM     25  H   UNL     1      20.192  28.139 -12.047  0.00  0.00    -0.082 HD
ATOM     26  C   UNL     1      20.569  30.144 -11.393  0.00  0.00    -0.064 C 
ATOM     27  C   UNL     1      21.609  29.735 -10.313  0.00  0.00    +0.066 C 
ENDBRANCH  19  20
ENDBRANCH  18  19
ENDBRANCH  14  15
ENDBRANCH  12  13
TORSDOF 6
ENDMDL
MODEL 5
REMARK VINA RESULT:      -8.1     19.674     22.625
REMARK  Name = C:\Users\Docking\Desktop\test protocol\1iep_ligandH.pdb
REMARK  8 active torsions:
REMARK  status: ('A' for Active; 'I' for Inactive)
REMARK    1  A    between atoms: _5  and  _11
REMARK    2  A    between atoms: _19  and  _21
REMARK    3  A    between atoms: _22  and  _66
REMARK    4  A    between atoms: _27  and  _30
REMARK    5  A    between atoms: _32  and  _33
REMARK    6  A    between atoms: _38  and  _43
REMARK    7  A    between atoms: _43  and  _46
REMARK    8  A    between atoms: _53  and  _55
REMARK                            x       y       z     vdW  Elec       q    Type
REMARK                         _______ _______ _______ _____ _____    ______ ____
ROOT
ATOM     10  C   UNL     1      34.314  29.037 -11.612  0.00  0.00    +0.038 A 
ATOM     11  C   UNL     1      34.147  28.012 -10.646  0.00  0.00    +0.047 A 
ATOM     12  C   UNL     1      34.866  26.752 -10.754  0.00  0.00    +0.035 A 
ATOM     32  C   UNL     1      35.750  26.571 -11.857  0.00  0.00    +0.024 A 
ATOM     33  C   UNL     1      35.931  27.602 -12.849  0.00  0.00    +0.007 A 
ATOM     34  C   UNL     1      35.223  28.846 -12.749  0.00  0.00    -0.029 A 
ATOM     35  C   UNL     1      35.451  29.913 -13.845  0.00  0.00    +0.045 C 
ENDROOT
BRANCH  10   9
ATOM      4  C   UNL     1      33.941  33.595 -10.154  0.00  0.00    +0.077 A 
ATOM      5  C   UNL     1      35.276  33.598  -9.628  0.00  0.00    +0.048 A 
ATOM      6  C   UNL     1      36.022  32.404  -9.746  0.00  0.00    +0.116 A 
ATOM      7  N   UNL     1      35.466  31.296 -10.348  0.00  0.00    -0.223 NA
ATOM      8  C   UNL     1      34.176  31.327 -10.844  0.00  0.00    +0.220 A 
ATOM      9  N   UNL     1      33.599  30.227 -11.460  0.00  0.00    -0.283 N 
ATOM     36  H   UNL     1      32.641  30.287 -11.806  0.00  0.00    +0.155 HD
ATOM     37  N   UNL     1      33.441  32.454 -10.742  0.00  0.00    -0.214 NA
BRANCH   4   3
ATOM      1  C   UNL     1      30.980  35.995  -9.276  0.00  0.00    +0.020 A 
ATOM      2  C   UNL     1      31.827  34.824  -9.284  0.00  0.00    +0.013 A 
ATOM      3  C   UNL     1      33.029  34.781 -10.108  0.00  0.00    +0.019 A 
ATOM     38  C   UNL     1      33.348  35.948 -10.917  0.00  0.00    +0.120 A 
ATOM     39  N   UNL     1      32.512  37.060 -10.890  0.00  0.00    -0.263 NA
ATOM     40  C   UNL     1      31.352  37.113 -10.102  0.00  0.00    +0.111 A 
ENDBRANCH   4   3
ENDBRANCH  10   9
BRANCH  12  13
ATOM     13  N   UNL     1      34.731  25.672  -9.808  0.00  0.00    -0.281 N 
ATOM     14  C   UNL     1      34.289  25.739  -8.497  0.00  0.00    +0.248 C 
ATOM     30  O   UNL     1      34.145  26.777  -7.868  0.00  0.00    -0.270 OA
ATOM     31  H   UNL     1      34.992  24.746 -10.146  0.00  0.00    +0.155 HD
BRANCH  14  15
ATOM     15  C   UNL     1      33.976  24.468  -7.774  0.00  0.00    +0.037 A 
ATOM     16  C   UNL     1      34.703  23.230  -8.065  0.00  0.00    +0.013 A 
ATOM     17  C   UNL     1      34.370  22.014  -7.366  0.00  0.00    +0.005 A 
ATOM     18  C   UNL     1      33.304  22.032  -6.368  0.00  0.00    -0.033 A 
ATOM     28  C   UNL     1      32.602  23.275  -6.095  0.00  0.00    +0.005 A 
ATOM     29  C   UNL     1      32.925  24.469  -6.779  0.00  0.00    +0.013 A 
BRANCH  18  19
ATOM     19  C   UNL     1      32.867  20.777  -5.589  0.00  0.00    +0.119 C 
BRANCH  19  20
ATOM     20  N   UNL     1      33.829  19.636  -5.535  0.00  0.00    -0.302 NA
ATOM     21  C   UNL     1      33.611  18.646  -6.682  0.00  0.00    +0.066 C 
ATOM     22  C   UNL     1      34.640  17.471  -6.623  0.00  0.00    -0.064 C 
ATOM     23  N   UNL     1      34.528  16.766  -5.270  0.00  0.00    +0.379 N 
ATOM     24  C   UNL     1      35.454  15.624  -5.234  0.00  0.00    -0.096 C 
ATOM     25  H   UNL     1      33.492  16.364  -5.183  0.00  0.00    -0.082 HD
ATOM     26  C   UNL     1      34.741  17.744  -4.124  0.00  0.00    -0.064 C 
ATOM     27  C   UNL     1      33.732  18.923  -4.209  0.00  0.00    +0.066 C 
ENDBRANCH  19  20
ENDBRANCH  18  19
ENDBRANCH  14  15
ENDBRANCH  12  13
TORSDOF 6
ENDMDL
