MODEL 1
REMARK VINA RESULT:      -9.9      0.000      0.000
REMARK  Name = C:\Users\Docking\Desktop\test protocol\1iep_ligandH.pdb
REMARK  8 active torsions:
REMARK  status: ('A' for Active; 'I' for Inactive)
REMARK    1  A    between atoms: _5  and  _11
REMARK    2  A    between atoms: _19  and  _21
REMARK    3  A    between atoms: _22  and  _66
REMARK    4  A    between atoms: _27  and  _30
REMARK    5  A    between atoms: _32  and  _33
REMARK    6  A    between atoms: _38  and  _43
REMARK    7  A    between atoms: _43  and  _46
REMARK    8  A    between atoms: _53  and  _55
REMARK                            x       y       z     vdW  Elec       q    Type
REMARK                         _______ _______ _______ _____ _____    ______ ____
ROOT
ATOM     10  C   UNL     1     -15.927 -21.062  20.328  0.00  0.00    +0.038 A 
ATOM     11  C   UNL     1     -14.780 -21.816  19.972  0.00  0.00    +0.047 A 
ATOM     12  C   UNL     1     -14.606 -23.185  20.431  0.00  0.00    +0.035 A 
ATOM     32  C   UNL     1     -15.622 -23.756  21.251  0.00  0.00    +0.024 A 
ATOM     33  C   UNL     1     -16.794 -23.004  21.624  0.00  0.00    +0.007 A 
ATOM     34  C   UNL     1     -16.970 -21.652  21.176  0.00  0.00    -0.029 A 
ATOM     35  C   UNL     1     -18.244 -20.891  21.612  0.00  0.00    +0.045 C 
ENDROOT
BRANCH  10   9
ATOM      4  C   UNL     1     -17.584 -17.816  17.205  0.00  0.00    +0.077 A 
ATOM      5  C   UNL     1     -18.253 -18.818  16.428  0.00  0.00    +0.048 A 
ATOM      6  C   UNL     1     -18.141 -20.158  16.861  0.00  0.00    +0.116 A 
ATOM      7  N   UNL     1     -17.411 -20.461  17.990  0.00  0.00    -0.223 NA
ATOM      8  C   UNL     1     -16.776 -19.471  18.716  0.00  0.00    +0.220 A 
ATOM      9  N   UNL     1     -16.043 -19.752  19.859  0.00  0.00    -0.283 N 
ATOM     36  H   UNL     1     -15.583 -18.993  20.362  0.00  0.00    +0.155 HD
ATOM     37  N   UNL     1     -16.867 -18.183  18.322  0.00  0.00    -0.214 NA
BRANCH   4   3
ATOM      1  C   UNL     1     -17.557 -13.917  17.521  0.00  0.00    +0.020 A 
ATOM      2  C   UNL     1     -17.526 -15.313  17.892  0.00  0.00    +0.013 A 
ATOM      3  C   UNL     1     -17.612 -16.355  16.876  0.00  0.00    +0.019 A 
ATOM     38  C   UNL     1     -17.728 -15.948  15.484  0.00  0.00    +0.120 A 
ATOM     39  N   UNL     1     -17.757 -14.596  15.158  0.00  0.00    -0.263 NA
ATOM     40  C   UNL     1     -17.677 -13.584  16.126  0.00  0.00    +0.111 A 
ENDBRANCH   4   3
ENDBRANCH  10   9
BRANCH  12  13
ATOM     13  N   UNL     1     -13.458 -23.996  20.108  0.00  0.00    -0.281 N 
ATOM     14  C   UNL     1     -12.322 -24.207  20.872  0.00  0.00    +0.248 C 
ATOM     30  O   UNL     1     -12.024 -23.555  21.862  0.00  0.00    -0.270 OA
ATOM     31  H   UNL     1     -13.488 -24.473  19.207  0.00  0.00    +0.155 HD
BRANCH  14  15
ATOM     15  C   UNL     1     -11.372 -25.288  20.469  0.00  0.00    +0.037 A 
ATOM     16  C   UNL     1     -11.823 -26.446  19.693  0.00  0.00    +0.013 A 
ATOM     17  C   UNL     1     -10.889 -27.483  19.333  0.00  0.00    +0.005 A 
ATOM     18  C   UNL     1      -9.493 -27.365  19.747  0.00  0.00    -0.033 A 
ATOM     28  C   UNL     1      -9.071 -26.203  20.512  0.00  0.00    +0.005 A 
ATOM     29  C   UNL     1      -9.984 -25.185  20.868  0.00  0.00    +0.013 A 
BRANCH  18  19
ATOM     19  C   UNL     1      -8.432 -28.434  19.425  0.00  0.00    +0.119 C 
BRANCH  19  20
ATOM     20  N   UNL     1      -8.212 -29.507  20.440  0.00  0.00    -0.302 NA
ATOM     21  C   UNL     1      -6.945 -29.266  21.266  0.00  0.00    +0.066 C 
ATOM     22  C   UNL     1      -6.743 -30.386  22.338  0.00  0.00    -0.064 C 
ATOM     23  N   UNL     1      -6.686 -31.748  21.644  0.00  0.00    +0.379 N 
ATOM     24  C   UNL     1      -6.438 -32.797  22.643  0.00  0.00    -0.096 C 
ATOM     25  H   UNL     1      -5.818 -31.735  20.944  0.00  0.00    -0.082 HD
ATOM     26  C   UNL     1      -7.941 -31.995  20.818  0.00  0.00    -0.064 C 
ATOM     27  C   UNL     1      -8.148 -30.861  19.776  0.00  0.00    +0.066 C 
ENDBRANCH  19  20
ENDBRANCH  18  19
ENDBRANCH  14  15
ENDBRANCH  12  13
TORSDOF 6
ENDMDL
MODEL 2
REMARK VINA RESULT:      -9.8      1.982      3.075
REMARK  Name = C:\Users\Docking\Desktop\test protocol\1iep_ligandH.pdb
REMARK  8 active torsions:
REMARK  status: ('A' for Active; 'I' for Inactive)
REMARK    1  A    between atoms: _5  and  _11
REMARK    2  A    between atoms: _19  and  _21
REMARK    3  A    between atoms: _22  and  _66
REMARK    4  A    between atoms: _27  and  _30
REMARK    5  A    between atoms: _32  and  _33
REMARK    6  A    between atoms: _38  and  _43
REMARK    7  A    between atoms: _43  and  _46
REMARK    8  A    between atoms: _53  and  _55
REMARK                            x       y       z     vdW  Elec       q    Type
REMARK                         _______ _______ _______ _____ _____    ______ ____
ROOT
ATOM     10  C   UNL     1     -15.964 -21.024  20.284  0.00  0.00    +0.038 A 
ATOM     11  C   UNL     1     -14.843 -21.794  19.883  0.00  0.00    +0.047 A 
ATOM     12  C   UNL     1     -14.676 -23.168  20.329  0.00  0.00    +0.035 A 
ATOM     32  C   UNL     1     -15.673 -23.728  21.180  0.00  0.00    +0.024 A 
ATOM     33  C   UNL     1     -16.819 -22.959  21.598  0.00  0.00    +0.007 A 
ATOM     34  C   UNL     1     -16.987 -21.602  21.164  0.00  0.00    -0.029 A 
ATOM     35  C   UNL     1     -18.232 -20.823  21.648  0.00  0.00    +0.045 C 
ENDROOT
BRANCH  10   9
ATOM      4  C   UNL     1     -17.589 -17.745  17.178  0.00  0.00    +0.077 A 
ATOM      5  C   UNL     1     -18.253 -18.739  16.385  0.00  0.00    +0.048 A 
ATOM      6  C   UNL     1     -18.146 -20.083  16.807  0.00  0.00    +0.116 A 
ATOM      7  N   UNL     1     -17.427 -20.398  17.939  0.00  0.00    -0.223 NA
ATOM      8  C   UNL     1     -16.797 -19.415  18.680  0.00  0.00    +0.220 A 
ATOM      9  N   UNL     1     -16.074 -19.709  19.826  0.00  0.00    -0.283 N 
ATOM     36  H   UNL     1     -15.618 -18.956  20.341  0.00  0.00    +0.155 HD
ATOM     37  N   UNL     1     -16.883 -18.124  18.297  0.00  0.00    -0.214 NA
BRANCH   4   3
ATOM      1  C   UNL     1     -17.644 -13.850  17.536  0.00  0.00    +0.020 A 
ATOM      2  C   UNL     1     -17.622 -15.250  17.893  0.00  0.00    +0.013 A 
ATOM      3  C   UNL     1     -17.612 -16.281  16.864  0.00  0.00    +0.019 A 
ATOM     38  C   UNL     1     -17.625 -15.859  15.471  0.00  0.00    +0.120 A 
ATOM     39  N   UNL     1     -17.647 -14.504  15.157  0.00  0.00    -0.263 NA
ATOM     40  C   UNL     1     -17.659 -13.503  16.139  0.00  0.00    +0.111 A 
ENDBRANCH   4   3
ENDBRANCH  10   9
BRANCH  12  13
ATOM     13  N   UNL     1     -13.554 -23.996  19.961  0.00  0.00    -0.281 N 
ATOM     14  C   UNL     1     -12.416 -24.267  20.703  0.00  0.00    +0.248 C 
ATOM     30  O   UNL     1     -12.091 -23.664  21.715  0.00  0.00    -0.270 OA
ATOM     31  H   UNL     1     -13.605 -24.436  19.042  0.00  0.00    +0.155 HD
BRANCH  14  15
ATOM     15  C   UNL     1     -11.500 -25.356  20.248  0.00  0.00    +0.037 A 
ATOM     16  C   UNL     1     -10.057 -25.289  20.497  0.00  0.00    +0.013 A 
ATOM     17  C   UNL     1      -9.193 -26.345  20.032  0.00  0.00    +0.005 A 
ATOM     18  C   UNL     1      -9.771 -27.479  19.314  0.00  0.00    -0.033 A 
ATOM     28  C   UNL     1     -11.206 -27.523  19.086  0.00  0.00    +0.005 A 
ATOM     29  C   UNL     1     -12.056 -26.490  19.539  0.00  0.00    +0.013 A 
BRANCH  18  19
ATOM     19  C   UNL     1      -8.922 -28.641  18.764  0.00  0.00    +0.119 C 
BRANCH  19  20
ATOM     20  N   UNL     1      -8.871 -28.808  17.281  0.00  0.00    -0.302 NA
ATOM     21  C   UNL     1      -7.796 -29.810  16.852  0.00  0.00    +0.066 C 
ATOM     22  C   UNL     1      -7.772 -29.990  15.299  0.00  0.00    -0.064 C 
ATOM     23  N   UNL     1      -7.542 -28.631  14.635  0.00  0.00    +0.379 N 
ATOM     24  C   UNL     1      -7.461 -28.805  13.177  0.00  0.00    -0.096 C 
ATOM     25  H   UNL     1      -6.555 -28.247  14.985  0.00  0.00    -0.082 HD
ATOM     26  C   UNL     1      -8.605 -27.627  15.058  0.00  0.00    -0.064 C 
ATOM     27  C   UNL     1      -8.640 -27.478  16.605  0.00  0.00    +0.066 C 
ENDBRANCH  19  20
ENDBRANCH  18  19
ENDBRANCH  14  15
ENDBRANCH  12  13
TORSDOF 6
ENDMDL
MODEL 3
REMARK VINA RESULT:      -9.5      2.280     13.199
REMARK  Name = C:\Users\Docking\Desktop\test protocol\1iep_ligandH.pdb
REMARK  8 active torsions:
REMARK  status: ('A' for Active; 'I' for Inactive)
REMARK    1  A    between atoms: _5  and  _11
REMARK    2  A    between atoms: _19  and  _21
REMARK    3  A    between atoms: _22  and  _66
REMARK    4  A    between atoms: _27  and  _30
REMARK    5  A    between atoms: _32  and  _33
REMARK    6  A    between atoms: _38  and  _43
REMARK    7  A    between atoms: _43  and  _46
REMARK    8  A    between atoms: _53  and  _55
REMARK                            x       y       z     vdW  Elec       q    Type
REMARK                         _______ _______ _______ _____ _____    ______ ____
ROOT
ATOM     10  C   UNL     1     -14.198 -22.447  21.974  0.00  0.00    +0.038 A 
ATOM     11  C   UNL     1     -14.483 -21.482  20.975  0.00  0.00    +0.047 A 
ATOM     12  C   UNL     1     -15.721 -20.718  20.997  0.00  0.00    +0.035 A 
ATOM     32  C   UNL     1     -16.646 -20.962  22.054  0.00  0.00    +0.024 A 
ATOM     33  C   UNL     1     -16.373 -21.940  23.077  0.00  0.00    +0.007 A 
ATOM     34  C   UNL     1     -15.155 -22.698  23.059  0.00  0.00    -0.029 A 
ATOM     35  C   UNL     1     -14.917 -23.738  24.179  0.00  0.00    +0.045 C 
ENDROOT
BRANCH  10   9
ATOM      4  C   UNL     1     -11.376 -25.826  20.063  0.00  0.00    +0.077 A 
ATOM      5  C   UNL     1     -12.396 -26.242  19.145  0.00  0.00    +0.048 A 
ATOM      6  C   UNL     1     -13.636 -25.566  19.201  0.00  0.00    +0.116 A 
ATOM      7  N   UNL     1     -13.829 -24.550  20.112  0.00  0.00    -0.223 NA
ATOM      8  C   UNL     1     -12.824 -24.175  20.985  0.00  0.00    +0.220 A 
ATOM      9  N   UNL     1     -12.994 -23.151  21.904  0.00  0.00    -0.283 N 
ATOM     36  H   UNL     1     -12.231 -22.909  22.536  0.00  0.00    +0.155 HD
ATOM     37  N   UNL     1     -11.632 -24.806  20.952  0.00  0.00    -0.214 NA
BRANCH   4   3
ATOM      1  C   UNL     1      -7.561 -26.392  20.716  0.00  0.00    +0.020 A 
ATOM      2  C   UNL     1      -8.856 -25.753  20.682  0.00  0.00    +0.013 A 
ATOM      3  C   UNL     1     -10.013 -26.442  20.124  0.00  0.00    +0.019 A 
ATOM     38  C   UNL     1      -9.824 -27.789  19.606  0.00  0.00    +0.120 A 
ATOM     39  N   UNL     1      -8.565 -28.379  19.651  0.00  0.00    -0.263 NA
ATOM     40  C   UNL     1      -7.444 -27.724  20.184  0.00  0.00    +0.111 A 
ENDBRANCH   4   3
ENDBRANCH  10   9
BRANCH  12  13
ATOM     13  N   UNL     1     -16.069 -19.731  20.005  0.00  0.00    -0.281 N 
ATOM     14  C   UNL     1     -16.603 -19.942  18.744  0.00  0.00    +0.248 C 
ATOM     30  O   UNL     1     -16.664 -21.031  18.193  0.00  0.00    -0.270 OA
ATOM     31  H   UNL     1     -15.901 -18.759  20.264  0.00  0.00    +0.155 HD
BRANCH  14  15
ATOM     15  C   UNL     1     -17.132 -18.772  17.980  0.00  0.00    +0.037 A 
ATOM     16  C   UNL     1     -18.320 -18.893  17.131  0.00  0.00    +0.013 A 
ATOM     17  C   UNL     1     -18.800 -17.753  16.391  0.00  0.00    +0.005 A 
ATOM     18  C   UNL     1     -18.090 -16.481  16.497  0.00  0.00    -0.033 A 
ATOM     28  C   UNL     1     -16.917 -16.387  17.350  0.00  0.00    +0.005 A 
ATOM     29  C   UNL     1     -16.443 -17.503  18.076  0.00  0.00    +0.013 A 
BRANCH  18  19
ATOM     19  C   UNL     1     -18.518 -15.218  15.726  0.00  0.00    +0.119 C 
BRANCH  19  20
ATOM     20  N   UNL     1     -17.519 -14.614  14.794  0.00  0.00    -0.302 NA
ATOM     21  C   UNL     1     -17.529 -13.084  14.855  0.00  0.00    +0.066 C 
ATOM     22  C   UNL     1     -16.462 -12.470  13.891  0.00  0.00    -0.064 C 
ATOM     23  N   UNL     1     -16.727 -12.957  12.465  0.00  0.00    +0.379 N 
ATOM     24  C   UNL     1     -15.762 -12.335  11.547  0.00  0.00    -0.096 C 
ATOM     25  H   UNL     1     -17.745 -12.608  12.173  0.00  0.00    -0.082 HD
ATOM     26  C   UNL     1     -16.723 -14.477  12.396  0.00  0.00    -0.064 C 
ATOM     27  C   UNL     1     -17.765 -15.078  13.380  0.00  0.00    +0.066 C 
ENDBRANCH  19  20
ENDBRANCH  18  19
ENDBRANCH  14  15
ENDBRANCH  12  13
TORSDOF 6
ENDMDL
MODEL 4
REMARK VINA RESULT:      -9.2     26.298     28.729
REMARK  Name = C:\Users\Docking\Desktop\test protocol\1iep_ligandH.pdb
REMARK  8 active torsions:
REMARK  status: ('A' for Active; 'I' for Inactive)
REMARK    1  A    between atoms: _5  and  _11
REMARK    2  A    between atoms: _19  and  _21
REMARK    3  A    between atoms: _22  and  _66
REMARK    4  A    between atoms: _27  and  _30
REMARK    5  A    between atoms: _32  and  _33
REMARK    6  A    between atoms: _38  and  _43
REMARK    7  A    between atoms: _43  and  _46
REMARK    8  A    between atoms: _53  and  _55
REMARK                            x       y       z     vdW  Elec       q    Type
REMARK                         _______ _______ _______ _____ _____    ______ ____
ROOT
ATOM     10  C   UNL     1       5.155  -4.004   9.368  0.00  0.00    +0.038 A 
ATOM     11  C   UNL     1       5.058  -5.197   8.607  0.00  0.00    +0.047 A 
ATOM     12  C   UNL     1       4.357  -5.221   7.333  0.00  0.00    +0.035 A 
ATOM     32  C   UNL     1       3.767  -4.011   6.863  0.00  0.00    +0.024 A 
ATOM     33  C   UNL     1       3.856  -2.790   7.624  0.00  0.00    +0.007 A 
ATOM     34  C   UNL     1       4.544  -2.761   8.883  0.00  0.00    -0.029 A 
ATOM     35  C   UNL     1       4.602  -1.425   9.660  0.00  0.00    +0.045 C 
ENDROOT
BRANCH  10   9
ATOM      4  C   UNL     1       9.189  -3.791  11.961  0.00  0.00    +0.077 A 
ATOM      5  C   UNL     1      10.002  -3.625  10.791  0.00  0.00    +0.048 A 
ATOM      6  C   UNL     1       9.344  -3.607   9.541  0.00  0.00    +0.116 A 
ATOM      7  N   UNL     1       7.975  -3.745   9.477  0.00  0.00    -0.223 NA
ATOM      8  C   UNL     1       7.220  -3.905  10.625  0.00  0.00    +0.220 A 
ATOM      9  N   UNL     1       5.841  -4.038  10.585  0.00  0.00    -0.283 N 
ATOM     36  H   UNL     1       5.321  -4.161  11.453  0.00  0.00    +0.155 HD
ATOM     37  N   UNL     1       7.825  -3.927  11.831  0.00  0.00    -0.214 NA
BRANCH   4   3
ATOM      1  C   UNL     1      11.563  -3.434  15.049  0.00  0.00    +0.020 A 
ATOM      2  C   UNL     1      11.082  -3.378  13.688  0.00  0.00    +0.013 A 
ATOM      3  C   UNL     1       9.736  -3.826  13.354  0.00  0.00    +0.019 A 
ATOM     38  C   UNL     1       8.895  -4.328  14.430  0.00  0.00    +0.120 A 
ATOM     39  N   UNL     1       9.385  -4.371  15.731  0.00  0.00    -0.263 NA
ATOM     40  C   UNL     1      10.679  -3.944  16.064  0.00  0.00    +0.111 A 
ENDBRANCH   4   3
ENDBRANCH  10   9
BRANCH  12  13
ATOM     13  N   UNL     1       4.219  -6.404   6.520  0.00  0.00    -0.281 N 
ATOM     14  C   UNL     1       5.211  -7.089   5.838  0.00  0.00    +0.248 C 
ATOM     30  O   UNL     1       6.341  -6.663   5.650  0.00  0.00    -0.270 OA
ATOM     31  H   UNL     1       3.275  -6.782   6.436  0.00  0.00    +0.155 HD
BRANCH  14  15
ATOM     15  C   UNL     1       4.899  -8.436   5.271  0.00  0.00    +0.037 A 
ATOM     16  C   UNL     1       5.964  -9.335   4.818  0.00  0.00    +0.013 A 
ATOM     17  C   UNL     1       5.634 -10.623   4.259  0.00  0.00    +0.005 A 
ATOM     18  C   UNL     1       4.232 -11.019   4.152  0.00  0.00    -0.033 A 
ATOM     28  C   UNL     1       3.196 -10.110   4.614  0.00  0.00    +0.005 A 
ATOM     29  C   UNL     1       3.515  -8.847   5.161  0.00  0.00    +0.013 A 
BRANCH  18  19
ATOM     19  C   UNL     1       3.788 -12.365   3.549  0.00  0.00    +0.119 C 
BRANCH  19  20
ATOM     20  N   UNL     1       2.961 -13.261   4.412  0.00  0.00    -0.302 NA
ATOM     21  C   UNL     1       3.807 -14.335   5.102  0.00  0.00    +0.066 C 
ATOM     22  C   UNL     1       2.929 -15.248   6.019  0.00  0.00    -0.064 C 
ATOM     23  N   UNL     1       1.819 -15.888   5.183  0.00  0.00    +0.379 N 
ATOM     24  C   UNL     1       1.028 -16.793   6.029  0.00  0.00    -0.096 C 
ATOM     25  H   UNL     1       2.304 -16.504   4.390  0.00  0.00    -0.082 HD
ATOM     26  C   UNL     1       0.975 -14.827   4.491  0.00  0.00    -0.064 C 
ATOM     27  C   UNL     1       1.860 -13.906   3.606  0.00  0.00    +0.066 C 
ENDBRANCH  19  20
ENDBRANCH  18  19
ENDBRANCH  14  15
ENDBRANCH  12  13
TORSDOF 6
ENDMDL
MODEL 5
REMARK VINA RESULT:      -9.2     26.362     28.984
REMARK  Name = C:\Users\Docking\Desktop\test protocol\1iep_ligandH.pdb
REMARK  8 active torsions:
REMARK  status: ('A' for Active; 'I' for Inactive)
REMARK    1  A    between atoms: _5  and  _11
REMARK    2  A    between atoms: _19  and  _21
REMARK    3  A    between atoms: _22  and  _66
REMARK    4  A    between atoms: _27  and  _30
REMARK    5  A    between atoms: _32  and  _33
REMARK    6  A    between atoms: _38  and  _43
REMARK    7  A    between atoms: _43  and  _46
REMARK    8  A    between atoms: _53  and  _55
REMARK                            x       y       z     vdW  Elec       q    Type
REMARK                         _______ _______ _______ _____ _____    ______ ____
ROOT
ATOM     10  C   UNL     1       5.441  -4.078   9.709  0.00  0.00    +0.038 A 
ATOM     11  C   UNL     1       5.275  -5.242   8.914  0.00  0.00    +0.047 A 
ATOM     12  C   UNL     1       4.534  -5.199   7.664  0.00  0.00    +0.035 A 
ATOM     32  C   UNL     1       3.977  -3.954   7.250  0.00  0.00    +0.024 A 
ATOM     33  C   UNL     1       4.135  -2.762   8.046  0.00  0.00    +0.007 A 
ATOM     34  C   UNL     1       4.863  -2.798   9.282  0.00  0.00    -0.029 A 
ATOM     35  C   UNL     1       4.996  -1.491  10.097  0.00  0.00    +0.045 C 
ENDROOT
BRANCH  10   9
ATOM      4  C   UNL     1       9.556  -4.055  12.179  0.00  0.00    +0.077 A 
ATOM      5  C   UNL     1      10.337  -3.859  10.992  0.00  0.00    +0.048 A 
ATOM      6  C   UNL     1       9.642  -3.776   9.764  0.00  0.00    +0.116 A 
ATOM      7  N   UNL     1       8.268  -3.883   9.739  0.00  0.00    -0.223 NA
ATOM      8  C   UNL     1       7.546  -4.074  10.902  0.00  0.00    +0.220 A 
ATOM      9  N   UNL     1       6.163  -4.176  10.900  0.00  0.00    -0.283 N 
ATOM     36  H   UNL     1       5.667  -4.324  11.779  0.00  0.00    +0.155 HD
ATOM     37  N   UNL     1       8.186  -4.158  12.087  0.00  0.00    -0.214 NA
BRANCH   4   3
ATOM      1  C   UNL     1      12.097  -4.355  15.138  0.00  0.00    +0.020 A 
ATOM      2  C   UNL     1      11.580  -4.257  13.793  0.00  0.00    +0.013 A 
ATOM      3  C   UNL     1      10.146  -4.160  13.552  0.00  0.00    +0.019 A 
ATOM     38  C   UNL     1       9.255  -4.164  14.703  0.00  0.00    +0.120 A 
ATOM     39  N   UNL     1       9.782  -4.261  15.987  0.00  0.00    -0.263 NA
ATOM     40  C   UNL     1      11.161  -4.357  16.231  0.00  0.00    +0.111 A 
ENDBRANCH   4   3
ENDBRANCH  10   9
BRANCH  12  13
ATOM     13  N   UNL     1       4.326  -6.350   6.819  0.00  0.00    -0.281 N 
ATOM     14  C   UNL     1       5.220  -6.929   5.934  0.00  0.00    +0.248 C 
ATOM     30  O   UNL     1       6.269  -6.415   5.575  0.00  0.00    -0.270 OA
ATOM     31  H   UNL     1       3.408  -6.790   6.882  0.00  0.00    +0.155 HD
BRANCH  14  15
ATOM     15  C   UNL     1       4.895  -8.267   5.353  0.00  0.00    +0.037 A 
ATOM     16  C   UNL     1       5.951  -9.168   4.882  0.00  0.00    +0.013 A 
ATOM     17  C   UNL     1       5.610 -10.446   4.310  0.00  0.00    +0.005 A 
ATOM     18  C   UNL     1       4.204 -10.832   4.207  0.00  0.00    -0.033 A 
ATOM     28  C   UNL     1       3.178  -9.922   4.687  0.00  0.00    +0.005 A 
ATOM     29  C   UNL     1       3.508  -8.668   5.247  0.00  0.00    +0.013 A 
BRANCH  18  19
ATOM     19  C   UNL     1       3.747 -12.167   3.591  0.00  0.00    +0.119 C 
BRANCH  19  20
ATOM     20  N   UNL     1       2.325 -12.570   3.809  0.00  0.00    -0.302 NA
ATOM     21  C   UNL     1       2.163 -13.456   5.047  0.00  0.00    +0.066 C 
ATOM     22  C   UNL     1       0.666 -13.849   5.273  0.00  0.00    -0.064 C 
ATOM     23  N   UNL     1       0.134 -14.557   4.026  0.00  0.00    +0.379 N 
ATOM     24  C   UNL     1      -1.255 -14.980   4.257  0.00  0.00    -0.096 C 
ATOM     25  H   UNL     1       0.746 -15.476   3.872  0.00  0.00    -0.082 HD
ATOM     26  C   UNL     1       0.295 -13.684   2.790  0.00  0.00    -0.064 C 
ATOM     27  C   UNL     1       1.781 -13.275   2.591  0.00  0.00    +0.066 C 
ENDBRANCH  19  20
ENDBRANCH  18  19
ENDBRANCH  14  15
ENDBRANCH  12  13
TORSDOF 6
ENDMDL
