MODEL 1
REMARK VINA RESULT:      -6.8      0.000      0.000
REMARK  Name = C:\Users\Docking\Desktop\test protocol\1iep_ligandH.pdb
REMARK  8 active torsions:
REMARK  status: ('A' for Active; 'I' for Inactive)
REMARK    1  A    between atoms: _5  and  _11
REMARK    2  A    between atoms: _19  and  _21
REMARK    3  A    between atoms: _22  and  _66
REMARK    4  A    between atoms: _27  and  _30
REMARK    5  A    between atoms: _32  and  _33
REMARK    6  A    between atoms: _38  and  _43
REMARK    7  A    between atoms: _43  and  _46
REMARK    8  A    between atoms: _53  and  _55
REMARK                            x       y       z     vdW  Elec       q    Type
REMARK                         _______ _______ _______ _____ _____    ______ ____
ROOT
ATOM     10  C   UNL     1      19.481  -9.573   0.506  0.00  0.00    +0.038 A 
ATOM     11  C   UNL     1      18.066  -9.493   0.434  0.00  0.00    +0.047 A 
ATOM     12  C   UNL     1      17.372  -9.570  -0.842  0.00  0.00    +0.035 A 
ATOM     32  C   UNL     1      18.150  -9.731  -2.026  0.00  0.00    +0.024 A 
ATOM     33  C   UNL     1      19.588  -9.813  -1.971  0.00  0.00    +0.007 A 
ATOM     34  C   UNL     1      20.279  -9.735  -0.715  0.00  0.00    -0.029 A 
ATOM     35  C   UNL     1      21.823  -9.822  -0.717  0.00  0.00    +0.045 C 
ENDROOT
BRANCH  10   9
ATOM      4  C   UNL     1      20.994 -11.548   4.610  0.00  0.00    +0.077 A 
ATOM      5  C   UNL     1      20.494 -12.841   4.242  0.00  0.00    +0.048 A 
ATOM      6  C   UNL     1      19.848 -12.954   2.990  0.00  0.00    +0.116 A 
ATOM      7  N   UNL     1      19.717 -11.849   2.177  0.00  0.00    -0.223 NA
ATOM      8  C   UNL     1      20.209 -10.616   2.563  0.00  0.00    +0.220 A 
ATOM      9  N   UNL     1      20.095  -9.494   1.757  0.00  0.00    -0.283 N 
ATOM     36  H   UNL     1      20.464  -8.601   2.082  0.00  0.00    +0.155 HD
ATOM     37  N   UNL     1      20.829 -10.482   3.754  0.00  0.00    -0.214 NA
BRANCH   4   3
ATOM      1  C   UNL     1      21.990 -11.518   8.393  0.00  0.00    +0.020 A 
ATOM      2  C   UNL     1      21.269 -11.818   7.177  0.00  0.00    +0.013 A 
ATOM      3  C   UNL     1      21.703 -11.269   5.899  0.00  0.00    +0.019 A 
ATOM     38  C   UNL     1      22.881 -10.413   5.885  0.00  0.00    +0.120 A 
ATOM     39  N   UNL     1      23.554 -10.141   7.072  0.00  0.00    -0.263 NA
ATOM     40  C   UNL     1      23.144 -10.663   8.308  0.00  0.00    +0.111 A 
ENDBRANCH   4   3
ENDBRANCH  10   9
BRANCH  12  13
ATOM     13  N   UNL     1      15.939  -9.487  -0.978  0.00  0.00    -0.281 N 
ATOM     14  C   UNL     1      15.204  -8.555  -1.692  0.00  0.00    +0.248 C 
ATOM     30  O   UNL     1      15.661  -7.519  -2.152  0.00  0.00    -0.270 OA
ATOM     31  H   UNL     1      15.401 -10.202  -0.487  0.00  0.00    +0.155 HD
BRANCH  14  15
ATOM     15  C   UNL     1      13.747  -8.803  -1.916  0.00  0.00    +0.037 A 
ATOM     16  C   UNL     1      13.116 -10.057  -1.496  0.00  0.00    +0.013 A 
ATOM     17  C   UNL     1      11.712 -10.277  -1.740  0.00  0.00    +0.005 A 
ATOM     18  C   UNL     1      10.930  -9.239  -2.406  0.00  0.00    -0.033 A 
ATOM     28  C   UNL     1      11.580  -8.003  -2.808  0.00  0.00    +0.005 A 
ATOM     29  C   UNL     1      12.956  -7.784  -2.572  0.00  0.00    +0.013 A 
BRANCH  18  19
ATOM     19  C   UNL     1       9.431  -9.397  -2.726  0.00  0.00    +0.119 C 
BRANCH  19  20
ATOM     20  N   UNL     1       8.482  -9.389  -1.573  0.00  0.00    -0.302 NA
ATOM     21  C   UNL     1       7.028  -9.546  -2.026  0.00  0.00    +0.066 C 
ATOM     22  C   UNL     1       6.050  -9.559  -0.805  0.00  0.00    -0.064 C 
ATOM     23  N   UNL     1       6.230  -8.272   0.001  0.00  0.00    +0.379 N 
ATOM     24  C   UNL     1       5.272  -8.253   1.116  0.00  0.00    -0.096 C 
ATOM     25  H   UNL     1       5.985  -7.415  -0.669  0.00  0.00    -0.082 HD
ATOM     26  C   UNL     1       7.674  -8.106   0.453  0.00  0.00    -0.064 C 
ATOM     27  C   UNL     1       8.640  -8.125  -0.765  0.00  0.00    +0.066 C 
ENDBRANCH  19  20
ENDBRANCH  18  19
ENDBRANCH  14  15
ENDBRANCH  12  13
TORSDOF 6
ENDMDL
MODEL 2
REMARK VINA RESULT:      -6.7     30.596     37.961
REMARK  Name = C:\Users\Docking\Desktop\test protocol\1iep_ligandH.pdb
REMARK  8 active torsions:
REMARK  status: ('A' for Active; 'I' for Inactive)
REMARK    1  A    between atoms: _5  and  _11
REMARK    2  A    between atoms: _19  and  _21
REMARK    3  A    between atoms: _22  and  _66
REMARK    4  A    between atoms: _27  and  _30
REMARK    5  A    between atoms: _32  and  _33
REMARK    6  A    between atoms: _38  and  _43
REMARK    7  A    between atoms: _43  and  _46
REMARK    8  A    between atoms: _53  and  _55
REMARK                            x       y       z     vdW  Elec       q    Type
REMARK                         _______ _______ _______ _____ _____    ______ ____
ROOT
ATOM     10  C   UNL     1      26.519 -25.463  36.816  0.00  0.00    +0.038 A 
ATOM     11  C   UNL     1      25.925 -25.063  35.591  0.00  0.00    +0.047 A 
ATOM     12  C   UNL     1      25.653 -26.027  34.537  0.00  0.00    +0.035 A 
ATOM     32  C   UNL     1      25.997 -27.392  34.764  0.00  0.00    +0.024 A 
ATOM     33  C   UNL     1      26.602 -27.815  36.002  0.00  0.00    +0.007 A 
ATOM     34  C   UNL     1      26.875 -26.868  37.045  0.00  0.00    -0.029 A 
ATOM     35  C   UNL     1      27.531 -27.378  38.350  0.00  0.00    +0.045 C 
ENDROOT
BRANCH  10   9
ATOM      4  C   UNL     1      25.177 -22.885  40.635  0.00  0.00    +0.077 A 
ATOM      5  C   UNL     1      23.881 -23.499  40.669  0.00  0.00    +0.048 A 
ATOM      6  C   UNL     1      23.597 -24.468  39.681  0.00  0.00    +0.116 A 
ATOM      7  N   UNL     1      24.546 -24.792  38.735  0.00  0.00    -0.223 NA
ATOM      8  C   UNL     1      25.785 -24.179  38.731  0.00  0.00    +0.220 A 
ATOM      9  N   UNL     1      26.758 -24.495  37.794  0.00  0.00    -0.283 N 
ATOM     36  H   UNL     1      27.657 -24.015  37.820  0.00  0.00    +0.155 HD
ATOM     37  N   UNL     1      26.081 -23.249  39.662  0.00  0.00    -0.214 NA
BRANCH   4   3
ATOM      1  C   UNL     1      27.138 -19.956  42.333  0.00  0.00    +0.020 A 
ATOM      2  C   UNL     1      26.743 -20.943  41.354  0.00  0.00    +0.013 A 
ATOM      3  C   UNL     1      25.628 -21.845  41.614  0.00  0.00    +0.019 A 
ATOM     38  C   UNL     1      24.928 -21.721  42.884  0.00  0.00    +0.120 A 
ATOM     39  N   UNL     1      25.332 -20.762  43.808  0.00  0.00    -0.263 NA
ATOM     40  C   UNL     1      26.404 -19.890  43.569  0.00  0.00    +0.111 A 
ENDBRANCH   4   3
ENDBRANCH  10   9
BRANCH  12  13
ATOM     13  N   UNL     1      25.060 -25.679  33.270  0.00  0.00    -0.281 N 
ATOM     14  C   UNL     1      23.740 -25.349  33.010  0.00  0.00    +0.248 C 
ATOM     30  O   UNL     1      22.819 -25.512  33.796  0.00  0.00    -0.270 OA
ATOM     31  H   UNL     1      25.689 -25.675  32.467  0.00  0.00    +0.155 HD
BRANCH  14  15
ATOM     15  C   UNL     1      23.390 -24.767  31.678  0.00  0.00    +0.037 A 
ATOM     16  C   UNL     1      24.159 -25.102  30.477  0.00  0.00    +0.013 A 
ATOM     17  C   UNL     1      23.810 -24.513  29.208  0.00  0.00    +0.005 A 
ATOM     18  C   UNL     1      22.686 -23.584  29.134  0.00  0.00    -0.033 A 
ATOM     28  C   UNL     1      21.937 -23.273  30.341  0.00  0.00    +0.005 A 
ATOM     29  C   UNL     1      22.276 -23.847  31.586  0.00  0.00    +0.013 A 
BRANCH  18  19
ATOM     19  C   UNL     1      22.256 -22.893  27.826  0.00  0.00    +0.119 C 
BRANCH  19  20
ATOM     20  N   UNL     1      21.437 -23.692  26.867  0.00  0.00    -0.302 NA
ATOM     21  C   UNL     1      20.532 -24.697  27.584  0.00  0.00    +0.066 C 
ATOM     22  C   UNL     1      19.665 -25.509  26.567  0.00  0.00    -0.064 C 
ATOM     23  N   UNL     1      20.584 -26.221  25.573  0.00  0.00    +0.379 N 
ATOM     24  C   UNL     1      19.775 -27.032  24.651  0.00  0.00    -0.096 C 
ATOM     25  H   UNL     1      21.235 -26.916  26.153  0.00  0.00    -0.082 HD
ATOM     26  C   UNL     1      21.490 -25.229  24.858  0.00  0.00    -0.064 C 
ATOM     27  C   UNL     1      22.325 -24.407  25.879  0.00  0.00    +0.066 C 
ENDBRANCH  19  20
ENDBRANCH  18  19
ENDBRANCH  14  15
ENDBRANCH  12  13
TORSDOF 6
ENDMDL
MODEL 3
REMARK VINA RESULT:      -6.7     15.341     21.241
REMARK  Name = C:\Users\Docking\Desktop\test protocol\1iep_ligandH.pdb
REMARK  8 active torsions:
REMARK  status: ('A' for Active; 'I' for Inactive)
REMARK    1  A    between atoms: _5  and  _11
REMARK    2  A    between atoms: _19  and  _21
REMARK    3  A    between atoms: _22  and  _66
REMARK    4  A    between atoms: _27  and  _30
REMARK    5  A    between atoms: _32  and  _33
REMARK    6  A    between atoms: _38  and  _43
REMARK    7  A    between atoms: _43  and  _46
REMARK    8  A    between atoms: _53  and  _55
REMARK                            x       y       z     vdW  Elec       q    Type
REMARK                         _______ _______ _______ _____ _____    ______ ____
ROOT
ATOM     10  C   UNL     1      19.938 -26.630  -4.381  0.00  0.00    +0.038 A 
ATOM     11  C   UNL     1      20.987 -26.641  -3.426  0.00  0.00    +0.047 A 
ATOM     12  C   UNL     1      21.849 -27.802  -3.267  0.00  0.00    +0.035 A 
ATOM     32  C   UNL     1      21.617 -28.934  -4.101  0.00  0.00    +0.024 A 
ATOM     33  C   UNL     1      20.555 -28.941  -5.077  0.00  0.00    +0.007 A 
ATOM     34  C   UNL     1      19.700 -27.800  -5.235  0.00  0.00    -0.029 A 
ATOM     35  C   UNL     1      18.573 -27.865  -6.293  0.00  0.00    +0.045 C 
ENDROOT
BRANCH  10   9
ATOM      4  C   UNL     1      18.593 -22.606  -6.625  0.00  0.00    +0.077 A 
ATOM      5  C   UNL     1      19.581 -22.779  -7.651  0.00  0.00    +0.048 A 
ATOM      6  C   UNL     1      20.419 -23.912  -7.561  0.00  0.00    +0.116 A 
ATOM      7  N   UNL     1      20.273 -24.800  -6.518  0.00  0.00    -0.223 NA
ATOM      8  C   UNL     1      19.311 -24.604  -5.544  0.00  0.00    +0.220 A 
ATOM      9  N   UNL     1      19.141 -25.489  -4.491  0.00  0.00    -0.283 N 
ATOM     36  H   UNL     1      18.425 -25.305  -3.788  0.00  0.00    +0.155 HD
ATOM     37  N   UNL     1      18.499 -23.529  -5.607  0.00  0.00    -0.214 NA
BRANCH   4   3
ATOM      1  C   UNL     1      16.544 -19.493  -5.437  0.00  0.00    +0.020 A 
ATOM      2  C   UNL     1      17.488 -20.587  -5.426  0.00  0.00    +0.013 A 
ATOM      3  C   UNL     1      17.630 -21.461  -6.583  0.00  0.00    +0.019 A 
ATOM     38  C   UNL     1      16.796 -21.199  -7.746  0.00  0.00    +0.120 A 
ATOM     39  N   UNL     1      15.893 -20.140  -7.728  0.00  0.00    -0.263 NA
ATOM     40  C   UNL     1      15.747 -19.293  -6.619  0.00  0.00    +0.111 A 
ENDBRANCH   4   3
ENDBRANCH  10   9
BRANCH  12  13
ATOM     13  N   UNL     1      22.924 -27.873  -2.309  0.00  0.00    -0.281 N 
ATOM     14  C   UNL     1      23.903 -26.927  -2.055  0.00  0.00    +0.248 C 
ATOM     30  O   UNL     1      24.130 -25.959  -2.766  0.00  0.00    -0.270 OA
ATOM     31  H   UNL     1      22.969 -28.726  -1.750  0.00  0.00    +0.155 HD
BRANCH  14  15
ATOM     15  C   UNL     1      24.763 -27.085  -0.843  0.00  0.00    +0.037 A 
ATOM     16  C   UNL     1      25.431 -25.934  -0.230  0.00  0.00    +0.013 A 
ATOM     17  C   UNL     1      26.269 -26.117   0.929  0.00  0.00    +0.005 A 
ATOM     18  C   UNL     1      26.442 -27.458   1.483  0.00  0.00    -0.033 A 
ATOM     28  C   UNL     1      25.763 -28.581   0.859  0.00  0.00    +0.005 A 
ATOM     29  C   UNL     1      24.942 -28.405  -0.278  0.00  0.00    +0.013 A 
BRANCH  18  19
ATOM     19  C   UNL     1      27.334 -27.749   2.704  0.00  0.00    +0.119 C 
BRANCH  19  20
ATOM     20  N   UNL     1      27.966 -26.579   3.384  0.00  0.00    -0.302 NA
ATOM     21  C   UNL     1      29.383 -26.895   3.871  0.00  0.00    +0.066 C 
ATOM     22  C   UNL     1      30.038 -25.653   4.560  0.00  0.00    -0.064 C 
ATOM     23  N   UNL     1      29.156 -25.193   5.721  0.00  0.00    +0.379 N 
ATOM     24  C   UNL     1      29.798 -24.062   6.407  0.00  0.00    -0.096 C 
ATOM     25  H   UNL     1      29.089 -26.036   6.449  0.00  0.00    -0.082 HD
ATOM     26  C   UNL     1      27.744 -24.880   5.246  0.00  0.00    -0.064 C 
ATOM     27  C   UNL     1      27.114 -26.111   4.538  0.00  0.00    +0.066 C 
ENDBRANCH  19  20
ENDBRANCH  18  19
ENDBRANCH  14  15
ENDBRANCH  12  13
TORSDOF 6
ENDMDL
MODEL 4
REMARK VINA RESULT:      -6.6     15.175     21.482
REMARK  Name = C:\Users\Docking\Desktop\test protocol\1iep_ligandH.pdb
REMARK  8 active torsions:
REMARK  status: ('A' for Active; 'I' for Inactive)
REMARK    1  A    between atoms: _5  and  _11
REMARK    2  A    between atoms: _19  and  _21
REMARK    3  A    between atoms: _22  and  _66
REMARK    4  A    between atoms: _27  and  _30
REMARK    5  A    between atoms: _32  and  _33
REMARK    6  A    between atoms: _38  and  _43
REMARK    7  A    between atoms: _43  and  _46
REMARK    8  A    between atoms: _53  and  _55
REMARK                            x       y       z     vdW  Elec       q    Type
REMARK                         _______ _______ _______ _____ _____    ______ ____
ROOT
ATOM     10  C   UNL     1      22.392 -26.989  -3.532  0.00  0.00    +0.038 A 
ATOM     11  C   UNL     1      23.120 -26.572  -2.388  0.00  0.00    +0.047 A 
ATOM     12  C   UNL     1      23.807 -27.534  -1.541  0.00  0.00    +0.035 A 
ATOM     32  C   UNL     1      23.734 -28.914  -1.889  0.00  0.00    +0.024 A 
ATOM     33  C   UNL     1      22.998 -29.356  -3.047  0.00  0.00    +0.007 A 
ATOM     34  C   UNL     1      22.316 -28.412  -3.885  0.00  0.00    -0.029 A 
ATOM     35  C   UNL     1      21.536 -28.943  -5.111  0.00  0.00    +0.045 C 
ENDROOT
BRANCH  10   9
ATOM      4  C   UNL     1      18.480 -24.569  -4.901  0.00  0.00    +0.077 A 
ATOM      5  C   UNL     1      17.637 -25.311  -4.010  0.00  0.00    +0.048 A 
ATOM      6  C   UNL     1      18.247 -26.313  -3.222  0.00  0.00    +0.116 A 
ATOM      7  N   UNL     1      19.602 -26.545  -3.325  0.00  0.00    -0.223 NA
ATOM      8  C   UNL     1      20.386 -25.811  -4.196  0.00  0.00    +0.220 A 
ATOM      9  N   UNL     1      21.752 -26.022  -4.310  0.00  0.00    -0.283 N 
ATOM     36  H   UNL     1      22.295 -25.465  -4.969  0.00  0.00    +0.155 HD
ATOM     37  N   UNL     1      19.827 -24.851  -4.960  0.00  0.00    -0.214 NA
BRANCH   4   3
ATOM      1  C   UNL     1      17.260 -21.100  -6.235  0.00  0.00    +0.020 A 
ATOM      2  C   UNL     1      17.739 -22.118  -5.329  0.00  0.00    +0.013 A 
ATOM      3  C   UNL     1      17.984 -23.477  -5.797  0.00  0.00    +0.019 A 
ATOM     38  C   UNL     1      17.732 -23.774  -7.199  0.00  0.00    +0.120 A 
ATOM     39  N   UNL     1      17.270 -22.774  -8.048  0.00  0.00    -0.263 NA
ATOM     40  C   UNL     1      17.029 -21.463  -7.608  0.00  0.00    +0.111 A 
ENDBRANCH   4   3
ENDBRANCH  10   9
BRANCH  12  13
ATOM     13  N   UNL     1      24.555 -27.170  -0.363  0.00  0.00    -0.281 N 
ATOM     14  C   UNL     1      25.385 -26.076  -0.185  0.00  0.00    +0.248 C 
ATOM     30  O   UNL     1      25.780 -25.355  -1.089  0.00  0.00    -0.270 OA
ATOM     31  H   UNL     1      24.460 -27.795   0.438  0.00  0.00    +0.155 HD
BRANCH  14  15
ATOM     15  C   UNL     1      25.856 -25.742   1.193  0.00  0.00    +0.037 A 
ATOM     16  C   UNL     1      26.877 -26.551   1.864  0.00  0.00    +0.013 A 
ATOM     17  C   UNL     1      27.301 -26.217   3.201  0.00  0.00    +0.005 A 
ATOM     18  C   UNL     1      26.704 -25.067   3.876  0.00  0.00    -0.033 A 
ATOM     28  C   UNL     1      25.696 -24.279   3.185  0.00  0.00    +0.005 A 
ATOM     29  C   UNL     1      25.277 -24.604   1.875  0.00  0.00    +0.013 A 
BRANCH  18  19
ATOM     19  C   UNL     1      27.080 -24.651   5.310  0.00  0.00    +0.119 C 
BRANCH  19  20
ATOM     20  N   UNL     1      28.534 -24.516   5.623  0.00  0.00    -0.302 NA
ATOM     21  C   UNL     1      29.034 -25.647   6.526  0.00  0.00    +0.066 C 
ATOM     22  C   UNL     1      30.562 -25.502   6.825  0.00  0.00    -0.064 C 
ATOM     23  N   UNL     1      30.826 -24.139   7.468  0.00  0.00    +0.379 N 
ATOM     24  C   UNL     1      32.253 -24.023   7.804  0.00  0.00    -0.096 C 
ATOM     25  H   UNL     1      30.250 -24.098   8.421  0.00  0.00    -0.082 HD
ATOM     26  C   UNL     1      30.329 -23.009   6.578  0.00  0.00    -0.064 C 
ATOM     27  C   UNL     1      28.817 -23.178   6.262  0.00  0.00    +0.066 C 
ENDBRANCH  19  20
ENDBRANCH  18  19
ENDBRANCH  14  15
ENDBRANCH  12  13
TORSDOF 6
ENDMDL
MODEL 5
REMARK VINA RESULT:      -6.6     19.233     24.975
REMARK  Name = C:\Users\Docking\Desktop\test protocol\1iep_ligandH.pdb
REMARK  8 active torsions:
REMARK  status: ('A' for Active; 'I' for Inactive)
REMARK    1  A    between atoms: _5  and  _11
REMARK    2  A    between atoms: _19  and  _21
REMARK    3  A    between atoms: _22  and  _66
REMARK    4  A    between atoms: _27  and  _30
REMARK    5  A    between atoms: _32  and  _33
REMARK    6  A    between atoms: _38  and  _43
REMARK    7  A    between atoms: _43  and  _46
REMARK    8  A    between atoms: _53  and  _55
REMARK                            x       y       z     vdW  Elec       q    Type
REMARK                         _______ _______ _______ _____ _____    ______ ____
ROOT
ATOM     10  C   UNL     1      28.187 -24.145   6.026  0.00  0.00    +0.038 A 
ATOM     11  C   UNL     1      29.599 -24.011   6.059  0.00  0.00    +0.047 A 
ATOM     12  C   UNL     1      30.311 -23.869   7.319  0.00  0.00    +0.035 A 
ATOM     32  C   UNL     1      29.555 -23.869   8.527  0.00  0.00    +0.024 A 
ATOM     33  C   UNL     1      28.119 -24.003   8.511  0.00  0.00    +0.007 A 
ATOM     34  C   UNL     1      27.411 -24.141   7.271  0.00  0.00    -0.029 A 
ATOM     35  C   UNL     1      25.870 -24.275   7.314  0.00  0.00    +0.045 C 
ENDROOT
BRANCH  10   9
ATOM      4  C   UNL     1      26.925 -26.713   2.172  0.00  0.00    +0.077 A 
ATOM      5  C   UNL     1      27.608 -27.880   2.653  0.00  0.00    +0.048 A 
ATOM      6  C   UNL     1      28.277 -27.775   3.893  0.00  0.00    +0.116 A 
ATOM      7  N   UNL     1      28.259 -26.587   4.591  0.00  0.00    -0.223 NA
ATOM      8  C   UNL     1      27.592 -25.480   4.098  0.00  0.00    +0.220 A 
ATOM      9  N   UNL     1      27.554 -24.278   4.788  0.00  0.00    -0.283 N 
ATOM     36  H   UNL     1      27.058 -23.482   4.387  0.00  0.00    +0.155 HD
ATOM     37  N   UNL     1      26.947 -25.554   2.916  0.00  0.00    -0.214 NA
BRANCH   4   3
ATOM      1  C   UNL     1      25.303 -27.720  -1.242  0.00  0.00    +0.020 A 
ATOM      2  C   UNL     1      26.045 -27.817  -0.006  0.00  0.00    +0.013 A 
ATOM      3  C   UNL     1      26.170 -26.667   0.880  0.00  0.00    +0.019 A 
ATOM     38  C   UNL     1      25.527 -25.423   0.483  0.00  0.00    +0.120 A 
ATOM     39  N   UNL     1      24.821 -25.359  -0.714  0.00  0.00    -0.263 NA
ATOM     40  C   UNL     1      24.695 -26.459  -1.575  0.00  0.00    +0.111 A 
ENDBRANCH   4   3
ENDBRANCH  10   9
BRANCH  12  13
ATOM     13  N   UNL     1      31.743 -23.721   7.415  0.00  0.00    -0.281 N 
ATOM     14  C   UNL     1      32.719 -24.634   7.052  0.00  0.00    +0.248 C 
ATOM     30  O   UNL     1      32.503 -25.808   6.787  0.00  0.00    -0.270 OA
ATOM     31  H   UNL     1      32.076 -22.836   7.796  0.00  0.00    +0.155 HD
BRANCH  14  15
ATOM     15  C   UNL     1      34.142 -24.183   6.988  0.00  0.00    +0.037 A 
ATOM     16  C   UNL     1      34.772 -23.493   8.117  0.00  0.00    +0.013 A 
ATOM     17  C   UNL     1      36.141 -23.052   8.023  0.00  0.00    +0.005 A 
ATOM     18  C   UNL     1      36.891 -23.303   6.794  0.00  0.00    -0.033 A 
ATOM     28  C   UNL     1      36.244 -23.994   5.692  0.00  0.00    +0.005 A 
ATOM     29  C   UNL     1      34.901 -24.426   5.780  0.00  0.00    +0.013 A 
BRANCH  18  19
ATOM     19  C   UNL     1      38.350 -22.849   6.598  0.00  0.00    +0.119 C 
BRANCH  19  20
ATOM     20  N   UNL     1      38.600 -21.382   6.479  0.00  0.00    -0.302 NA
ATOM     21  C   UNL     1      39.147 -21.002   5.100  0.00  0.00    +0.066 C 
ATOM     22  C   UNL     1      39.381 -19.461   4.985  0.00  0.00    -0.064 C 
ATOM     23  N   UNL     1      40.338 -19.010   6.090  0.00  0.00    +0.379 N 
ATOM     24  C   UNL     1      40.606 -17.571   5.950  0.00  0.00    -0.096 C 
ATOM     25  H   UNL     1      41.302 -19.549   5.944  0.00  0.00    -0.082 HD
ATOM     26  C   UNL     1      39.803 -19.385   7.465  0.00  0.00    -0.064 C 
ATOM     27  C   UNL     1      39.546 -20.915   7.558  0.00  0.00    +0.066 C 
ENDBRANCH  19  20
ENDBRANCH  18  19
ENDBRANCH  14  15
ENDBRANCH  12  13
TORSDOF 6
ENDMDL
