MODEL 1
REMARK VINA RESULT:      -7.7      0.000      0.000
REMARK  Name = C:\Users\Docking\Desktop\test protocol\1iep_ligandH.pdb
REMARK  8 active torsions:
REMARK  status: ('A' for Active; 'I' for Inactive)
REMARK    1  A    between atoms: _5  and  _11
REMARK    2  A    between atoms: _19  and  _21
REMARK    3  A    between atoms: _22  and  _66
REMARK    4  A    between atoms: _27  and  _30
REMARK    5  A    between atoms: _32  and  _33
REMARK    6  A    between atoms: _38  and  _43
REMARK    7  A    between atoms: _43  and  _46
REMARK    8  A    between atoms: _53  and  _55
REMARK                            x       y       z     vdW  Elec       q    Type
REMARK                         _______ _______ _______ _____ _____    ______ ____
ROOT
ATOM     10  C   UNL     1      11.447  34.084  26.246  0.00  0.00    +0.038 A 
ATOM     11  C   UNL     1      12.420  34.628  27.122  0.00  0.00    +0.047 A 
ATOM     12  C   UNL     1      12.705  34.009  28.408  0.00  0.00    +0.035 A 
ATOM     32  C   UNL     1      11.981  32.835  28.768  0.00  0.00    +0.024 A 
ATOM     33  C   UNL     1      10.987  32.270  27.890  0.00  0.00    +0.007 A 
ATOM     34  C   UNL     1      10.700  32.877  26.621  0.00  0.00    -0.029 A 
ATOM     35  C   UNL     1       9.620  32.231  25.723  0.00  0.00    +0.045 C 
ENDROOT
BRANCH  10   9
ATOM      4  C   UNL     1       9.498  37.578  23.595  0.00  0.00    +0.077 A 
ATOM      5  C   UNL     1       8.869  38.175  24.737  0.00  0.00    +0.048 A 
ATOM      6  C   UNL     1       9.066  37.548  25.988  0.00  0.00    +0.116 A 
ATOM      7  N   UNL     1       9.837  36.409  26.078  0.00  0.00    -0.223 NA
ATOM      8  C   UNL     1      10.428  35.858  24.956  0.00  0.00    +0.220 A 
ATOM      9  N   UNL     1      11.214  34.718  25.024  0.00  0.00    -0.283 N 
ATOM     36  H   UNL     1      11.626  34.339  24.172  0.00  0.00    +0.155 HD
ATOM     37  N   UNL     1      10.254  36.438  23.750  0.00  0.00    -0.214 NA
BRANCH   4   3
ATOM      1  C   UNL     1       8.290  39.572  20.454  0.00  0.00    +0.020 A 
ATOM      2  C   UNL     1       8.353  39.074  21.808  0.00  0.00    +0.013 A 
ATOM      3  C   UNL     1       9.387  38.126  22.206  0.00  0.00    +0.019 A 
ATOM     38  C   UNL     1      10.349  37.700  21.201  0.00  0.00    +0.120 A 
ATOM     39  N   UNL     1      10.263  38.196  19.904  0.00  0.00    -0.263 NA
ATOM     40  C   UNL     1       9.272  39.107  19.509  0.00  0.00    +0.111 A 
ENDBRANCH   4   3
ENDBRANCH  10   9
BRANCH  12  13
ATOM     13  N   UNL     1      13.676  34.521  29.342  0.00  0.00    -0.281 N 
ATOM     14  C   UNL     1      13.526  35.563  30.242  0.00  0.00    +0.248 C 
ATOM     30  O   UNL     1      12.597  36.358  30.230  0.00  0.00    -0.270 OA
ATOM     31  H   UNL     1      14.586  34.058  29.340  0.00  0.00    +0.155 HD
BRANCH  14  15
ATOM     15  C   UNL     1      14.565  35.761  31.298  0.00  0.00    +0.037 A 
ATOM     16  C   UNL     1      14.691  37.035  32.011  0.00  0.00    +0.013 A 
ATOM     17  C   UNL     1      15.712  37.205  33.014  0.00  0.00    +0.005 A 
ATOM     18  C   UNL     1      16.616  36.095  33.311  0.00  0.00    -0.033 A 
ATOM     28  C   UNL     1      16.465  34.841  32.592  0.00  0.00    +0.005 A 
ATOM     29  C   UNL     1      15.465  34.671  31.608  0.00  0.00    +0.013 A 
BRANCH  18  19
ATOM     19  C   UNL     1      17.748  36.194  34.350  0.00  0.00    +0.119 C 
BRANCH  19  20
ATOM     20  N   UNL     1      17.545  35.491  35.652  0.00  0.00    -0.302 NA
ATOM     21  C   UNL     1      18.070  34.054  35.617  0.00  0.00    +0.066 C 
ATOM     22  C   UNL     1      17.870  33.341  36.994  0.00  0.00    -0.064 C 
ATOM     23  N   UNL     1      16.387  33.366  37.367  0.00  0.00    +0.379 N 
ATOM     24  C   UNL     1      16.187  32.645  38.632  0.00  0.00    -0.096 C 
ATOM     25  H   UNL     1      15.829  32.816  36.573  0.00  0.00    -0.082 HD
ATOM     26  C   UNL     1      15.855  34.792  37.401  0.00  0.00    -0.064 C 
ATOM     27  C   UNL     1      16.086  35.501  36.037  0.00  0.00    +0.066 C 
ENDBRANCH  19  20
ENDBRANCH  18  19
ENDBRANCH  14  15
ENDBRANCH  12  13
TORSDOF 6
ENDMDL
MODEL 2
REMARK VINA RESULT:      -7.7      2.880     12.630
REMARK  Name = C:\Users\Docking\Desktop\test protocol\1iep_ligandH.pdb
REMARK  8 active torsions:
REMARK  status: ('A' for Active; 'I' for Inactive)
REMARK    1  A    between atoms: _5  and  _11
REMARK    2  A    between atoms: _19  and  _21
REMARK    3  A    between atoms: _22  and  _66
REMARK    4  A    between atoms: _27  and  _30
REMARK    5  A    between atoms: _32  and  _33
REMARK    6  A    between atoms: _38  and  _43
REMARK    7  A    between atoms: _43  and  _46
REMARK    8  A    between atoms: _53  and  _55
REMARK                            x       y       z     vdW  Elec       q    Type
REMARK                         _______ _______ _______ _____ _____    ______ ____
ROOT
ATOM     10  C   UNL     1      13.345  33.860  28.762  0.00  0.00    +0.038 A 
ATOM     11  C   UNL     1      12.763  34.578  27.686  0.00  0.00    +0.047 A 
ATOM     12  C   UNL     1      11.516  34.140  27.077  0.00  0.00    +0.035 A 
ATOM     32  C   UNL     1      10.889  32.968  27.591  0.00  0.00    +0.024 A 
ATOM     33  C   UNL     1      11.467  32.226  28.683  0.00  0.00    +0.007 A 
ATOM     34  C   UNL     1      12.698  32.652  29.286  0.00  0.00    -0.029 A 
ATOM     35  C   UNL     1      13.276  31.814  30.450  0.00  0.00    +0.045 C 
ENDROOT
BRANCH  10   9
ATOM      4  C   UNL     1      15.838  36.867  31.552  0.00  0.00    +0.077 A 
ATOM      5  C   UNL     1      14.657  37.588  31.931  0.00  0.00    +0.048 A 
ATOM      6  C   UNL     1      13.429  37.158  31.380  0.00  0.00    +0.116 A 
ATOM      7  N   UNL     1      13.396  36.085  30.516  0.00  0.00    -0.223 NA
ATOM      8  C   UNL     1      14.554  35.412  30.170  0.00  0.00    +0.220 A 
ATOM      9  N   UNL     1      14.543  34.326  29.309  0.00  0.00    -0.283 N 
ATOM     36  H   UNL     1      15.419  33.861  29.073  0.00  0.00    +0.155 HD
ATOM     37  N   UNL     1      15.739  35.805  30.681  0.00  0.00    -0.214 NA
BRANCH   4   3
ATOM      1  C   UNL     1      18.789  38.272  33.701  0.00  0.00    +0.020 A 
ATOM      2  C   UNL     1      17.444  37.980  33.260  0.00  0.00    +0.013 A 
ATOM      3  C   UNL     1      17.209  37.199  32.053  0.00  0.00    +0.019 A 
ATOM     38  C   UNL     1      18.366  36.724  31.308  0.00  0.00    +0.120 A 
ATOM     39  N   UNL     1      19.649  37.022  31.755  0.00  0.00    -0.263 NA
ATOM     40  C   UNL     1      19.887  37.774  32.915  0.00  0.00    +0.111 A 
ENDBRANCH   4   3
ENDBRANCH  10   9
BRANCH  12  13
ATOM     13  N   UNL     1      10.882  34.823  25.977  0.00  0.00    -0.281 N 
ATOM     14  C   UNL     1      10.335  36.096  25.966  0.00  0.00    +0.248 C 
ATOM     30  O   UNL     1      10.117  36.763  26.967  0.00  0.00    -0.270 OA
ATOM     31  H   UNL     1      10.829  34.305  25.099  0.00  0.00    +0.155 HD
BRANCH  14  15
ATOM     15  C   UNL     1       9.964  36.711  24.656  0.00  0.00    +0.037 A 
ATOM     16  C   UNL     1      10.557  36.243  23.401  0.00  0.00    +0.013 A 
ATOM     17  C   UNL     1      10.194  36.865  22.152  0.00  0.00    +0.005 A 
ATOM     18  C   UNL     1       9.230  37.963  22.153  0.00  0.00    -0.033 A 
ATOM     28  C   UNL     1       8.653  38.404  23.412  0.00  0.00    +0.005 A 
ATOM     29  C   UNL     1       9.007  37.797  24.638  0.00  0.00    +0.013 A 
BRANCH  18  19
ATOM     19  C   UNL     1       8.800  38.699  20.871  0.00  0.00    +0.119 C 
BRANCH  19  20
ATOM     20  N   UNL     1       9.796  38.777  19.760  0.00  0.00    -0.302 NA
ATOM     21  C   UNL     1      10.416  40.172  19.641  0.00  0.00    +0.066 C 
ATOM     22  C   UNL     1      11.471  40.229  18.489  0.00  0.00    -0.064 C 
ATOM     23  N   UNL     1      10.809  39.816  17.173  0.00  0.00    +0.379 N 
ATOM     24  C   UNL     1      11.784  39.925  16.078  0.00  0.00    -0.096 C 
ATOM     25  H   UNL     1       9.987  40.540  16.967  0.00  0.00    -0.082 HD
ATOM     26  C   UNL     1      10.187  38.431  17.284  0.00  0.00    -0.064 C 
ATOM     27  C   UNL     1       9.162  38.377  18.451  0.00  0.00    +0.066 C 
ENDBRANCH  19  20
ENDBRANCH  18  19
ENDBRANCH  14  15
ENDBRANCH  12  13
TORSDOF 6
ENDMDL
MODEL 3
REMARK VINA RESULT:      -7.4     17.268     21.883
REMARK  Name = C:\Users\Docking\Desktop\test protocol\1iep_ligandH.pdb
REMARK  8 active torsions:
REMARK  status: ('A' for Active; 'I' for Inactive)
REMARK    1  A    between atoms: _5  and  _11
REMARK    2  A    between atoms: _19  and  _21
REMARK    3  A    between atoms: _22  and  _66
REMARK    4  A    between atoms: _27  and  _30
REMARK    5  A    between atoms: _32  and  _33
REMARK    6  A    between atoms: _38  and  _43
REMARK    7  A    between atoms: _43  and  _46
REMARK    8  A    between atoms: _53  and  _55
REMARK                            x       y       z     vdW  Elec       q    Type
REMARK                         _______ _______ _______ _____ _____    ______ ____
ROOT
ATOM     10  C   UNL     1      14.419  54.912  22.819  0.00  0.00    +0.038 A 
ATOM     11  C   UNL     1      13.068  54.722  22.428  0.00  0.00    +0.047 A 
ATOM     12  C   UNL     1      12.006  55.564  22.957  0.00  0.00    +0.035 A 
ATOM     32  C   UNL     1      12.356  56.591  23.882  0.00  0.00    +0.024 A 
ATOM     33  C   UNL     1      13.723  56.797  24.291  0.00  0.00    +0.007 A 
ATOM     34  C   UNL     1      14.774  55.968  23.774  0.00  0.00    -0.029 A 
ATOM     35  C   UNL     1      16.221  56.230  24.253  0.00  0.00    +0.045 C 
ENDROOT
BRANCH  10   9
ATOM      4  C   UNL     1      16.940  50.828  22.773  0.00  0.00    +0.077 A 
ATOM      5  C   UNL     1      16.268  50.330  23.938  0.00  0.00    +0.048 A 
ATOM      6  C   UNL     1      15.285  51.160  24.524  0.00  0.00    +0.116 A 
ATOM      7  N   UNL     1      15.003  52.392  23.976  0.00  0.00    -0.223 NA
ATOM      8  C   UNL     1      15.671  52.842  22.852  0.00  0.00    +0.220 A 
ATOM      9  N   UNL     1      15.398  54.075  22.279  0.00  0.00    -0.283 N 
ATOM     36  H   UNL     1      15.918  54.374  21.455  0.00  0.00    +0.155 HD
ATOM     37  N   UNL     1      16.615  52.070  22.275  0.00  0.00    -0.214 NA
BRANCH   4   3
ATOM      1  C   UNL     1      20.277  48.993  21.881  0.00  0.00    +0.020 A 
ATOM      2  C   UNL     1      19.288  49.730  22.633  0.00  0.00    +0.013 A 
ATOM      3  C   UNL     1      18.000  50.068  22.039  0.00  0.00    +0.019 A 
ATOM     38  C   UNL     1      17.744  49.642  20.671  0.00  0.00    +0.120 A 
ATOM     39  N   UNL     1      18.716  48.935  19.971  0.00  0.00    -0.263 NA
ATOM     40  C   UNL     1      19.959  48.605  20.531  0.00  0.00    +0.111 A 
ENDBRANCH   4   3
ENDBRANCH  10   9
BRANCH  12  13
ATOM     13  N   UNL     1      10.617  55.413  22.603  0.00  0.00    -0.281 N 
ATOM     14  C   UNL     1      10.044  55.508  21.346  0.00  0.00    +0.248 C 
ATOM     30  O   UNL     1      10.612  55.951  20.359  0.00  0.00    -0.270 OA
ATOM     31  H   UNL     1       9.978  55.212  23.373  0.00  0.00    +0.155 HD
BRANCH  14  15
ATOM     15  C   UNL     1       8.630  55.060  21.161  0.00  0.00    +0.037 A 
ATOM     16  C   UNL     1       8.046  54.916  19.825  0.00  0.00    +0.013 A 
ATOM     17  C   UNL     1       6.675  54.499  19.675  0.00  0.00    +0.005 A 
ATOM     18  C   UNL     1       5.877  54.221  20.867  0.00  0.00    -0.033 A 
ATOM     28  C   UNL     1       6.482  54.367  22.181  0.00  0.00    +0.005 A 
ATOM     29  C   UNL     1       7.826  54.777  22.331  0.00  0.00    +0.013 A 
BRANCH  18  19
ATOM     19  C   UNL     1       4.399  53.791  20.803  0.00  0.00    +0.119 C 
BRANCH  19  20
ATOM     20  N   UNL     1       4.086  52.529  20.069  0.00  0.00    -0.302 NA
ATOM     21  C   UNL     1       2.578  52.321  19.902  0.00  0.00    +0.066 C 
ATOM     22  C   UNL     1       2.269  51.007  19.113  0.00  0.00    -0.064 C 
ATOM     23  N   UNL     1       2.902  49.819  19.838  0.00  0.00    +0.379 N 
ATOM     24  C   UNL     1       2.564  48.575  19.129  0.00  0.00    -0.096 C 
ATOM     25  H   UNL     1       2.449  49.763  20.855  0.00  0.00    -0.082 HD
ATOM     26  C   UNL     1       4.401  50.018  20.010  0.00  0.00    -0.064 C 
ATOM     27  C   UNL     1       4.699  51.341  20.770  0.00  0.00    +0.066 C 
ENDBRANCH  19  20
ENDBRANCH  18  19
ENDBRANCH  14  15
ENDBRANCH  12  13
TORSDOF 6
ENDMDL
MODEL 4
REMARK VINA RESULT:      -7.4      4.067      8.571
REMARK  Name = C:\Users\Docking\Desktop\test protocol\1iep_ligandH.pdb
REMARK  8 active torsions:
REMARK  status: ('A' for Active; 'I' for Inactive)
REMARK    1  A    between atoms: _5  and  _11
REMARK    2  A    between atoms: _19  and  _21
REMARK    3  A    between atoms: _22  and  _66
REMARK    4  A    between atoms: _27  and  _30
REMARK    5  A    between atoms: _32  and  _33
REMARK    6  A    between atoms: _38  and  _43
REMARK    7  A    between atoms: _43  and  _46
REMARK    8  A    between atoms: _53  and  _55
REMARK                            x       y       z     vdW  Elec       q    Type
REMARK                         _______ _______ _______ _____ _____    ______ ____
ROOT
ATOM     10  C   UNL     1      15.522  36.254  33.156  0.00  0.00    +0.038 A 
ATOM     11  C   UNL     1      14.994  35.668  34.335  0.00  0.00    +0.047 A 
ATOM     12  C   UNL     1      15.844  35.387  35.481  0.00  0.00    +0.035 A 
ATOM     32  C   UNL     1      17.228  35.718  35.394  0.00  0.00    +0.024 A 
ATOM     33  C   UNL     1      17.782  36.312  34.203  0.00  0.00    +0.007 A 
ATOM     34  C   UNL     1      16.949  36.590  33.068  0.00  0.00    -0.029 A 
ATOM     35  C   UNL     1      17.598  37.222  31.815  0.00  0.00    +0.045 C 
ENDROOT
BRANCH  10   9
ATOM      4  C   UNL     1      12.952  34.810  29.369  0.00  0.00    +0.077 A 
ATOM      5  C   UNL     1      13.383  33.450  29.520  0.00  0.00    +0.048 A 
ATOM      6  C   UNL     1      14.272  33.165  30.580  0.00  0.00    +0.116 A 
ATOM      7  N   UNL     1      14.691  34.173  31.421  0.00  0.00    -0.223 NA
ATOM      8  C   UNL     1      14.258  35.475  31.247  0.00  0.00    +0.220 A 
ATOM      9  N   UNL     1      14.661  36.502  32.085  0.00  0.00    -0.283 N 
ATOM     36  H   UNL     1      14.324  37.451  31.918  0.00  0.00    +0.155 HD
ATOM     37  N   UNL     1      13.410  35.773  30.240  0.00  0.00    -0.214 NA
BRANCH   4   3
ATOM      1  C   UNL     1      11.402  35.687  25.886  0.00  0.00    +0.020 A 
ATOM      2  C   UNL     1      12.347  35.234  26.880  0.00  0.00    +0.013 A 
ATOM      3  C   UNL     1      12.011  35.268  28.298  0.00  0.00    +0.019 A 
ATOM     38  C   UNL     1      10.700  35.771  28.679  0.00  0.00    +0.120 A 
ATOM     39  N   UNL     1       9.811  36.202  27.700  0.00  0.00    -0.263 NA
ATOM     40  C   UNL     1      10.124  36.175  26.333  0.00  0.00    +0.111 A 
ENDBRANCH   4   3
ENDBRANCH  10   9
BRANCH  12  13
ATOM     13  N   UNL     1      15.365  34.786  36.702  0.00  0.00    -0.281 N 
ATOM     14  C   UNL     1      15.405  33.450  37.066  0.00  0.00    +0.248 C 
ATOM     30  O   UNL     1      15.667  32.533  36.302  0.00  0.00    -0.270 OA
ATOM     31  H   UNL     1      14.946  35.423  37.379  0.00  0.00    +0.155 HD
BRANCH  14  15
ATOM     15  C   UNL     1      15.095  33.078  38.480  0.00  0.00    +0.037 A 
ATOM     16  C   UNL     1      15.705  33.791  39.605  0.00  0.00    +0.013 A 
ATOM     17  C   UNL     1      15.402  33.400  40.959  0.00  0.00    +0.005 A 
ATOM     18  C   UNL     1      14.482  32.290  41.195  0.00  0.00    -0.033 A 
ATOM     28  C   UNL     1      13.887  31.604  40.061  0.00  0.00    +0.005 A 
ATOM     29  C   UNL     1      14.183  31.983  38.732  0.00  0.00    +0.013 A 
BRANCH  18  19
ATOM     19  C   UNL     1      14.118  31.792  42.606  0.00  0.00    +0.119 C 
BRANCH  19  20
ATOM     20  N   UNL     1      12.898  30.941  42.736  0.00  0.00    -0.302 NA
ATOM     21  C   UNL     1      11.651  31.769  43.060  0.00  0.00    +0.066 C 
ATOM     22  C   UNL     1      10.380  30.866  43.171  0.00  0.00    -0.064 C 
ATOM     23  N   UNL     1      10.611  29.795  44.238  0.00  0.00    +0.379 N 
ATOM     24  C   UNL     1       9.396  28.980  44.386  0.00  0.00    -0.096 C 
ATOM     25  H   UNL     1      10.788  30.316  45.208  0.00  0.00    -0.082 HD
ATOM     26  C   UNL     1      11.850  28.968  43.926  0.00  0.00    -0.064 C 
ATOM     27  C   UNL     1      13.102  29.878  43.788  0.00  0.00    +0.066 C 
ENDBRANCH  19  20
ENDBRANCH  18  19
ENDBRANCH  14  15
ENDBRANCH  12  13
TORSDOF 6
ENDMDL
MODEL 5
REMARK VINA RESULT:      -7.3      2.977     12.715
REMARK  Name = C:\Users\Docking\Desktop\test protocol\1iep_ligandH.pdb
REMARK  8 active torsions:
REMARK  status: ('A' for Active; 'I' for Inactive)
REMARK    1  A    between atoms: _5  and  _11
REMARK    2  A    between atoms: _19  and  _21
REMARK    3  A    between atoms: _22  and  _66
REMARK    4  A    between atoms: _27  and  _30
REMARK    5  A    between atoms: _32  and  _33
REMARK    6  A    between atoms: _38  and  _43
REMARK    7  A    between atoms: _43  and  _46
REMARK    8  A    between atoms: _53  and  _55
REMARK                            x       y       z     vdW  Elec       q    Type
REMARK                         _______ _______ _______ _____ _____    ______ ____
ROOT
ATOM     10  C   UNL     1      13.425  33.746  28.887  0.00  0.00    +0.038 A 
ATOM     11  C   UNL     1      12.783  34.483  27.859  0.00  0.00    +0.047 A 
ATOM     12  C   UNL     1      11.532  34.027  27.274  0.00  0.00    +0.035 A 
ATOM     32  C   UNL     1      10.960  32.816  27.762  0.00  0.00    +0.024 A 
ATOM     33  C   UNL     1      11.599  32.053  28.806  0.00  0.00    +0.007 A 
ATOM     34  C   UNL     1      12.835  32.497  29.385  0.00  0.00    -0.029 A 
ATOM     35  C   UNL     1      13.478  31.636  30.497  0.00  0.00    +0.045 C 
ENDROOT
BRANCH  10   9
ATOM      4  C   UNL     1      15.930  36.867  31.537  0.00  0.00    +0.077 A 
ATOM      5  C   UNL     1      14.752  37.611  31.880  0.00  0.00    +0.048 A 
ATOM      6  C   UNL     1      13.523  37.162  31.349  0.00  0.00    +0.116 A 
ATOM      7  N   UNL     1      13.485  36.050  30.536  0.00  0.00    -0.223 NA
ATOM      8  C   UNL     1      14.640  35.356  30.223  0.00  0.00    +0.220 A 
ATOM      9  N   UNL     1      14.624  34.231  29.413  0.00  0.00    -0.283 N 
ATOM     36  H   UNL     1      15.498  33.751  29.200  0.00  0.00    +0.155 HD
ATOM     37  N   UNL     1      15.827  35.766  30.716  0.00  0.00    -0.214 NA
BRANCH   4   3
ATOM      1  C   UNL     1      18.887  38.287  33.666  0.00  0.00    +0.020 A 
ATOM      2  C   UNL     1      17.542  37.978  33.241  0.00  0.00    +0.013 A 
ATOM      3  C   UNL     1      17.303  37.215  32.023  0.00  0.00    +0.019 A 
ATOM     38  C   UNL     1      18.456  36.776  31.252  0.00  0.00    +0.120 A 
ATOM     39  N   UNL     1      19.740  37.089  31.685  0.00  0.00    -0.263 NA
ATOM     40  C   UNL     1      19.983  37.825  32.855  0.00  0.00    +0.111 A 
ENDBRANCH   4   3
ENDBRANCH  10   9
BRANCH  12  13
ATOM     13  N   UNL     1      10.840  34.729  26.222  0.00  0.00    -0.281 N 
ATOM     14  C   UNL     1      10.090  35.889  26.323  0.00  0.00    +0.248 C 
ATOM     30  O   UNL     1       9.723  36.385  27.378  0.00  0.00    -0.270 OA
ATOM     31  H   UNL     1      10.911  34.321  25.290  0.00  0.00    +0.155 HD
BRANCH  14  15
ATOM     15  C   UNL     1       9.676  36.593  25.071  0.00  0.00    +0.037 A 
ATOM     16  C   UNL     1       9.053  37.919  25.115  0.00  0.00    +0.013 A 
ATOM     17  C   UNL     1       8.648  38.568  23.893  0.00  0.00    +0.005 A 
ATOM     18  C   UNL     1       8.867  37.892  22.617  0.00  0.00    -0.033 A 
ATOM     28  C   UNL     1       9.491  36.580  22.602  0.00  0.00    +0.005 A 
ATOM     29  C   UNL     1       9.889  35.940  23.797  0.00  0.00    +0.013 A 
BRANCH  18  19
ATOM     19  C   UNL     1       8.447  38.501  21.266  0.00  0.00    +0.119 C 
BRANCH  19  20
ATOM     20  N   UNL     1       6.987  38.529  20.952  0.00  0.00    -0.302 NA
ATOM     21  C   UNL     1       6.645  37.673  19.729  0.00  0.00    +0.066 C 
ATOM     22  C   UNL     1       5.111  37.696  19.429  0.00  0.00    -0.064 C 
ATOM     23  N   UNL     1       4.655  39.142  19.224  0.00  0.00    +0.379 N 
ATOM     24  C   UNL     1       3.225  39.162  18.884  0.00  0.00    -0.096 C 
ATOM     25  H   UNL     1       5.216  39.552  18.352  0.00  0.00    -0.082 HD
ATOM     26  C   UNL     1       4.994  40.000  20.434  0.00  0.00    -0.064 C 
ATOM     27  C   UNL     1       6.516  39.947  20.741  0.00  0.00    +0.066 C 
ENDBRANCH  19  20
ENDBRANCH  18  19
ENDBRANCH  14  15
ENDBRANCH  12  13
TORSDOF 6
ENDMDL
