MODEL 1
REMARK VINA RESULT:     -12.4      0.000      0.000
REMARK  Name = C:\Users\Docking\Desktop\test protocol\1iep_ligandH.pdb
REMARK  8 active torsions:
REMARK  status: ('A' for Active; 'I' for Inactive)
REMARK    1  A    between atoms: _5  and  _11
REMARK    2  A    between atoms: _19  and  _21
REMARK    3  A    between atoms: _22  and  _66
REMARK    4  A    between atoms: _27  and  _30
REMARK    5  A    between atoms: _32  and  _33
REMARK    6  A    between atoms: _38  and  _43
REMARK    7  A    between atoms: _43  and  _46
REMARK    8  A    between atoms: _53  and  _55
REMARK                            x       y       z     vdW  Elec       q    Type
REMARK                         _______ _______ _______ _____ _____    ______ ____
ROOT
ATOM     10  C   UNL     1      22.504  23.514  39.144  0.00  0.00    +0.038 A 
ATOM     11  C   UNL     1      22.810  23.286  37.778  0.00  0.00    +0.047 A 
ATOM     12  C   UNL     1      24.171  23.008  37.348  0.00  0.00    +0.035 A 
ATOM     32  C   UNL     1      25.197  22.966  38.337  0.00  0.00    +0.024 A 
ATOM     33  C   UNL     1      24.904  23.196  39.729  0.00  0.00    +0.007 A 
ATOM     34  C   UNL     1      23.564  23.474  40.160  0.00  0.00    -0.029 A 
ATOM     35  C   UNL     1      23.309  23.719  41.665  0.00  0.00    +0.045 C 
ENDROOT
BRANCH  10   9
ATOM      4  C   UNL     1      18.941  26.530  40.262  0.00  0.00    +0.077 A 
ATOM      5  C   UNL     1      19.797  27.676  40.151  0.00  0.00    +0.048 A 
ATOM      6  C   UNL     1      21.149  27.446  39.811  0.00  0.00    +0.116 A 
ATOM      7  N   UNL     1      21.601  26.161  39.600  0.00  0.00    -0.223 NA
ATOM      8  C   UNL     1      20.749  25.078  39.717  0.00  0.00    +0.220 A 
ATOM      9  N   UNL     1      21.180  23.778  39.502  0.00  0.00    -0.283 N 
ATOM     36  H   UNL     1      20.523  23.005  39.605  0.00  0.00    +0.155 HD
ATOM     37  N   UNL     1      19.454  25.271  40.042  0.00  0.00    -0.214 NA
BRANCH   4   3
ATOM      1  C   UNL     1      15.192  25.598  40.875  0.00  0.00    +0.020 A 
ATOM      2  C   UNL     1      16.588  25.467  40.527  0.00  0.00    +0.013 A 
ATOM      3  C   UNL     1      17.487  26.610  40.611  0.00  0.00    +0.019 A 
ATOM     38  C   UNL     1      16.939  27.883  41.056  0.00  0.00    +0.120 A 
ATOM     39  N   UNL     1      15.590  27.979  41.383  0.00  0.00    -0.263 NA
ATOM     40  C   UNL     1      14.714  26.886  41.304  0.00  0.00    +0.111 A 
ENDBRANCH   4   3
ENDBRANCH  10   9
BRANCH  12  13
ATOM     13  N   UNL     1      24.543  22.776  35.974  0.00  0.00    -0.281 N 
ATOM     14  C   UNL     1      25.708  23.160  35.331  0.00  0.00    +0.248 C 
ATOM     30  O   UNL     1      26.520  23.952  35.786  0.00  0.00    -0.270 OA
ATOM     31  H   UNL     1      23.864  22.268  35.407  0.00  0.00    +0.155 HD
BRANCH  14  15
ATOM     15  C   UNL     1      26.007  22.594  33.980  0.00  0.00    +0.037 A 
ATOM     16  C   UNL     1      25.949  23.427  32.777  0.00  0.00    +0.013 A 
ATOM     17  C   UNL     1      26.226  22.852  31.484  0.00  0.00    +0.005 A 
ATOM     18  C   UNL     1      26.565  21.434  31.390  0.00  0.00    -0.033 A 
ATOM     28  C   UNL     1      26.621  20.631  32.600  0.00  0.00    +0.005 A 
ATOM     29  C   UNL     1      26.349  21.192  33.869  0.00  0.00    +0.013 A 
BRANCH  18  19
ATOM     19  C   UNL     1      26.855  20.731  30.050  0.00  0.00    +0.119 C 
BRANCH  19  20
ATOM     20  N   UNL     1      28.148  19.995  29.930  0.00  0.00    -0.302 NA
ATOM     21  C   UNL     1      29.082  20.638  28.901  0.00  0.00    +0.066 C 
ATOM     22  C   UNL     1      30.439  19.868  28.804  0.00  0.00    -0.064 C 
ATOM     23  N   UNL     1      30.169  18.405  28.450  0.00  0.00    +0.379 N 
ATOM     24  C   UNL     1      31.446  17.692  28.302  0.00  0.00    -0.096 C 
ATOM     25  H   UNL     1      29.654  18.386  27.462  0.00  0.00    -0.082 HD
ATOM     26  C   UNL     1      29.239  17.758  29.467  0.00  0.00    -0.064 C 
ATOM     27  C   UNL     1      27.905  18.548  29.577  0.00  0.00    +0.066 C 
ENDBRANCH  19  20
ENDBRANCH  18  19
ENDBRANCH  14  15
ENDBRANCH  12  13
TORSDOF 6
ENDMDL
MODEL 2
REMARK VINA RESULT:     -10.4      5.940     13.407
REMARK  Name = C:\Users\Docking\Desktop\test protocol\1iep_ligandH.pdb
REMARK  8 active torsions:
REMARK  status: ('A' for Active; 'I' for Inactive)
REMARK    1  A    between atoms: _5  and  _11
REMARK    2  A    between atoms: _19  and  _21
REMARK    3  A    between atoms: _22  and  _66
REMARK    4  A    between atoms: _27  and  _30
REMARK    5  A    between atoms: _32  and  _33
REMARK    6  A    between atoms: _38  and  _43
REMARK    7  A    between atoms: _43  and  _46
REMARK    8  A    between atoms: _53  and  _55
REMARK                            x       y       z     vdW  Elec       q    Type
REMARK                         _______ _______ _______ _____ _____    ______ ____
ROOT
ATOM     10  C   UNL     1      18.753  26.144  40.877  0.00  0.00    +0.038 A 
ATOM     11  C   UNL     1      17.684  25.214  40.813  0.00  0.00    +0.047 A 
ATOM     12  C   UNL     1      16.299  25.659  40.793  0.00  0.00    +0.035 A 
ATOM     32  C   UNL     1      16.039  27.060  40.837  0.00  0.00    +0.024 A 
ATOM     33  C   UNL     1      17.114  28.019  40.903  0.00  0.00    +0.007 A 
ATOM     34  C   UNL     1      18.481  27.586  40.926  0.00  0.00    -0.029 A 
ATOM     35  C   UNL     1      19.593  28.659  41.004  0.00  0.00    +0.045 C 
ENDROOT
BRANCH  10   9
ATOM      4  C   UNL     1      22.495  23.986  38.785  0.00  0.00    +0.077 A 
ATOM      5  C   UNL     1      21.769  23.780  37.565  0.00  0.00    +0.048 A 
ATOM      6  C   UNL     1      20.433  24.237  37.519  0.00  0.00    +0.116 A 
ATOM      7  N   UNL     1      19.875  24.854  38.618  0.00  0.00    -0.223 NA
ATOM      8  C   UNL     1      20.602  25.036  39.780  0.00  0.00    +0.220 A 
ATOM      9  N   UNL     1      20.063  25.661  40.894  0.00  0.00    -0.283 N 
ATOM     36  H   UNL     1      20.630  25.770  41.734  0.00  0.00    +0.155 HD
ATOM     37  N   UNL     1      21.879  24.607  39.849  0.00  0.00    -0.214 NA
BRANCH   4   3
ATOM      1  C   UNL     1      25.883  22.956  40.446  0.00  0.00    +0.020 A 
ATOM      2  C   UNL     1      24.505  23.367  40.306  0.00  0.00    +0.013 A 
ATOM      3  C   UNL     1      23.916  23.562  38.987  0.00  0.00    +0.019 A 
ATOM     38  C   UNL     1      24.755  23.330  37.821  0.00  0.00    +0.120 A 
ATOM     39  N   UNL     1      26.079  22.936  37.986  0.00  0.00    -0.263 NA
ATOM     40  C   UNL     1      26.657  22.747  39.251  0.00  0.00    +0.111 A 
ENDBRANCH   4   3
ENDBRANCH  10   9
BRANCH  12  13
ATOM     13  N   UNL     1      15.172  24.762  40.737  0.00  0.00    -0.281 N 
ATOM     14  C   UNL     1      14.283  24.576  39.692  0.00  0.00    +0.248 C 
ATOM     30  O   UNL     1      14.194  25.312  38.721  0.00  0.00    -0.270 OA
ATOM     31  H   UNL     1      15.011  24.194  41.569  0.00  0.00    +0.155 HD
BRANCH  14  15
ATOM     15  C   UNL     1      13.347  23.411  39.738  0.00  0.00    +0.037 A 
ATOM     16  C   UNL     1      13.796  22.061  39.390  0.00  0.00    +0.013 A 
ATOM     17  C   UNL     1      12.868  20.958  39.427  0.00  0.00    +0.005 A 
ATOM     18  C   UNL     1      11.481  21.202  39.816  0.00  0.00    -0.033 A 
ATOM     28  C   UNL     1      11.064  22.551  40.162  0.00  0.00    +0.005 A 
ATOM     29  C   UNL     1      11.970  23.634  40.126  0.00  0.00    +0.013 A 
BRANCH  18  19
ATOM     19  C   UNL     1      10.417  20.089  39.863  0.00  0.00    +0.119 C 
BRANCH  19  20
ATOM     20  N   UNL     1      10.756  18.792  39.204  0.00  0.00    -0.302 NA
ATOM     21  C   UNL     1       9.696  18.372  38.182  0.00  0.00    +0.066 C 
ATOM     22  C   UNL     1      10.077  17.025  37.487  0.00  0.00    -0.064 C 
ATOM     23  N   UNL     1      10.263  15.941  38.550  0.00  0.00    +0.379 N 
ATOM     24  C   UNL     1      10.565  14.659  37.895  0.00  0.00    -0.096 C 
ATOM     25  H   UNL     1       9.294  15.826  39.089  0.00  0.00    -0.082 HD
ATOM     26  C   UNL     1      11.314  16.351  39.572  0.00  0.00    -0.064 C 
ATOM     27  C   UNL     1      10.940  17.706  40.235  0.00  0.00    +0.066 C 
ENDBRANCH  19  20
ENDBRANCH  18  19
ENDBRANCH  14  15
ENDBRANCH  12  13
TORSDOF 6
ENDMDL
MODEL 3
REMARK VINA RESULT:     -10.2      2.756     13.886
REMARK  Name = C:\Users\Docking\Desktop\test protocol\1iep_ligandH.pdb
REMARK  8 active torsions:
REMARK  status: ('A' for Active; 'I' for Inactive)
REMARK    1  A    between atoms: _5  and  _11
REMARK    2  A    between atoms: _19  and  _21
REMARK    3  A    between atoms: _22  and  _66
REMARK    4  A    between atoms: _27  and  _30
REMARK    5  A    between atoms: _32  and  _33
REMARK    6  A    between atoms: _38  and  _43
REMARK    7  A    between atoms: _43  and  _46
REMARK    8  A    between atoms: _53  and  _55
REMARK                            x       y       z     vdW  Elec       q    Type
REMARK                         _______ _______ _______ _____ _____    ______ ____
ROOT
ATOM     10  C   UNL     1      27.699  20.491  32.982  0.00  0.00    +0.038 A 
ATOM     11  C   UNL     1      26.887  20.727  34.121  0.00  0.00    +0.047 A 
ATOM     12  C   UNL     1      26.051  21.914  34.216  0.00  0.00    +0.035 A 
ATOM     32  C   UNL     1      26.064  22.838  33.132  0.00  0.00    +0.024 A 
ATOM     33  C   UNL     1      26.884  22.615  31.967  0.00  0.00    +0.007 A 
ATOM     34  C   UNL     1      27.713  21.447  31.869  0.00  0.00    -0.029 A 
ATOM     35  C   UNL     1      28.577  21.262  30.599  0.00  0.00    +0.045 C 
ENDROOT
BRANCH  10   9
ATOM      4  C   UNL     1      28.309  15.821  32.059  0.00  0.00    +0.077 A 
ATOM      5  C   UNL     1      26.944  15.664  31.644  0.00  0.00    +0.048 A 
ATOM      6  C   UNL     1      26.117  16.808  31.690  0.00  0.00    +0.116 A 
ATOM      7  N   UNL     1      26.626  18.014  32.120  0.00  0.00    -0.223 NA
ATOM      8  C   UNL     1      27.946  18.131  32.515  0.00  0.00    +0.220 A 
ATOM      9  N   UNL     1      28.482  19.335  32.944  0.00  0.00    -0.283 N 
ATOM     36  H   UNL     1      29.458  19.378  33.234  0.00  0.00    +0.155 HD
ATOM     37  N   UNL     1      28.757  17.052  32.482  0.00  0.00    -0.214 NA
BRANCH   4   3
ATOM      1  C   UNL     1      29.938  12.268  31.908  0.00  0.00    +0.020 A 
ATOM      2  C   UNL     1      28.934  13.307  31.896  0.00  0.00    +0.013 A 
ATOM      3  C   UNL     1      29.308  14.706  32.064  0.00  0.00    +0.019 A 
ATOM     38  C   UNL     1      30.717  15.022  32.243  0.00  0.00    +0.120 A 
ATOM     39  N   UNL     1      31.661  14.001  32.251  0.00  0.00    -0.263 NA
ATOM     40  C   UNL     1      31.314  12.651  32.092  0.00  0.00    +0.111 A 
ENDBRANCH   4   3
ENDBRANCH  10   9
BRANCH  12  13
ATOM     13  N   UNL     1      25.212  22.210  35.351  0.00  0.00    -0.281 N 
ATOM     14  C   UNL     1      25.568  22.841  36.532  0.00  0.00    +0.248 C 
ATOM     30  O   UNL     1      26.719  23.057  36.880  0.00  0.00    -0.270 OA
ATOM     31  H   UNL     1      24.237  21.920  35.274  0.00  0.00    +0.155 HD
BRANCH  14  15
ATOM     15  C   UNL     1      24.490  23.284  37.467  0.00  0.00    +0.037 A 
ATOM     16  C   UNL     1      23.322  24.026  36.985  0.00  0.00    +0.013 A 
ATOM     17  C   UNL     1      22.305  24.455  37.912  0.00  0.00    +0.005 A 
ATOM     18  C   UNL     1      22.451  24.143  39.331  0.00  0.00    -0.033 A 
ATOM     28  C   UNL     1      23.617  23.401  39.782  0.00  0.00    +0.005 A 
ATOM     29  C   UNL     1      24.617  22.979  38.877  0.00  0.00    +0.013 A 
BRANCH  18  19
ATOM     19  C   UNL     1      21.426  24.580  40.394  0.00  0.00    +0.119 C 
BRANCH  19  20
ATOM     20  N   UNL     1      20.380  25.559  39.973  0.00  0.00    -0.302 NA
ATOM     21  C   UNL     1      20.777  27.001  40.301  0.00  0.00    +0.066 C 
ATOM     22  C   UNL     1      19.681  28.014  39.834  0.00  0.00    -0.064 C 
ATOM     23  N   UNL     1      18.346  27.656  40.490  0.00  0.00    +0.379 N 
ATOM     24  C   UNL     1      17.328  28.641  40.097  0.00  0.00    -0.096 C 
ATOM     25  H   UNL     1      18.482  27.731  41.594  0.00  0.00    -0.082 HD
ATOM     26  C   UNL     1      17.946  26.223  40.170  0.00  0.00    -0.064 C 
ATOM     27  C   UNL     1      19.054  25.228  40.612  0.00  0.00    +0.066 C 
ENDBRANCH  19  20
ENDBRANCH  18  19
ENDBRANCH  14  15
ENDBRANCH  12  13
TORSDOF 6
ENDMDL
MODEL 4
REMARK VINA RESULT:      -9.8      5.945     13.987
REMARK  Name = C:\Users\Docking\Desktop\test protocol\1iep_ligandH.pdb
REMARK  8 active torsions:
REMARK  status: ('A' for Active; 'I' for Inactive)
REMARK    1  A    between atoms: _5  and  _11
REMARK    2  A    between atoms: _19  and  _21
REMARK    3  A    between atoms: _22  and  _66
REMARK    4  A    between atoms: _27  and  _30
REMARK    5  A    between atoms: _32  and  _33
REMARK    6  A    between atoms: _38  and  _43
REMARK    7  A    between atoms: _43  and  _46
REMARK    8  A    between atoms: _53  and  _55
REMARK                            x       y       z     vdW  Elec       q    Type
REMARK                         _______ _______ _______ _____ _____    ______ ____
ROOT
ATOM     10  C   UNL     1      18.726  26.075  40.900  0.00  0.00    +0.038 A 
ATOM     11  C   UNL     1      17.670  25.134  40.806  0.00  0.00    +0.047 A 
ATOM     12  C   UNL     1      16.279  25.560  40.797  0.00  0.00    +0.035 A 
ATOM     32  C   UNL     1      16.001  26.956  40.882  0.00  0.00    +0.024 A 
ATOM     33  C   UNL     1      17.062  27.927  40.979  0.00  0.00    +0.007 A 
ATOM     34  C   UNL     1      18.435  27.511  40.991  0.00  0.00    -0.029 A 
ATOM     35  C   UNL     1      19.532  28.596  41.104  0.00  0.00    +0.045 C 
ENDROOT
BRANCH  10   9
ATOM      4  C   UNL     1      22.483  23.984  38.768  0.00  0.00    +0.077 A 
ATOM      5  C   UNL     1      21.753  23.777  37.551  0.00  0.00    +0.048 A 
ATOM      6  C   UNL     1      20.410  24.217  37.517  0.00  0.00    +0.116 A 
ATOM      7  N   UNL     1      19.851  24.818  38.624  0.00  0.00    -0.223 NA
ATOM      8  C   UNL     1      20.583  25.001  39.782  0.00  0.00    +0.220 A 
ATOM      9  N   UNL     1      20.043  25.610  40.904  0.00  0.00    -0.283 N 
ATOM     36  H   UNL     1      20.614  25.720  41.742  0.00  0.00    +0.155 HD
ATOM     37  N   UNL     1      21.866  24.588  39.840  0.00  0.00    -0.214 NA
BRANCH   4   3
ATOM      1  C   UNL     1      25.879  22.927  40.396  0.00  0.00    +0.020 A 
ATOM      2  C   UNL     1      24.494  23.318  40.268  0.00  0.00    +0.013 A 
ATOM      3  C   UNL     1      23.911  23.577  38.957  0.00  0.00    +0.019 A 
ATOM     38  C   UNL     1      24.764  23.429  37.787  0.00  0.00    +0.120 A 
ATOM     39  N   UNL     1      26.094  23.052  37.942  0.00  0.00    -0.263 NA
ATOM     40  C   UNL     1      26.666  22.803  39.198  0.00  0.00    +0.111 A 
ENDBRANCH   4   3
ENDBRANCH  10   9
BRANCH  12  13
ATOM     13  N   UNL     1      15.165  24.650  40.712  0.00  0.00    -0.281 N 
ATOM     14  C   UNL     1      14.273  24.491  39.664  0.00  0.00    +0.248 C 
ATOM     30  O   UNL     1      14.169  25.263  38.722  0.00  0.00    -0.270 OA
ATOM     31  H   UNL     1      15.016  24.049  41.523  0.00  0.00    +0.155 HD
BRANCH  14  15
ATOM     15  C   UNL     1      13.353  23.313  39.671  0.00  0.00    +0.037 A 
ATOM     16  C   UNL     1      11.982  23.421  40.176  0.00  0.00    +0.013 A 
ATOM     17  C   UNL     1      11.122  22.265  40.187  0.00  0.00    +0.005 A 
ATOM     18  C   UNL     1      11.630  20.989  39.689  0.00  0.00    -0.033 A 
ATOM     28  C   UNL     1      12.993  20.911  39.188  0.00  0.00    +0.005 A 
ATOM     29  C   UNL     1      13.839  22.042  39.177  0.00  0.00    +0.013 A 
BRANCH  18  19
ATOM     19  C   UNL     1      10.789  19.699  39.682  0.00  0.00    +0.119 C 
BRANCH  19  20
ATOM     20  N   UNL     1      10.656  18.963  40.975  0.00  0.00    -0.302 NA
ATOM     21  C   UNL     1      11.430  17.641  40.966  0.00  0.00    +0.066 C 
ATOM     22  C   UNL     1      11.298  16.895  42.334  0.00  0.00    -0.064 C 
ATOM     23  N   UNL     1       9.819  16.655  42.640  0.00  0.00    +0.379 N 
ATOM     24  C   UNL     1       9.694  15.903  43.897  0.00  0.00    -0.096 C 
ATOM     25  H   UNL     1       9.403  16.021  41.823  0.00  0.00    -0.082 HD
ATOM     26  C   UNL     1       9.042  17.964  42.648  0.00  0.00    -0.064 C 
ATOM     27  C   UNL     1       9.203  18.711  41.295  0.00  0.00    +0.066 C 
ENDBRANCH  19  20
ENDBRANCH  18  19
ENDBRANCH  14  15
ENDBRANCH  12  13
TORSDOF 6
ENDMDL
