MODEL 1
REMARK VINA RESULT:      -4.4      0.000      0.000
REMARK  Name = C:\Users\Docking\Desktop\test protocol\1iep_ligandH.pdb
REMARK  8 active torsions:
REMARK  status: ('A' for Active; 'I' for Inactive)
REMARK    1  A    between atoms: _5  and  _11
REMARK    2  A    between atoms: _19  and  _21
REMARK    3  A    between atoms: _22  and  _66
REMARK    4  A    between atoms: _27  and  _30
REMARK    5  A    between atoms: _32  and  _33
REMARK    6  A    between atoms: _38  and  _43
REMARK    7  A    between atoms: _43  and  _46
REMARK    8  A    between atoms: _53  and  _55
REMARK                            x       y       z     vdW  Elec       q    Type
REMARK                         _______ _______ _______ _____ _____    ______ ____
ROOT
ATOM     10  C   UNL     1      -8.111   3.895   3.636  0.00  0.00    +0.038 A 
ATOM     11  C   UNL     1      -7.154   3.437   2.695  0.00  0.00    +0.047 A 
ATOM     12  C   UNL     1      -6.214   2.379   3.032  0.00  0.00    +0.035 A 
ATOM     32  C   UNL     1      -6.279   1.808   4.337  0.00  0.00    +0.024 A 
ATOM     33  C   UNL     1      -7.245   2.262   5.306  0.00  0.00    +0.007 A 
ATOM     34  C   UNL     1      -8.173   3.307   4.980  0.00  0.00    -0.029 A 
ATOM     35  C   UNL     1      -9.182   3.759   6.061  0.00  0.00    +0.045 C 
ENDROOT
BRANCH  10   9
ATOM      4  C   UNL     1      -9.248   8.530   3.125  0.00  0.00    +0.077 A 
ATOM      5  C   UNL     1      -7.997   8.959   3.681  0.00  0.00    +0.048 A 
ATOM      6  C   UNL     1      -7.092   7.956   4.093  0.00  0.00    +0.116 A 
ATOM      7  N   UNL     1      -7.423   6.625   3.954  0.00  0.00    -0.223 NA
ATOM      8  C   UNL     1      -8.639   6.246   3.416  0.00  0.00    +0.220 A 
ATOM      9  N   UNL     1      -8.990   4.913   3.259  0.00  0.00    -0.283 N 
ATOM     36  H   UNL     1      -9.899   4.674   2.865  0.00  0.00    +0.155 HD
ATOM     37  N   UNL     1      -9.521   7.185   3.016  0.00  0.00    -0.214 NA
BRANCH   4   3
ATOM      1  C   UNL     1     -11.382  10.907   0.867  0.00  0.00    +0.020 A 
ATOM      2  C   UNL     1     -10.337  10.001   1.284  0.00  0.00    +0.013 A 
ATOM      3  C   UNL     1     -10.308   9.471   2.641  0.00  0.00    +0.019 A 
ATOM     38  C   UNL     1     -11.361   9.879   3.559  0.00  0.00    +0.120 A 
ATOM     39  N   UNL     1     -12.354  10.754   3.130  0.00  0.00    -0.263 NA
ATOM     40  C   UNL     1     -12.391  11.272   1.827  0.00  0.00    +0.111 A 
ENDBRANCH   4   3
ENDBRANCH  10   9
BRANCH  12  13
ATOM     13  N   UNL     1      -5.215   1.878   2.121  0.00  0.00    -0.281 N 
ATOM     14  C   UNL     1      -5.360   0.898   1.153  0.00  0.00    +0.248 C 
ATOM     30  O   UNL     1      -6.322   0.149   1.067  0.00  0.00    -0.270 OA
ATOM     31  H   UNL     1      -4.289   2.297   2.199  0.00  0.00    +0.155 HD
BRANCH  14  15
ATOM     15  C   UNL     1      -4.274   0.715   0.143  0.00  0.00    +0.037 A 
ATOM     16  C   UNL     1      -2.980   0.139   0.515  0.00  0.00    +0.013 A 
ATOM     17  C   UNL     1      -1.943  -0.011  -0.475  0.00  0.00    +0.005 A 
ATOM     18  C   UNL     1      -2.198   0.414  -1.849  0.00  0.00    -0.033 A 
ATOM     28  C   UNL     1      -3.493   0.977  -2.192  0.00  0.00    +0.005 A 
ATOM     29  C   UNL     1      -4.511   1.127  -1.224  0.00  0.00    +0.013 A 
BRANCH  18  19
ATOM     19  C   UNL     1      -1.143   0.311  -2.967  0.00  0.00    +0.119 C 
BRANCH  19  20
ATOM     20  N   UNL     1      -0.315   1.523  -3.239  0.00  0.00    -0.302 NA
ATOM     21  C   UNL     1      -0.142   2.393  -1.991  0.00  0.00    +0.066 C 
ATOM     22  C   UNL     1       0.745   3.646  -2.289  0.00  0.00    -0.064 C 
ATOM     23  N   UNL     1       0.120   4.451  -3.429  0.00  0.00    +0.379 N 
ATOM     24  C   UNL     1       0.920   5.660  -3.672  0.00  0.00    -0.096 C 
ATOM     25  H   UNL     1      -0.893   4.778  -3.096  0.00  0.00    -0.082 HD
ATOM     26  C   UNL     1      -0.059   3.593  -4.673  0.00  0.00    -0.064 C 
ATOM     27  C   UNL     1      -0.917   2.336  -4.359  0.00  0.00    +0.066 C 
ENDBRANCH  19  20
ENDBRANCH  18  19
ENDBRANCH  14  15
ENDBRANCH  12  13
TORSDOF 6
ENDMDL
MODEL 2
REMARK VINA RESULT:      -4.4      3.758     12.479
REMARK  Name = C:\Users\Docking\Desktop\test protocol\1iep_ligandH.pdb
REMARK  8 active torsions:
REMARK  status: ('A' for Active; 'I' for Inactive)
REMARK    1  A    between atoms: _5  and  _11
REMARK    2  A    between atoms: _19  and  _21
REMARK    3  A    between atoms: _22  and  _66
REMARK    4  A    between atoms: _27  and  _30
REMARK    5  A    between atoms: _32  and  _33
REMARK    6  A    between atoms: _38  and  _43
REMARK    7  A    between atoms: _43  and  _46
REMARK    8  A    between atoms: _53  and  _55
REMARK                            x       y       z     vdW  Elec       q    Type
REMARK                         _______ _______ _______ _____ _____    ______ ____
ROOT
ATOM     10  C   UNL     1      -5.518   2.121   0.540  0.00  0.00    +0.038 A 
ATOM     11  C   UNL     1      -5.560   3.131   1.534  0.00  0.00    +0.047 A 
ATOM     12  C   UNL     1      -6.813   3.770   1.905  0.00  0.00    +0.035 A 
ATOM     32  C   UNL     1      -8.005   3.353   1.245  0.00  0.00    +0.024 A 
ATOM     33  C   UNL     1      -7.981   2.328   0.231  0.00  0.00    +0.007 A 
ATOM     34  C   UNL     1      -6.747   1.696  -0.141  0.00  0.00    -0.029 A 
ATOM     35  C   UNL     1      -6.779   0.608  -1.239  0.00  0.00    +0.045 C 
ENDROOT
BRANCH  10   9
ATOM      4  C   UNL     1      -2.139  -1.235   1.144  0.00  0.00    +0.077 A 
ATOM      5  C   UNL     1      -2.876  -1.871   2.197  0.00  0.00    +0.048 A 
ATOM      6  C   UNL     1      -4.117  -1.299   2.559  0.00  0.00    +0.116 A 
ATOM      7  N   UNL     1      -4.577  -0.175   1.908  0.00  0.00    -0.223 NA
ATOM      8  C   UNL     1      -3.840   0.415   0.897  0.00  0.00    +0.220 A 
ATOM      9  N   UNL     1      -4.287   1.541   0.224  0.00  0.00    -0.283 N 
ATOM     36  H   UNL     1      -3.711   1.951  -0.511  0.00  0.00    +0.155 HD
ATOM     37  N   UNL     1      -2.652  -0.111   0.534  0.00  0.00    -0.214 NA
BRANCH   4   3
ATOM      1  C   UNL     1       0.908  -3.528   0.274  0.00  0.00    +0.020 A 
ATOM      2  C   UNL     1      -0.382  -3.108   0.771  0.00  0.00    +0.013 A 
ATOM      3  C   UNL     1      -0.814  -1.722   0.646  0.00  0.00    +0.019 A 
ATOM     38  C   UNL     1       0.090  -0.777   0.008  0.00  0.00    +0.120 A 
ATOM     39  N   UNL     1       1.327  -1.210  -0.461  0.00  0.00    -0.263 NA
ATOM     40  C   UNL     1       1.754  -2.541  -0.345  0.00  0.00    +0.111 A 
ENDBRANCH   4   3
ENDBRANCH  10   9
BRANCH  12  13
ATOM     13  N   UNL     1      -6.916   4.808   2.902  0.00  0.00    -0.281 N 
ATOM     14  C   UNL     1      -6.843   6.178   2.715  0.00  0.00    +0.248 C 
ATOM     30  O   UNL     1      -6.461   6.716   1.686  0.00  0.00    -0.270 OA
ATOM     31  H   UNL     1      -7.061   4.493   3.861  0.00  0.00    +0.155 HD
BRANCH  14  15
ATOM     15  C   UNL     1      -7.236   7.082   3.838  0.00  0.00    +0.037 A 
ATOM     16  C   UNL     1      -7.967   6.575   5.002  0.00  0.00    +0.013 A 
ATOM     17  C   UNL     1      -8.349   7.472   6.064  0.00  0.00    +0.005 A 
ATOM     18  C   UNL     1      -7.998   8.886   5.967  0.00  0.00    -0.033 A 
ATOM     28  C   UNL     1      -7.268   9.362   4.804  0.00  0.00    +0.005 A 
ATOM     29  C   UNL     1      -6.893   8.486   3.761  0.00  0.00    +0.013 A 
BRANCH  18  19
ATOM     19  C   UNL     1      -8.384   9.919   7.043  0.00  0.00    +0.119 C 
BRANCH  19  20
ATOM     20  N   UNL     1      -9.092  11.152   6.585  0.00  0.00    -0.302 NA
ATOM     21  C   UNL     1      -8.692  12.382   7.404  0.00  0.00    +0.066 C 
ATOM     22  C   UNL     1      -9.425  13.666   6.897  0.00  0.00    -0.064 C 
ATOM     23  N   UNL     1     -10.937  13.444   6.957  0.00  0.00    +0.379 N 
ATOM     24  C   UNL     1     -11.630  14.671   6.536  0.00  0.00    -0.096 C 
ATOM     25  H   UNL     1     -11.208  13.251   8.021  0.00  0.00    -0.082 HD
ATOM     26  C   UNL     1     -11.343  12.221   6.147  0.00  0.00    -0.064 C 
ATOM     27  C   UNL     1     -10.587  10.956   6.640  0.00  0.00    +0.066 C 
ENDBRANCH  19  20
ENDBRANCH  18  19
ENDBRANCH  14  15
ENDBRANCH  12  13
TORSDOF 6
ENDMDL
MODEL 3
REMARK VINA RESULT:      -4.2      2.465     11.206
REMARK  Name = C:\Users\Docking\Desktop\test protocol\1iep_ligandH.pdb
REMARK  8 active torsions:
REMARK  status: ('A' for Active; 'I' for Inactive)
REMARK    1  A    between atoms: _5  and  _11
REMARK    2  A    between atoms: _19  and  _21
REMARK    3  A    between atoms: _22  and  _66
REMARK    4  A    between atoms: _27  and  _30
REMARK    5  A    between atoms: _32  and  _33
REMARK    6  A    between atoms: _38  and  _43
REMARK    7  A    between atoms: _43  and  _46
REMARK    8  A    between atoms: _53  and  _55
REMARK                            x       y       z     vdW  Elec       q    Type
REMARK                         _______ _______ _______ _____ _____    ______ ____
ROOT
ATOM     10  C   UNL     1      -5.993   2.732   2.512  0.00  0.00    +0.038 A 
ATOM     11  C   UNL     1      -6.710   3.940   2.320  0.00  0.00    +0.047 A 
ATOM     12  C   UNL     1      -7.789   4.326   3.216  0.00  0.00    +0.035 A 
ATOM     32  C   UNL     1      -8.109   3.458   4.300  0.00  0.00    +0.024 A 
ATOM     33  C   UNL     1      -7.391   2.225   4.510  0.00  0.00    +0.007 A 
ATOM     34  C   UNL     1      -6.328   1.838   3.628  0.00  0.00    -0.029 A 
ATOM     35  C   UNL     1      -5.596   0.503   3.897  0.00  0.00    +0.045 C 
ENDROOT
BRANCH  10   9
ATOM      4  C   UNL     1      -4.372   0.700  -1.523  0.00  0.00    +0.077 A 
ATOM      5  C   UNL     1      -5.675   0.214  -1.872  0.00  0.00    +0.048 A 
ATOM      6  C   UNL     1      -6.735   0.502  -0.983  0.00  0.00    +0.116 A 
ATOM      7  N   UNL     1      -6.497   1.224   0.167  0.00  0.00    -0.223 NA
ATOM      8  C   UNL     1      -5.227   1.676   0.475  0.00  0.00    +0.220 A 
ATOM      9  N   UNL     1      -4.966   2.411   1.621  0.00  0.00    -0.283 N 
ATOM     36  H   UNL     1      -4.014   2.720   1.816  0.00  0.00    +0.155 HD
ATOM     37  N   UNL     1      -4.198   1.413  -0.358  0.00  0.00    -0.214 NA
BRANCH   4   3
ATOM      1  C   UNL     1      -1.881  -0.704  -4.192  0.00  0.00    +0.020 A 
ATOM      2  C   UNL     1      -3.083  -0.532  -3.410  0.00  0.00    +0.013 A 
ATOM      3  C   UNL     1      -3.152   0.479  -2.362  0.00  0.00    +0.019 A 
ATOM     38  C   UNL     1      -1.978   1.307  -2.131  0.00  0.00    +0.120 A 
ATOM     39  N   UNL     1      -0.833   1.118  -2.899  0.00  0.00    -0.263 NA
ATOM     40  C   UNL     1      -0.755   0.147  -3.909  0.00  0.00    +0.111 A 
ENDBRANCH   4   3
ENDBRANCH  10   9
BRANCH  12  13
ATOM     13  N   UNL     1      -8.557   5.537   3.066  0.00  0.00    -0.281 N 
ATOM     14  C   UNL     1      -8.104   6.845   3.115  0.00  0.00    +0.248 C 
ATOM     30  O   UNL     1      -6.997   7.178   3.510  0.00  0.00    -0.270 OA
ATOM     31  H   UNL     1      -9.557   5.414   2.903  0.00  0.00    +0.155 HD
BRANCH  14  15
ATOM     15  C   UNL     1      -9.018   7.942   2.674  0.00  0.00    +0.037 A 
ATOM     16  C   UNL     1      -9.926   8.600   3.618  0.00  0.00    +0.013 A 
ATOM     17  C   UNL     1     -10.809   9.644   3.163  0.00  0.00    +0.005 A 
ATOM     18  C   UNL     1     -10.787  10.039   1.757  0.00  0.00    -0.033 A 
ATOM     28  C   UNL     1      -9.873   9.374   0.844  0.00  0.00    +0.005 A 
ATOM     29  C   UNL     1      -9.006   8.349   1.285  0.00  0.00    +0.013 A 
BRANCH  18  19
ATOM     19  C   UNL     1     -11.710  11.129   1.180  0.00  0.00    +0.119 C 
BRANCH  19  20
ATOM     20  N   UNL     1     -11.605  11.409  -0.283  0.00  0.00    -0.302 NA
ATOM     21  C   UNL     1     -11.495  12.908  -0.575  0.00  0.00    +0.066 C 
ATOM     22  C   UNL     1     -11.364  13.182  -2.109  0.00  0.00    -0.064 C 
ATOM     23  N   UNL     1     -12.564  12.575  -2.837  0.00  0.00    +0.379 N 
ATOM     24  C   UNL     1     -12.473  12.880  -4.272  0.00  0.00    -0.096 C 
ATOM     25  H   UNL     1     -13.483  13.069  -2.443  0.00  0.00    -0.082 HD
ATOM     26  C   UNL     1     -12.682  11.085  -2.550  0.00  0.00    -0.064 C 
ATOM     27  C   UNL     1     -12.783  10.822  -1.022  0.00  0.00    +0.066 C 
ENDBRANCH  19  20
ENDBRANCH  18  19
ENDBRANCH  14  15
ENDBRANCH  12  13
TORSDOF 6
ENDMDL
MODEL 4
REMARK VINA RESULT:      -4.1      3.246      5.445
REMARK  Name = C:\Users\Docking\Desktop\test protocol\1iep_ligandH.pdb
REMARK  8 active torsions:
REMARK  status: ('A' for Active; 'I' for Inactive)
REMARK    1  A    between atoms: _5  and  _11
REMARK    2  A    between atoms: _19  and  _21
REMARK    3  A    between atoms: _22  and  _66
REMARK    4  A    between atoms: _27  and  _30
REMARK    5  A    between atoms: _32  and  _33
REMARK    6  A    between atoms: _38  and  _43
REMARK    7  A    between atoms: _43  and  _46
REMARK    8  A    between atoms: _53  and  _55
REMARK                            x       y       z     vdW  Elec       q    Type
REMARK                         _______ _______ _______ _____ _____    ______ ____
ROOT
ATOM     10  C   UNL     1      -8.553   8.148   3.999  0.00  0.00    +0.038 A 
ATOM     11  C   UNL     1      -8.153   6.821   3.699  0.00  0.00    +0.047 A 
ATOM     12  C   UNL     1      -7.907   5.852   4.756  0.00  0.00    +0.035 A 
ATOM     32  C   UNL     1      -8.081   6.268   6.108  0.00  0.00    +0.024 A 
ATOM     33  C   UNL     1      -8.486   7.613   6.431  0.00  0.00    +0.007 A 
ATOM     34  C   UNL     1      -8.728   8.574   5.393  0.00  0.00    -0.029 A 
ATOM     35  C   UNL     1      -9.154  10.004   5.798  0.00  0.00    +0.045 C 
ENDROOT
BRANCH  10   9
ATOM      4  C   UNL     1     -11.371  10.128   0.656  0.00  0.00    +0.077 A 
ATOM      5  C   UNL     1     -12.486   9.303   1.023  0.00  0.00    +0.048 A 
ATOM      6  C   UNL     1     -12.290   8.377   2.072  0.00  0.00    +0.116 A 
ATOM      7  N   UNL     1     -11.067   8.291   2.701  0.00  0.00    -0.223 NA
ATOM      8  C   UNL     1     -10.012   9.101   2.322  0.00  0.00    +0.220 A 
ATOM      9  N   UNL     1      -8.776   9.037   2.946  0.00  0.00    -0.283 N 
ATOM     36  H   UNL     1      -8.021   9.646   2.632  0.00  0.00    +0.155 HD
ATOM     37  N   UNL     1     -10.173   9.992   1.322  0.00  0.00    -0.214 NA
BRANCH   4   3
ATOM      1  C   UNL     1     -11.618  13.534  -1.252  0.00  0.00    +0.020 A 
ATOM      2  C   UNL     1     -11.576  12.582  -0.166  0.00  0.00    +0.013 A 
ATOM      3  C   UNL     1     -11.421  11.157  -0.430  0.00  0.00    +0.019 A 
ATOM     38  C   UNL     1     -11.311  10.725  -1.815  0.00  0.00    +0.120 A 
ATOM     39  N   UNL     1     -11.357  11.665  -2.841  0.00  0.00    -0.263 NA
ATOM     40  C   UNL     1     -11.507  13.039  -2.598  0.00  0.00    +0.111 A 
ENDBRANCH   4   3
ENDBRANCH  10   9
BRANCH  12  13
ATOM     13  N   UNL     1      -7.491   4.493   4.512  0.00  0.00    -0.281 N 
ATOM     14  C   UNL     1      -8.194   3.490   3.866  0.00  0.00    +0.248 C 
ATOM     30  O   UNL     1      -9.382   3.549   3.585  0.00  0.00    -0.270 OA
ATOM     31  H   UNL     1      -6.565   4.240   4.858  0.00  0.00    +0.155 HD
BRANCH  14  15
ATOM     15  C   UNL     1      -7.478   2.233   3.489  0.00  0.00    +0.037 A 
ATOM     16  C   UNL     1      -7.794   1.521   2.249  0.00  0.00    +0.013 A 
ATOM     17  C   UNL     1      -7.100   0.301   1.918  0.00  0.00    +0.005 A 
ATOM     18  C   UNL     1      -6.082  -0.213   2.830  0.00  0.00    -0.033 A 
ATOM     28  C   UNL     1      -5.784   0.516   4.052  0.00  0.00    +0.005 A 
ATOM     29  C   UNL     1      -6.463   1.711   4.380  0.00  0.00    +0.013 A 
BRANCH  18  19
ATOM     19  C   UNL     1      -5.306  -1.518   2.568  0.00  0.00    +0.119 C 
BRANCH  19  20
ATOM     20  N   UNL     1      -3.899  -1.392   2.086  0.00  0.00    -0.302 NA
ATOM     21  C   UNL     1      -2.903  -1.274   3.243  0.00  0.00    +0.066 C 
ATOM     22  C   UNL     1      -1.433  -1.166   2.722  0.00  0.00    -0.064 C 
ATOM     23  N   UNL     1      -1.316   0.036   1.782  0.00  0.00    +0.379 N 
ATOM     24  C   UNL     1       0.078   0.175   1.336  0.00  0.00    -0.096 C 
ATOM     25  H   UNL     1      -1.577   0.949   2.367  0.00  0.00    -0.082 HD
ATOM     26  C   UNL     1      -2.304  -0.071   0.630  0.00  0.00    -0.064 C 
ATOM     27  C   UNL     1      -3.759  -0.208   1.160  0.00  0.00    +0.066 C 
ENDBRANCH  19  20
ENDBRANCH  18  19
ENDBRANCH  14  15
ENDBRANCH  12  13
TORSDOF 6
ENDMDL
MODEL 5
REMARK VINA RESULT:      -4.1      2.325      4.437
REMARK  Name = C:\Users\Docking\Desktop\test protocol\1iep_ligandH.pdb
REMARK  8 active torsions:
REMARK  status: ('A' for Active; 'I' for Inactive)
REMARK    1  A    between atoms: _5  and  _11
REMARK    2  A    between atoms: _19  and  _21
REMARK    3  A    between atoms: _22  and  _66
REMARK    4  A    between atoms: _27  and  _30
REMARK    5  A    between atoms: _32  and  _33
REMARK    6  A    between atoms: _38  and  _43
REMARK    7  A    between atoms: _43  and  _46
REMARK    8  A    between atoms: _53  and  _55
REMARK                            x       y       z     vdW  Elec       q    Type
REMARK                         _______ _______ _______ _____ _____    ______ ____
ROOT
ATOM     10  C   UNL     1      -8.514   8.386   3.181  0.00  0.00    +0.038 A 
ATOM     11  C   UNL     1      -7.917   7.237   2.602  0.00  0.00    +0.047 A 
ATOM     12  C   UNL     1      -7.444   6.137   3.429  0.00  0.00    +0.035 A 
ATOM     32  C   UNL     1      -7.597   6.240   4.842  0.00  0.00    +0.024 A 
ATOM     33  C   UNL     1      -8.201   7.401   5.447  0.00  0.00    +0.007 A 
ATOM     34  C   UNL     1      -8.668   8.489   4.637  0.00  0.00    -0.029 A 
ATOM     35  C   UNL     1      -9.301   9.712   5.341  0.00  0.00    +0.045 C 
ENDROOT
BRANCH  10   9
ATOM      4  C   UNL     1     -11.866  10.504   0.477  0.00  0.00    +0.077 A 
ATOM      5  C   UNL     1     -12.820   9.465   0.740  0.00  0.00    +0.048 A 
ATOM      6  C   UNL     1     -12.406   8.400   1.571  0.00  0.00    +0.116 A 
ATOM      7  N   UNL     1     -11.131   8.385   2.094  0.00  0.00    -0.223 NA
ATOM      8  C   UNL     1     -10.235   9.402   1.819  0.00  0.00    +0.220 A 
ATOM      9  N   UNL     1      -8.951   9.412   2.340  0.00  0.00    -0.283 N 
ATOM     36  H   UNL     1      -8.318  10.176   2.107  0.00  0.00    +0.155 HD
ATOM     37  N   UNL     1     -10.606  10.430   1.027  0.00  0.00    -0.214 NA
BRANCH   4   3
ATOM      1  C   UNL     1     -11.662  14.031  -1.202  0.00  0.00    +0.020 A 
ATOM      2  C   UNL     1     -11.340  12.906  -0.355  0.00  0.00    +0.013 A 
ATOM      3  C   UNL     1     -12.155  11.698  -0.379  0.00  0.00    +0.019 A 
ATOM     38  C   UNL     1     -13.298  11.660  -1.279  0.00  0.00    +0.120 A 
ATOM     39  N   UNL     1     -13.584  12.760  -2.083  0.00  0.00    -0.263 NA
ATOM     40  C   UNL     1     -12.808  13.928  -2.067  0.00  0.00    +0.111 A 
ENDBRANCH   4   3
ENDBRANCH  10   9
BRANCH  12  13
ATOM     13  N   UNL     1      -6.822   4.950   2.898  0.00  0.00    -0.281 N 
ATOM     14  C   UNL     1      -7.429   3.756   2.542  0.00  0.00    +0.248 C 
ATOM     30  O   UNL     1      -8.578   3.454   2.828  0.00  0.00    -0.270 OA
ATOM     31  H   UNL     1      -5.811   4.994   2.769  0.00  0.00    +0.155 HD
BRANCH  14  15
ATOM     15  C   UNL     1      -6.643   2.748   1.769  0.00  0.00    +0.037 A 
ATOM     16  C   UNL     1      -6.452   2.879   0.322  0.00  0.00    +0.013 A 
ATOM     17  C   UNL     1      -5.703   1.883  -0.402  0.00  0.00    +0.005 A 
ATOM     18  C   UNL     1      -5.137   0.747   0.321  0.00  0.00    -0.033 A 
ATOM     28  C   UNL     1      -5.337   0.644   1.757  0.00  0.00    +0.005 A 
ATOM     29  C   UNL     1      -6.072   1.618   2.470  0.00  0.00    +0.013 A 
BRANCH  18  19
ATOM     19  C   UNL     1      -4.342  -0.375  -0.374  0.00  0.00    +0.119 C 
BRANCH  19  20
ATOM     20  N   UNL     1      -2.897  -0.118  -0.649  0.00  0.00    -0.302 NA
ATOM     21  C   UNL     1      -2.105   0.145   0.635  0.00  0.00    +0.066 C 
ATOM     22  C   UNL     1      -0.591   0.389   0.331  0.00  0.00    -0.064 C 
ATOM     23  N   UNL     1      -0.452   1.562  -0.642  0.00  0.00    +0.379 N 
ATOM     24  C   UNL     1       0.973   1.831  -0.885  0.00  0.00    -0.096 C 
ATOM     25  H   UNL     1      -0.887   2.462  -0.149  0.00  0.00    -0.082 HD
ATOM     26  C   UNL     1      -1.238   1.309  -1.920  0.00  0.00    -0.064 C 
ATOM     27  C   UNL     1      -2.736   1.039  -1.604  0.00  0.00    +0.066 C 
ENDBRANCH  19  20
ENDBRANCH  18  19
ENDBRANCH  14  15
ENDBRANCH  12  13
TORSDOF 6
ENDMDL
