MODEL 1
REMARK VINA RESULT:      -8.2      0.000      0.000
REMARK  Name = C:\Users\Docking\Desktop\test protocol\1iep_ligandH.pdb
REMARK  8 active torsions:
REMARK  status: ('A' for Active; 'I' for Inactive)
REMARK    1  A    between atoms: _5  and  _11
REMARK    2  A    between atoms: _19  and  _21
REMARK    3  A    between atoms: _22  and  _66
REMARK    4  A    between atoms: _27  and  _30
REMARK    5  A    between atoms: _32  and  _33
REMARK    6  A    between atoms: _38  and  _43
REMARK    7  A    between atoms: _43  and  _46
REMARK    8  A    between atoms: _53  and  _55
REMARK                            x       y       z     vdW  Elec       q    Type
REMARK                         _______ _______ _______ _____ _____    ______ ____
ROOT
ATOM     10  C   UNL     1      14.524  21.285   7.780  0.00  0.00    +0.038 A 
ATOM     11  C   UNL     1      15.721  21.426   8.528  0.00  0.00    +0.047 A 
ATOM     12  C   UNL     1      16.659  20.322   8.661  0.00  0.00    +0.035 A 
ATOM     32  C   UNL     1      16.348  19.089   8.017  0.00  0.00    +0.024 A 
ATOM     33  C   UNL     1      15.135  18.929   7.254  0.00  0.00    +0.007 A 
ATOM     34  C   UNL     1      14.205  20.013   7.121  0.00  0.00    -0.029 A 
ATOM     35  C   UNL     1      12.917  19.783   6.296  0.00  0.00    +0.045 C 
ENDROOT
BRANCH  10   9
ATOM      4  C   UNL     1      10.922  23.988   9.440  0.00  0.00    +0.077 A 
ATOM      5  C   UNL     1      10.728  23.136  10.578  0.00  0.00    +0.048 A 
ATOM      6  C   UNL     1      11.572  22.009  10.695  0.00  0.00    +0.116 A 
ATOM      7  N   UNL     1      12.534  21.762   9.740  0.00  0.00    -0.223 NA
ATOM      8  C   UNL     1      12.693  22.603   8.654  0.00  0.00    +0.220 A 
ATOM      9  N   UNL     1      13.659  22.378   7.685  0.00  0.00    -0.283 N 
ATOM     36  H   UNL     1      13.740  23.017   6.895  0.00  0.00    +0.155 HD
ATOM     37  N   UNL     1      11.899  23.685   8.518  0.00  0.00    -0.214 NA
BRANCH   4   3
ATOM      1  C   UNL     1       7.932  26.407   8.721  0.00  0.00    +0.020 A 
ATOM      2  C   UNL     1       8.669  25.189   8.970  0.00  0.00    +0.013 A 
ATOM      3  C   UNL     1      10.111  25.219   9.177  0.00  0.00    +0.019 A 
ATOM     38  C   UNL     1      10.784  26.509   9.126  0.00  0.00    +0.120 A 
ATOM     39  N   UNL     1      10.049  27.665   8.883  0.00  0.00    -0.263 NA
ATOM     40  C   UNL     1       8.661  27.648   8.680  0.00  0.00    +0.111 A 
ENDBRANCH   4   3
ENDBRANCH  10   9
BRANCH  12  13
ATOM     13  N   UNL     1      17.886  20.403   9.414  0.00  0.00    -0.281 N 
ATOM     14  C   UNL     1      19.093  20.957   9.019  0.00  0.00    +0.248 C 
ATOM     30  O   UNL     1      19.363  21.278   7.871  0.00  0.00    -0.270 OA
ATOM     31  H   UNL     1      17.862  20.004  10.353  0.00  0.00    +0.155 HD
BRANCH  14  15
ATOM     15  C   UNL     1      20.159  21.172  10.044  0.00  0.00    +0.037 A 
ATOM     16  C   UNL     1      20.399  20.193  11.108  0.00  0.00    +0.013 A 
ATOM     17  C   UNL     1      21.423  20.433  12.094  0.00  0.00    +0.005 A 
ATOM     18  C   UNL     1      22.215  21.658  12.020  0.00  0.00    -0.033 A 
ATOM     28  C   UNL     1      21.959  22.610  10.951  0.00  0.00    +0.005 A 
ATOM     29  C   UNL     1      20.957  22.378   9.983  0.00  0.00    +0.013 A 
BRANCH  18  19
ATOM     19  C   UNL     1      23.313  22.007  13.042  0.00  0.00    +0.119 C 
BRANCH  19  20
ATOM     20  N   UNL     1      22.871  22.407  14.411  0.00  0.00    -0.302 NA
ATOM     21  C   UNL     1      22.604  23.912  14.511  0.00  0.00    +0.066 C 
ATOM     22  C   UNL     1      22.120  24.310  15.944  0.00  0.00    -0.064 C 
ATOM     23  N   UNL     1      23.167  23.876  16.971  0.00  0.00    +0.379 N 
ATOM     24  C   UNL     1      22.743  24.301  18.313  0.00  0.00    -0.096 C 
ATOM     25  H   UNL     1      24.117  24.410  16.732  0.00  0.00    -0.082 HD
ATOM     26  C   UNL     1      23.441  22.382  16.877  0.00  0.00    -0.064 C 
ATOM     27  C   UNL     1      23.893  21.993  15.441  0.00  0.00    +0.066 C 
ENDBRANCH  19  20
ENDBRANCH  18  19
ENDBRANCH  14  15
ENDBRANCH  12  13
TORSDOF 6
ENDMDL
MODEL 2
REMARK VINA RESULT:      -8.0      7.667     12.636
REMARK  Name = C:\Users\Docking\Desktop\test protocol\1iep_ligandH.pdb
REMARK  8 active torsions:
REMARK  status: ('A' for Active; 'I' for Inactive)
REMARK    1  A    between atoms: _5  and  _11
REMARK    2  A    between atoms: _19  and  _21
REMARK    3  A    between atoms: _22  and  _66
REMARK    4  A    between atoms: _27  and  _30
REMARK    5  A    between atoms: _32  and  _33
REMARK    6  A    between atoms: _38  and  _43
REMARK    7  A    between atoms: _43  and  _46
REMARK    8  A    between atoms: _53  and  _55
REMARK                            x       y       z     vdW  Elec       q    Type
REMARK                         _______ _______ _______ _____ _____    ______ ____
ROOT
ATOM     10  C   UNL     1      19.968  25.627   3.995  0.00  0.00    +0.038 A 
ATOM     11  C   UNL     1      18.658  25.439   4.506  0.00  0.00    +0.047 A 
ATOM     12  C   UNL     1      18.035  24.125   4.515  0.00  0.00    +0.035 A 
ATOM     32  C   UNL     1      18.776  23.023   3.996  0.00  0.00    +0.024 A 
ATOM     33  C   UNL     1      20.108  23.196   3.472  0.00  0.00    +0.007 A 
ATOM     34  C   UNL     1      20.726  24.491   3.458  0.00  0.00    -0.029 A 
ATOM     35  C   UNL     1      22.154  24.619   2.877  0.00  0.00    +0.045 C 
ENDROOT
BRANCH  10   9
ATOM      4  C   UNL     1      21.071  29.787   1.869  0.00  0.00    +0.077 A 
ATOM      5  C   UNL     1      20.530  29.356   0.612  0.00  0.00    +0.048 A 
ATOM      6  C   UNL     1      19.984  28.054   0.553  0.00  0.00    +0.116 A 
ATOM      7  N   UNL     1      19.984  27.252   1.673  0.00  0.00    -0.223 NA
ATOM      8  C   UNL     1      20.515  27.698   2.870  0.00  0.00    +0.220 A 
ATOM      9  N   UNL     1      20.518  26.911   4.011  0.00  0.00    -0.283 N 
ATOM     36  H   UNL     1      20.925  27.274   4.872  0.00  0.00    +0.155 HD
ATOM     37  N   UNL     1      21.043  28.936   2.952  0.00  0.00    -0.214 NA
BRANCH   4   3
ATOM      1  C   UNL     1      23.045  33.123   1.348  0.00  0.00    +0.020 A 
ATOM      2  C   UNL     1      22.480  31.820   1.083  0.00  0.00    +0.013 A 
ATOM      3  C   UNL     1      21.680  31.136   2.091  0.00  0.00    +0.019 A 
ATOM     38  C   UNL     1      21.469  31.804   3.367  0.00  0.00    +0.120 A 
ATOM     39  N   UNL     1      22.027  33.058   3.594  0.00  0.00    -0.263 NA
ATOM     40  C   UNL     1      22.800  33.725   2.632  0.00  0.00    +0.111 A 
ENDBRANCH   4   3
ENDBRANCH  10   9
BRANCH  12  13
ATOM     13  N   UNL     1      16.706  23.874   5.014  0.00  0.00    -0.281 N 
ATOM     14  C   UNL     1      16.344  23.266   6.204  0.00  0.00    +0.248 C 
ATOM     30  O   UNL     1      17.113  22.649   6.927  0.00  0.00    -0.270 OA
ATOM     31  H   UNL     1      15.939  24.183   4.417  0.00  0.00    +0.155 HD
BRANCH  14  15
ATOM     15  C   UNL     1      14.919  23.341   6.649  0.00  0.00    +0.037 A 
ATOM     16  C   UNL     1      14.568  23.771   8.006  0.00  0.00    +0.013 A 
ATOM     17  C   UNL     1      13.187  23.818   8.415  0.00  0.00    +0.005 A 
ATOM     18  C   UNL     1      12.145  23.435   7.465  0.00  0.00    -0.033 A 
ATOM     28  C   UNL     1      12.521  23.018   6.124  0.00  0.00    +0.005 A 
ATOM     29  C   UNL     1      13.874  22.969   5.720  0.00  0.00    +0.013 A 
BRANCH  18  19
ATOM     19  C   UNL     1      10.647  23.435   7.821  0.00  0.00    +0.119 C 
BRANCH  19  20
ATOM     20  N   UNL     1       9.911  24.728   7.685  0.00  0.00    -0.302 NA
ATOM     21  C   UNL     1       8.684  24.789   8.598  0.00  0.00    +0.066 C 
ATOM     22  C   UNL     1       7.939  26.157   8.459  0.00  0.00    -0.064 C 
ATOM     23  N   UNL     1       7.539  26.371   6.999  0.00  0.00    +0.379 N 
ATOM     24  C   UNL     1       6.788  27.629   6.875  0.00  0.00    -0.096 C 
ATOM     25  H   UNL     1       6.856  25.539   6.710  0.00  0.00    -0.082 HD
ATOM     26  C   UNL     1       8.754  26.309   6.084  0.00  0.00    -0.064 C 
ATOM     27  C   UNL     1       9.503  24.957   6.251  0.00  0.00    +0.066 C 
ENDBRANCH  19  20
ENDBRANCH  18  19
ENDBRANCH  14  15
ENDBRANCH  12  13
TORSDOF 6
ENDMDL
MODEL 3
REMARK VINA RESULT:      -7.9      7.624     12.175
REMARK  Name = C:\Users\Docking\Desktop\test protocol\1iep_ligandH.pdb
REMARK  8 active torsions:
REMARK  status: ('A' for Active; 'I' for Inactive)
REMARK    1  A    between atoms: _5  and  _11
REMARK    2  A    between atoms: _19  and  _21
REMARK    3  A    between atoms: _22  and  _66
REMARK    4  A    between atoms: _27  and  _30
REMARK    5  A    between atoms: _32  and  _33
REMARK    6  A    between atoms: _38  and  _43
REMARK    7  A    between atoms: _43  and  _46
REMARK    8  A    between atoms: _53  and  _55
REMARK                            x       y       z     vdW  Elec       q    Type
REMARK                         _______ _______ _______ _____ _____    ______ ____
ROOT
ATOM     10  C   UNL     1      19.852  25.570   4.154  0.00  0.00    +0.038 A 
ATOM     11  C   UNL     1      18.524  25.436   4.634  0.00  0.00    +0.047 A 
ATOM     12  C   UNL     1      17.860  24.142   4.659  0.00  0.00    +0.035 A 
ATOM     32  C   UNL     1      18.580  23.004   4.191  0.00  0.00    +0.024 A 
ATOM     33  C   UNL     1      19.930  23.123   3.699  0.00  0.00    +0.007 A 
ATOM     34  C   UNL     1      20.589  24.397   3.669  0.00  0.00    -0.029 A 
ATOM     35  C   UNL     1      22.035  24.466   3.125  0.00  0.00    +0.045 C 
ENDROOT
BRANCH  10   9
ATOM      4  C   UNL     1      21.061  29.673   1.976  0.00  0.00    +0.077 A 
ATOM      5  C   UNL     1      20.495  29.246   0.728  0.00  0.00    +0.048 A 
ATOM      6  C   UNL     1      19.909  27.961   0.688  0.00  0.00    +0.116 A 
ATOM      7  N   UNL     1      19.895  27.171   1.816  0.00  0.00    -0.223 NA
ATOM      8  C   UNL     1      20.451  27.612   3.003  0.00  0.00    +0.220 A 
ATOM      9  N   UNL     1      20.441  26.837   4.152  0.00  0.00    -0.283 N 
ATOM     36  H   UNL     1      20.868  27.195   5.006  0.00  0.00    +0.155 HD
ATOM     37  N   UNL     1      21.018  28.834   3.067  0.00  0.00    -0.214 NA
BRANCH   4   3
ATOM      1  C   UNL     1      22.445  32.940   3.622  0.00  0.00    +0.020 A 
ATOM      2  C   UNL     1      21.804  31.653   3.481  0.00  0.00    +0.013 A 
ATOM      3  C   UNL     1      21.713  31.005   2.178  0.00  0.00    +0.019 A 
ATOM     38  C   UNL     1      22.286  31.691   1.030  0.00  0.00    +0.120 A 
ATOM     39  N   UNL     1      22.896  32.931   1.196  0.00  0.00    -0.263 NA
ATOM     40  C   UNL     1      22.988  33.564   2.445  0.00  0.00    +0.111 A 
ENDBRANCH   4   3
ENDBRANCH  10   9
BRANCH  12  13
ATOM     13  N   UNL     1      16.510  23.946   5.128  0.00  0.00    -0.281 N 
ATOM     14  C   UNL     1      16.098  23.390   6.327  0.00  0.00    +0.248 C 
ATOM     30  O   UNL     1      16.827  22.778   7.093  0.00  0.00    -0.270 OA
ATOM     31  H   UNL     1      15.769  24.255   4.498  0.00  0.00    +0.155 HD
BRANCH  14  15
ATOM     15  C   UNL     1      14.663  23.520   6.728  0.00  0.00    +0.037 A 
ATOM     16  C   UNL     1      13.581  23.230   5.783  0.00  0.00    +0.013 A 
ATOM     17  C   UNL     1      12.207  23.380   6.190  0.00  0.00    +0.005 A 
ATOM     18  C   UNL     1      11.907  23.821   7.550  0.00  0.00    -0.033 A 
ATOM     28  C   UNL     1      12.999  24.096   8.468  0.00  0.00    +0.005 A 
ATOM     29  C   UNL     1      14.348  23.952   8.073  0.00  0.00    +0.013 A 
BRANCH  18  19
ATOM     19  C   UNL     1      10.470  24.028   8.064  0.00  0.00    +0.119 C 
BRANCH  19  20
ATOM     20  N   UNL     1       9.699  22.809   8.451  0.00  0.00    -0.302 NA
ATOM     21  C   UNL     1       8.748  23.078   9.621  0.00  0.00    +0.066 C 
ATOM     22  C   UNL     1       7.934  21.797   9.998  0.00  0.00    -0.064 C 
ATOM     23  N   UNL     1       8.901  20.662  10.336  0.00  0.00    +0.379 N 
ATOM     24  C   UNL     1       8.139  19.474  10.747  0.00  0.00    -0.096 C 
ATOM     25  H   UNL     1       9.514  20.989  11.208  0.00  0.00    -0.082 HD
ATOM     26  C   UNL     1       9.853  20.390   9.180  0.00  0.00    -0.064 C 
ATOM     27  C   UNL     1      10.635  21.676   8.794  0.00  0.00    +0.066 C 
ENDBRANCH  19  20
ENDBRANCH  18  19
ENDBRANCH  14  15
ENDBRANCH  12  13
TORSDOF 6
ENDMDL
MODEL 4
REMARK VINA RESULT:      -7.9      5.808      8.186
REMARK  Name = C:\Users\Docking\Desktop\test protocol\1iep_ligandH.pdb
REMARK  8 active torsions:
REMARK  status: ('A' for Active; 'I' for Inactive)
REMARK    1  A    between atoms: _5  and  _11
REMARK    2  A    between atoms: _19  and  _21
REMARK    3  A    between atoms: _22  and  _66
REMARK    4  A    between atoms: _27  and  _30
REMARK    5  A    between atoms: _32  and  _33
REMARK    6  A    between atoms: _38  and  _43
REMARK    7  A    between atoms: _43  and  _46
REMARK    8  A    between atoms: _53  and  _55
REMARK                            x       y       z     vdW  Elec       q    Type
REMARK                         _______ _______ _______ _____ _____    ______ ____
ROOT
ATOM     10  C   UNL     1      11.799  23.276   8.672  0.00  0.00    +0.038 A 
ATOM     11  C   UNL     1      12.989  23.470   7.926  0.00  0.00    +0.047 A 
ATOM     12  C   UNL     1      14.282  23.060   8.450  0.00  0.00    +0.035 A 
ATOM     32  C   UNL     1      14.327  22.451   9.739  0.00  0.00    +0.024 A 
ATOM     33  C   UNL     1      13.127  22.247  10.512  0.00  0.00    +0.007 A 
ATOM     34  C   UNL     1      11.849  22.652  10.000  0.00  0.00    -0.029 A 
ATOM     35  C   UNL     1      10.596  22.414  10.876  0.00  0.00    +0.045 C 
ENDROOT
BRANCH  10   9
ATOM      4  C   UNL     1       8.463  26.615   7.804  0.00  0.00    +0.077 A 
ATOM      5  C   UNL     1       9.188  27.614   8.534  0.00  0.00    +0.048 A 
ATOM      6  C   UNL     1      10.411  27.226   9.125  0.00  0.00    +0.116 A 
ATOM      7  N   UNL     1      10.867  25.933   8.988  0.00  0.00    -0.223 NA
ATOM      8  C   UNL     1      10.142  24.993   8.278  0.00  0.00    +0.220 A 
ATOM      9  N   UNL     1      10.585  23.689   8.120  0.00  0.00    -0.283 N 
ATOM     36  H   UNL     1      10.017  23.024   7.595  0.00  0.00    +0.155 HD
ATOM     37  N   UNL     1       8.970  25.338   7.706  0.00  0.00    -0.214 NA
BRANCH   4   3
ATOM      1  C   UNL     1       4.652  27.182   7.127  0.00  0.00    +0.020 A 
ATOM      2  C   UNL     1       5.886  26.930   7.835  0.00  0.00    +0.013 A 
ATOM      3  C   UNL     1       7.156  26.872   7.120  0.00  0.00    +0.019 A 
ATOM     38  C   UNL     1       7.141  27.075   5.680  0.00  0.00    +0.120 A 
ATOM     39  N   UNL     1       5.937  27.314   5.025  0.00  0.00    -0.263 NA
ATOM     40  C   UNL     1       4.709  27.371   5.701  0.00  0.00    +0.111 A 
ENDBRANCH   4   3
ENDBRANCH  10   9
BRANCH  12  13
ATOM     13  N   UNL     1      15.525  23.239   7.741  0.00  0.00    -0.281 N 
ATOM     14  C   UNL     1      16.185  22.325   6.936  0.00  0.00    +0.248 C 
ATOM     30  O   UNL     1      15.914  21.136   6.874  0.00  0.00    -0.270 OA
ATOM     31  H   UNL     1      15.972  24.150   7.846  0.00  0.00    +0.155 HD
BRANCH  14  15
ATOM     15  C   UNL     1      17.321  22.800   6.087  0.00  0.00    +0.037 A 
ATOM     16  C   UNL     1      18.584  22.060   6.026  0.00  0.00    +0.013 A 
ATOM     17  C   UNL     1      19.669  22.549   5.213  0.00  0.00    +0.005 A 
ATOM     18  C   UNL     1      19.495  23.784   4.452  0.00  0.00    -0.033 A 
ATOM     28  C   UNL     1      18.229  24.494   4.527  0.00  0.00    +0.005 A 
ATOM     29  C   UNL     1      17.163  24.019   5.324  0.00  0.00    +0.013 A 
BRANCH  18  19
ATOM     19  C   UNL     1      20.606  24.390   3.575  0.00  0.00    +0.119 C 
BRANCH  19  20
ATOM     20  N   UNL     1      20.231  25.532   2.689  0.00  0.00    -0.302 NA
ATOM     21  C   UNL     1      20.706  25.322   1.248  0.00  0.00    +0.066 C 
ATOM     22  C   UNL     1      20.286  26.515   0.330  0.00  0.00    -0.064 C 
ATOM     23  N   UNL     1      20.849  27.817   0.902  0.00  0.00    +0.379 N 
ATOM     24  C   UNL     1      20.505  28.934   0.010  0.00  0.00    -0.096 C 
ATOM     25  H   UNL     1      21.960  27.727   0.917  0.00  0.00    -0.082 HD
ATOM     26  C   UNL     1      20.384  28.033   2.335  0.00  0.00    -0.064 C 
ATOM     27  C   UNL     1      20.781  26.828   3.232  0.00  0.00    +0.066 C 
ENDBRANCH  19  20
ENDBRANCH  18  19
ENDBRANCH  14  15
ENDBRANCH  12  13
TORSDOF 6
ENDMDL
MODEL 5
REMARK VINA RESULT:      -7.9      0.812      1.518
REMARK  Name = C:\Users\Docking\Desktop\test protocol\1iep_ligandH.pdb
REMARK  8 active torsions:
REMARK  status: ('A' for Active; 'I' for Inactive)
REMARK    1  A    between atoms: _5  and  _11
REMARK    2  A    between atoms: _19  and  _21
REMARK    3  A    between atoms: _22  and  _66
REMARK    4  A    between atoms: _27  and  _30
REMARK    5  A    between atoms: _32  and  _33
REMARK    6  A    between atoms: _38  and  _43
REMARK    7  A    between atoms: _43  and  _46
REMARK    8  A    between atoms: _53  and  _55
REMARK                            x       y       z     vdW  Elec       q    Type
REMARK                         _______ _______ _______ _____ _____    ______ ____
ROOT
ATOM     10  C   UNL     1      14.614  21.269   7.978  0.00  0.00    +0.038 A 
ATOM     11  C   UNL     1      15.827  21.436   8.694  0.00  0.00    +0.047 A 
ATOM     12  C   UNL     1      16.776  20.342   8.831  0.00  0.00    +0.035 A 
ATOM     32  C   UNL     1      16.458  19.092   8.225  0.00  0.00    +0.024 A 
ATOM     33  C   UNL     1      15.229  18.905   7.494  0.00  0.00    +0.007 A 
ATOM     34  C   UNL     1      14.289  19.980   7.357  0.00  0.00    -0.029 A 
ATOM     35  C   UNL     1      12.984  19.721   6.568  0.00  0.00    +0.045 C 
ENDROOT
BRANCH  10   9
ATOM      4  C   UNL     1      10.902  23.874   9.551  0.00  0.00    +0.077 A 
ATOM      5  C   UNL     1      10.669  22.984  10.652  0.00  0.00    +0.048 A 
ATOM      6  C   UNL     1      11.522  21.864  10.774  0.00  0.00    +0.116 A 
ATOM      7  N   UNL     1      12.530  21.660   9.857  0.00  0.00    -0.223 NA
ATOM      8  C   UNL     1      12.727  22.536   8.806  0.00  0.00    +0.220 A 
ATOM      9  N   UNL     1      13.740  22.354   7.877  0.00  0.00    -0.283 N 
ATOM     36  H   UNL     1      13.848  23.019   7.112  0.00  0.00    +0.155 HD
ATOM     37  N   UNL     1      11.925  23.612   8.667  0.00  0.00    -0.214 NA
BRANCH   4   3
ATOM      1  C   UNL     1       9.821  27.600   9.054  0.00  0.00    +0.020 A 
ATOM      2  C   UNL     1      10.651  26.446   9.314  0.00  0.00    +0.013 A 
ATOM      3  C   UNL     1      10.088  25.103   9.290  0.00  0.00    +0.019 A 
ATOM     38  C   UNL     1       8.670  24.959   8.997  0.00  0.00    +0.120 A 
ATOM     39  N   UNL     1       7.894  26.088   8.752  0.00  0.00    -0.263 NA
ATOM     40  C   UNL     1       8.425  27.387   8.774  0.00  0.00    +0.111 A 
ENDBRANCH   4   3
ENDBRANCH  10   9
BRANCH  12  13
ATOM     13  N   UNL     1      18.020  20.449   9.553  0.00  0.00    -0.281 N 
ATOM     14  C   UNL     1      19.206  21.021   9.125  0.00  0.00    +0.248 C 
ATOM     30  O   UNL     1      19.442  21.340   7.969  0.00  0.00    -0.270 OA
ATOM     31  H   UNL     1      18.026  20.056  10.494  0.00  0.00    +0.155 HD
BRANCH  14  15
ATOM     15  C   UNL     1      20.293  21.262  10.122  0.00  0.00    +0.037 A 
ATOM     16  C   UNL     1      21.100  22.484  10.087  0.00  0.00    +0.013 A 
ATOM     17  C   UNL     1      22.154  22.683  11.050  0.00  0.00    +0.005 A 
ATOM     18  C   UNL     1      22.405  21.656  12.059  0.00  0.00    -0.033 A 
ATOM     28  C   UNL     1      21.586  20.456  12.074  0.00  0.00    +0.005 A 
ATOM     29  C   UNL     1      20.553  20.257  11.131  0.00  0.00    +0.013 A 
BRANCH  18  19
ATOM     19  C   UNL     1      23.523  21.775  13.113  0.00  0.00    +0.119 C 
BRANCH  19  20
ATOM     20  N   UNL     1      23.155  22.362  14.436  0.00  0.00    -0.302 NA
ATOM     21  C   UNL     1      22.205  21.455  15.223  0.00  0.00    +0.066 C 
ATOM     22  C   UNL     1      21.849  22.075  16.613  0.00  0.00    -0.064 C 
ATOM     23  N   UNL     1      21.231  23.459  16.409  0.00  0.00    +0.379 N 
ATOM     24  C   UNL     1      20.842  24.020  17.711  0.00  0.00    -0.096 C 
ATOM     25  H   UNL     1      20.303  23.329  15.805  0.00  0.00    -0.082 HD
ATOM     26  C   UNL     1      22.168  24.366  15.625  0.00  0.00    -0.064 C 
ATOM     27  C   UNL     1      22.539  23.728  14.257  0.00  0.00    +0.066 C 
ENDBRANCH  19  20
ENDBRANCH  18  19
ENDBRANCH  14  15
ENDBRANCH  12  13
TORSDOF 6
ENDMDL
