MODEL 1
REMARK VINA RESULT:      -9.7      0.000      0.000
REMARK  Name = C:\Users\Docking\Desktop\test protocol\1iep_ligandH.pdb
REMARK  8 active torsions:
REMARK  status: ('A' for Active; 'I' for Inactive)
REMARK    1  A    between atoms: _5  and  _11
REMARK    2  A    between atoms: _19  and  _21
REMARK    3  A    between atoms: _22  and  _66
REMARK    4  A    between atoms: _27  and  _30
REMARK    5  A    between atoms: _32  and  _33
REMARK    6  A    between atoms: _38  and  _43
REMARK    7  A    between atoms: _43  and  _46
REMARK    8  A    between atoms: _53  and  _55
REMARK                            x       y       z     vdW  Elec       q    Type
REMARK                         _______ _______ _______ _____ _____    ______ ____
ROOT
ATOM     10  C   UNL     1     -53.351  41.751  -5.677  0.00  0.00    +0.038 A 
ATOM     11  C   UNL     1     -53.672  43.104  -5.956  0.00  0.00    +0.047 A 
ATOM     12  C   UNL     1     -54.076  43.523  -7.289  0.00  0.00    +0.035 A 
ATOM     32  C   UNL     1     -54.144  42.536  -8.315  0.00  0.00    +0.024 A 
ATOM     33  C   UNL     1     -53.820  41.156  -8.050  0.00  0.00    +0.007 A 
ATOM     34  C   UNL     1     -53.419  40.738  -6.737  0.00  0.00    -0.029 A 
ATOM     35  C   UNL     1     -53.077  39.247  -6.511  0.00  0.00    +0.045 C 
ENDROOT
BRANCH  10   9
ATOM      4  C   UNL     1     -54.366  40.358  -1.197  0.00  0.00    +0.077 A 
ATOM      5  C   UNL     1     -55.776  40.345  -1.458  0.00  0.00    +0.048 A 
ATOM      6  C   UNL     1     -56.200  40.710  -2.755  0.00  0.00    +0.116 A 
ATOM      7  N   UNL     1     -55.273  41.060  -3.713  0.00  0.00    -0.223 NA
ATOM      8  C   UNL     1     -53.920  41.064  -3.428  0.00  0.00    +0.220 A 
ATOM      9  N   UNL     1     -52.970  41.405  -4.379  0.00  0.00    -0.283 N 
ATOM     36  H   UNL     1     -51.982  41.403  -4.127  0.00  0.00    +0.155 HD
ATOM     37  N   UNL     1     -53.490  40.721  -2.196  0.00  0.00    -0.214 NA
BRANCH   4   3
ATOM      1  C   UNL     1     -53.921  39.480   2.588  0.00  0.00    +0.020 A 
ATOM      2  C   UNL     1     -54.553  39.833   1.338  0.00  0.00    +0.013 A 
ATOM      3  C   UNL     1     -53.763  39.995   0.124  0.00  0.00    +0.019 A 
ATOM     38  C   UNL     1     -52.324  39.790   0.210  0.00  0.00    +0.120 A 
ATOM     39  N   UNL     1     -51.744  39.452   1.428  0.00  0.00    -0.263 NA
ATOM     40  C   UNL     1     -52.494  39.295   2.603  0.00  0.00    +0.111 A 
ENDBRANCH   4   3
ENDBRANCH  10   9
BRANCH  12  13
ATOM     13  N   UNL     1     -54.406  44.883  -7.634  0.00  0.00    -0.281 N 
ATOM     14  C   UNL     1     -53.693  45.754  -8.443  0.00  0.00    +0.248 C 
ATOM     30  O   UNL     1     -52.548  45.563  -8.824  0.00  0.00    -0.270 OA
ATOM     31  H   UNL     1     -55.269  45.250  -7.232  0.00  0.00    +0.155 HD
BRANCH  14  15
ATOM     15  C   UNL     1     -54.342  47.027  -8.880  0.00  0.00    +0.037 A 
ATOM     16  C   UNL     1     -55.753  47.299  -8.593  0.00  0.00    +0.013 A 
ATOM     17  C   UNL     1     -56.359  48.528  -9.041  0.00  0.00    +0.005 A 
ATOM     18  C   UNL     1     -55.552  49.496  -9.781  0.00  0.00    -0.033 A 
ATOM     28  C   UNL     1     -54.153  49.203 -10.047  0.00  0.00    +0.005 A 
ATOM     29  C   UNL     1     -53.557  47.999  -9.610  0.00  0.00    +0.013 A 
BRANCH  18  19
ATOM     19  C   UNL     1     -56.120  50.824 -10.315  0.00  0.00    +0.119 C 
BRANCH  19  20
ATOM     20  N   UNL     1     -55.179  51.978 -10.419  0.00  0.00    -0.302 NA
ATOM     21  C   UNL     1     -55.247  52.887  -9.188  0.00  0.00    +0.066 C 
ATOM     22  C   UNL     1     -54.240  54.077  -9.302  0.00  0.00    -0.064 C 
ATOM     23  N   UNL     1     -54.534  54.869 -10.577  0.00  0.00    +0.379 N 
ATOM     24  C   UNL     1     -53.626  56.023 -10.658  0.00  0.00    -0.096 C 
ATOM     25  H   UNL     1     -55.574  55.262 -10.499  0.00  0.00    -0.082 HD
ATOM     26  C   UNL     1     -54.471  53.973 -11.806  0.00  0.00    -0.064 C 
ATOM     27  C   UNL     1     -55.454  52.777 -11.669  0.00  0.00    +0.066 C 
ENDBRANCH  19  20
ENDBRANCH  18  19
ENDBRANCH  14  15
ENDBRANCH  12  13
TORSDOF 6
ENDMDL
MODEL 2
REMARK VINA RESULT:      -9.3      2.484     13.226
REMARK  Name = C:\Users\Docking\Desktop\test protocol\1iep_ligandH.pdb
REMARK  8 active torsions:
REMARK  status: ('A' for Active; 'I' for Inactive)
REMARK    1  A    between atoms: _5  and  _11
REMARK    2  A    between atoms: _19  and  _21
REMARK    3  A    between atoms: _22  and  _66
REMARK    4  A    between atoms: _27  and  _30
REMARK    5  A    between atoms: _32  and  _33
REMARK    6  A    between atoms: _38  and  _43
REMARK    7  A    between atoms: _43  and  _46
REMARK    8  A    between atoms: _53  and  _55
REMARK                            x       y       z     vdW  Elec       q    Type
REMARK                         _______ _______ _______ _____ _____    ______ ____
ROOT
ATOM     10  C   UNL     1     -52.126  43.786  -6.144  0.00  0.00    +0.038 A 
ATOM     11  C   UNL     1     -52.762  43.413  -4.932  0.00  0.00    +0.047 A 
ATOM     12  C   UNL     1     -52.770  42.030  -4.481  0.00  0.00    +0.035 A 
ATOM     32  C   UNL     1     -52.118  41.052  -5.289  0.00  0.00    +0.024 A 
ATOM     33  C   UNL     1     -51.469  41.414  -6.524  0.00  0.00    +0.007 A 
ATOM     34  C   UNL     1     -51.460  42.776  -6.975  0.00  0.00    -0.029 A 
ATOM     35  C   UNL     1     -50.753  43.105  -8.310  0.00  0.00    +0.045 C 
ENDROOT
BRANCH  10   9
ATOM      4  C   UNL     1     -54.227  47.548  -8.259  0.00  0.00    +0.077 A 
ATOM      5  C   UNL     1     -55.363  46.766  -8.654  0.00  0.00    +0.048 A 
ATOM      6  C   UNL     1     -55.364  45.399  -8.300  0.00  0.00    +0.116 A 
ATOM      7  N   UNL     1     -54.304  44.863  -7.602  0.00  0.00    -0.223 NA
ATOM      8  C   UNL     1     -53.223  45.644  -7.237  0.00  0.00    +0.220 A 
ATOM      9  N   UNL     1     -52.149  45.128  -6.528  0.00  0.00    -0.283 N 
ATOM     36  H   UNL     1     -51.367  45.736  -6.284  0.00  0.00    +0.155 HD
ATOM     37  N   UNL     1     -53.197  46.953  -7.565  0.00  0.00    -0.214 NA
BRANCH   4   3
ATOM      1  C   UNL     1     -54.413  51.036 -10.018  0.00  0.00    +0.020 A 
ATOM      2  C   UNL     1     -54.580  49.621  -9.780  0.00  0.00    +0.013 A 
ATOM      3  C   UNL     1     -54.080  49.008  -8.556  0.00  0.00    +0.019 A 
ATOM     38  C   UNL     1     -53.409  49.861  -7.587  0.00  0.00    +0.120 A 
ATOM     39  N   UNL     1     -53.261  51.220  -7.844  0.00  0.00    -0.263 NA
ATOM     40  C   UNL     1     -53.738  51.821  -9.019  0.00  0.00    +0.111 A 
ENDBRANCH   4   3
ENDBRANCH  10   9
BRANCH  12  13
ATOM     13  N   UNL     1     -53.406  41.590  -3.264  0.00  0.00    -0.281 N 
ATOM     14  C   UNL     1     -54.667  41.038  -3.114  0.00  0.00    +0.248 C 
ATOM     30  O   UNL     1     -55.528  41.036  -3.981  0.00  0.00    -0.270 OA
ATOM     31  H   UNL     1     -52.859  41.699  -2.410  0.00  0.00    +0.155 HD
BRANCH  14  15
ATOM     15  C   UNL     1     -55.030  40.411  -1.806  0.00  0.00    +0.037 A 
ATOM     16  C   UNL     1     -56.312  39.726  -1.621  0.00  0.00    +0.013 A 
ATOM     17  C   UNL     1     -56.644  39.145  -0.345  0.00  0.00    +0.005 A 
ATOM     18  C   UNL     1     -55.690  39.245   0.757  0.00  0.00    -0.033 A 
ATOM     28  C   UNL     1     -54.423  39.925   0.545  0.00  0.00    +0.005 A 
ATOM     29  C   UNL     1     -54.095  40.497  -0.705  0.00  0.00    +0.013 A 
BRANCH  18  19
ATOM     19  C   UNL     1     -55.969  38.672   2.160  0.00  0.00    +0.119 C 
BRANCH  19  20
ATOM     20  N   UNL     1     -54.938  38.910   3.213  0.00  0.00    -0.302 NA
ATOM     21  C   UNL     1     -54.291  37.606   3.688  0.00  0.00    +0.066 C 
ATOM     22  C   UNL     1     -53.199  37.875   4.774  0.00  0.00    -0.064 C 
ATOM     23  N   UNL     1     -53.826  38.628   5.949  0.00  0.00    +0.379 N 
ATOM     24  C   UNL     1     -52.815  38.831   6.997  0.00  0.00    -0.096 C 
ATOM     25  H   UNL     1     -54.629  37.982   6.374  0.00  0.00    -0.082 HD
ATOM     26  C   UNL     1     -54.474  39.924   5.485  0.00  0.00    -0.064 C 
ATOM     27  C   UNL     1     -55.537  39.649   4.385  0.00  0.00    +0.066 C 
ENDBRANCH  19  20
ENDBRANCH  18  19
ENDBRANCH  14  15
ENDBRANCH  12  13
TORSDOF 6
ENDMDL
MODEL 3
REMARK VINA RESULT:      -8.8      3.007     13.686
REMARK  Name = C:\Users\Docking\Desktop\test protocol\1iep_ligandH.pdb
REMARK  8 active torsions:
REMARK  status: ('A' for Active; 'I' for Inactive)
REMARK    1  A    between atoms: _5  and  _11
REMARK    2  A    between atoms: _19  and  _21
REMARK    3  A    between atoms: _22  and  _66
REMARK    4  A    between atoms: _27  and  _30
REMARK    5  A    between atoms: _32  and  _33
REMARK    6  A    between atoms: _38  and  _43
REMARK    7  A    between atoms: _43  and  _46
REMARK    8  A    between atoms: _53  and  _55
REMARK                            x       y       z     vdW  Elec       q    Type
REMARK                         _______ _______ _______ _____ _____    ______ ____
ROOT
ATOM     10  C   UNL     1     -51.760  43.525  -5.454  0.00  0.00    +0.038 A 
ATOM     11  C   UNL     1     -52.534  43.155  -4.324  0.00  0.00    +0.047 A 
ATOM     12  C   UNL     1     -52.433  41.824  -3.746  0.00  0.00    +0.035 A 
ATOM     32  C   UNL     1     -51.531  40.895  -4.343  0.00  0.00    +0.024 A 
ATOM     33  C   UNL     1     -50.738  41.254  -5.492  0.00  0.00    +0.007 A 
ATOM     34  C   UNL     1     -50.835  42.565  -6.068  0.00  0.00    -0.029 A 
ATOM     35  C   UNL     1     -49.965  42.892  -7.304  0.00  0.00    +0.045 C 
ENDROOT
BRANCH  10   9
ATOM      4  C   UNL     1     -53.920  46.750  -8.277  0.00  0.00    +0.077 A 
ATOM      5  C   UNL     1     -54.836  45.774  -8.792  0.00  0.00    +0.048 A 
ATOM      6  C   UNL     1     -54.714  44.452  -8.310  0.00  0.00    +0.116 A 
ATOM      7  N   UNL     1     -53.744  44.140  -7.382  0.00  0.00    -0.223 NA
ATOM      8  C   UNL     1     -52.875  45.106  -6.907  0.00  0.00    +0.220 A 
ATOM      9  N   UNL     1     -51.897  44.817  -5.968  0.00  0.00    -0.283 N 
ATOM     36  H   UNL     1     -51.270  45.555  -5.649  0.00  0.00    +0.155 HD
ATOM     37  N   UNL     1     -52.970  46.375  -7.353  0.00  0.00    -0.214 NA
BRANCH   4   3
ATOM      1  C   UNL     1     -54.408  50.047 -10.325  0.00  0.00    +0.020 A 
ATOM      2  C   UNL     1     -54.425  48.645  -9.979  0.00  0.00    +0.013 A 
ATOM      3  C   UNL     1     -53.925  48.190  -8.687  0.00  0.00    +0.019 A 
ATOM     38  C   UNL     1     -53.411  49.189  -7.761  0.00  0.00    +0.120 A 
ATOM     39  N   UNL     1     -53.406  50.532  -8.123  0.00  0.00    -0.263 NA
ATOM     40  C   UNL     1     -53.883  50.981  -9.364  0.00  0.00    +0.111 A 
ENDBRANCH   4   3
ENDBRANCH  10   9
BRANCH  12  13
ATOM     13  N   UNL     1     -53.199  41.389  -2.605  0.00  0.00    -0.281 N 
ATOM     14  C   UNL     1     -54.456  40.807  -2.595  0.00  0.00    +0.248 C 
ATOM     30  O   UNL     1     -55.207  40.766  -3.558  0.00  0.00    -0.270 OA
ATOM     31  H   UNL     1     -52.762  41.527  -1.694  0.00  0.00    +0.155 HD
BRANCH  14  15
ATOM     15  C   UNL     1     -54.957  40.193  -1.328  0.00  0.00    +0.037 A 
ATOM     16  C   UNL     1     -56.210  39.434  -1.294  0.00  0.00    +0.013 A 
ATOM     17  C   UNL     1     -56.680  38.867  -0.055  0.00  0.00    +0.005 A 
ATOM     18  C   UNL     1     -55.894  39.056   1.162  0.00  0.00    -0.033 A 
ATOM     28  C   UNL     1     -54.651  39.808   1.099  0.00  0.00    +0.005 A 
ATOM     29  C   UNL     1     -54.189  40.366  -0.113  0.00  0.00    +0.013 A 
BRANCH  18  19
ATOM     19  C   UNL     1     -56.329  38.504   2.532  0.00  0.00    +0.119 C 
BRANCH  19  20
ATOM     20  N   UNL     1     -56.073  37.057   2.800  0.00  0.00    -0.302 NA
ATOM     21  C   UNL     1     -55.948  36.763   4.297  0.00  0.00    +0.066 C 
ATOM     22  C   UNL     1     -55.702  35.241   4.560  0.00  0.00    -0.064 C 
ATOM     23  N   UNL     1     -54.445  34.794   3.813  0.00  0.00    +0.379 N 
ATOM     24  C   UNL     1     -54.179  33.378   4.105  0.00  0.00    -0.096 C 
ATOM     25  H   UNL     1     -53.588  35.388   4.208  0.00  0.00    -0.082 HD
ATOM     26  C   UNL     1     -54.559  35.085   2.323  0.00  0.00    -0.064 C 
ATOM     27  C   UNL     1     -54.832  36.595   2.075  0.00  0.00    +0.066 C 
ENDBRANCH  19  20
ENDBRANCH  18  19
ENDBRANCH  14  15
ENDBRANCH  12  13
TORSDOF 6
ENDMDL
MODEL 4
REMARK VINA RESULT:      -8.3      4.730      8.094
REMARK  Name = C:\Users\Docking\Desktop\test protocol\1iep_ligandH.pdb
REMARK  8 active torsions:
REMARK  status: ('A' for Active; 'I' for Inactive)
REMARK    1  A    between atoms: _5  and  _11
REMARK    2  A    between atoms: _19  and  _21
REMARK    3  A    between atoms: _22  and  _66
REMARK    4  A    between atoms: _27  and  _30
REMARK    5  A    between atoms: _32  and  _33
REMARK    6  A    between atoms: _38  and  _43
REMARK    7  A    between atoms: _43  and  _46
REMARK    8  A    between atoms: _53  and  _55
REMARK                            x       y       z     vdW  Elec       q    Type
REMARK                         _______ _______ _______ _____ _____    ______ ____
ROOT
ATOM     10  C   UNL     1     -55.202  41.656  -9.138  0.00  0.00    +0.038 A 
ATOM     11  C   UNL     1     -54.902  43.011  -9.428  0.00  0.00    +0.047 A 
ATOM     12  C   UNL     1     -54.590  43.956  -8.367  0.00  0.00    +0.035 A 
ATOM     32  C   UNL     1     -54.591  43.486  -7.021  0.00  0.00    +0.024 A 
ATOM     33  C   UNL     1     -54.895  42.112  -6.709  0.00  0.00    +0.007 A 
ATOM     34  C   UNL     1     -55.206  41.176  -7.751  0.00  0.00    -0.029 A 
ATOM     35  C   UNL     1     -55.531  39.716  -7.357  0.00  0.00    +0.045 C 
ENDROOT
BRANCH  10   9
ATOM      4  C   UNL     1     -53.878  38.648 -12.636  0.00  0.00    +0.077 A 
ATOM      5  C   UNL     1     -52.484  38.835 -12.350  0.00  0.00    +0.048 A 
ATOM      6  C   UNL     1     -52.151  39.719 -11.299  0.00  0.00    +0.116 A 
ATOM      7  N   UNL     1     -53.144  40.363 -10.594  0.00  0.00    -0.223 NA
ATOM      8  C   UNL     1     -54.478  40.161 -10.897  0.00  0.00    +0.220 A 
ATOM      9  N   UNL     1     -55.495  40.792 -10.196  0.00  0.00    -0.283 N 
ATOM     36  H   UNL     1     -56.466  40.623 -10.455  0.00  0.00    +0.155 HD
ATOM     37  N   UNL     1     -54.823  39.323 -11.897  0.00  0.00    -0.214 NA
BRANCH   4   3
ATOM      1  C   UNL     1     -54.524  36.980 -16.114  0.00  0.00    +0.020 A 
ATOM      2  C   UNL     1     -54.001  37.880 -15.112  0.00  0.00    +0.013 A 
ATOM      3  C   UNL     1     -54.389  37.744 -13.714  0.00  0.00    +0.019 A 
ATOM     38  C   UNL     1     -55.315  36.678 -13.360  0.00  0.00    +0.120 A 
ATOM     39  N   UNL     1     -55.803  35.828 -14.347  0.00  0.00    -0.263 NA
ATOM     40  C   UNL     1     -55.438  35.950 -15.696  0.00  0.00    +0.111 A 
ENDBRANCH   4   3
ENDBRANCH  10   9
BRANCH  12  13
ATOM     13  N   UNL     1     -54.284  45.346  -8.600  0.00  0.00    -0.281 N 
ATOM     14  C   UNL     1     -55.156  46.423  -8.590  0.00  0.00    +0.248 C 
ATOM     30  O   UNL     1     -56.374  46.326  -8.590  0.00  0.00    -0.270 OA
ATOM     31  H   UNL     1     -53.307  45.563  -8.796  0.00  0.00    +0.155 HD
BRANCH  14  15
ATOM     15  C   UNL     1     -54.593  47.808  -8.596  0.00  0.00    +0.037 A 
ATOM     16  C   UNL     1     -53.681  48.261  -7.543  0.00  0.00    +0.013 A 
ATOM     17  C   UNL     1     -53.166  49.608  -7.563  0.00  0.00    +0.005 A 
ATOM     18  C   UNL     1     -53.562  50.510  -8.642  0.00  0.00    -0.033 A 
ATOM     28  C   UNL     1     -54.465  50.032  -9.676  0.00  0.00    +0.005 A 
ATOM     29  C   UNL     1     -54.972  48.713  -9.659  0.00  0.00    +0.013 A 
BRANCH  18  19
ATOM     19  C   UNL     1     -53.078  51.969  -8.731  0.00  0.00    +0.119 C 
BRANCH  19  20
ATOM     20  N   UNL     1     -54.023  52.968  -9.315  0.00  0.00    -0.302 NA
ATOM     21  C   UNL     1     -53.305  53.986 -10.205  0.00  0.00    +0.066 C 
ATOM     22  C   UNL     1     -54.311  55.010 -10.825  0.00  0.00    -0.064 C 
ATOM     23  N   UNL     1     -55.073  55.715  -9.702  0.00  0.00    +0.379 N 
ATOM     24  C   UNL     1     -55.979  56.720 -10.279  0.00  0.00    -0.096 C 
ATOM     25  H   UNL     1     -54.327  56.254  -9.073  0.00  0.00    -0.082 HD
ATOM     26  C   UNL     1     -55.788  54.710  -8.810  0.00  0.00    -0.064 C 
ATOM     27  C   UNL     1     -54.784  53.680  -8.223  0.00  0.00    +0.066 C 
ENDBRANCH  19  20
ENDBRANCH  18  19
ENDBRANCH  14  15
ENDBRANCH  12  13
TORSDOF 6
ENDMDL
MODEL 5
REMARK VINA RESULT:      -7.8     24.530     27.975
REMARK  Name = C:\Users\Docking\Desktop\test protocol\1iep_ligandH.pdb
REMARK  8 active torsions:
REMARK  status: ('A' for Active; 'I' for Inactive)
REMARK    1  A    between atoms: _5  and  _11
REMARK    2  A    between atoms: _19  and  _21
REMARK    3  A    between atoms: _22  and  _66
REMARK    4  A    between atoms: _27  and  _30
REMARK    5  A    between atoms: _32  and  _33
REMARK    6  A    between atoms: _38  and  _43
REMARK    7  A    between atoms: _43  and  _46
REMARK    8  A    between atoms: _53  and  _55
REMARK                            x       y       z     vdW  Elec       q    Type
REMARK                         _______ _______ _______ _____ _____    ______ ____
ROOT
ATOM     10  C   UNL     1     -67.205  64.400   4.496  0.00  0.00    +0.038 A 
ATOM     11  C   UNL     1     -68.601  64.378   4.246  0.00  0.00    +0.047 A 
ATOM     12  C   UNL     1     -69.278  65.521   3.655  0.00  0.00    +0.035 A 
ATOM     32  C   UNL     1     -68.502  66.671   3.327  0.00  0.00    +0.024 A 
ATOM     33  C   UNL     1     -67.082  66.711   3.575  0.00  0.00    +0.007 A 
ATOM     34  C   UNL     1     -66.409  65.587   4.161  0.00  0.00    -0.029 A 
ATOM     35  C   UNL     1     -64.886  65.688   4.410  0.00  0.00    +0.045 C 
ENDROOT
BRANCH  10   9
ATOM      4  C   UNL     1     -65.878  61.775   8.288  0.00  0.00    +0.077 A 
ATOM      5  C   UNL     1     -66.396  62.741   9.213  0.00  0.00    +0.048 A 
ATOM      6  C   UNL     1     -66.990  63.903   8.672  0.00  0.00    +0.116 A 
ATOM      7  N   UNL     1     -67.056  64.076   7.307  0.00  0.00    -0.223 NA
ATOM      8  C   UNL     1     -66.545  63.125   6.442  0.00  0.00    +0.220 A 
ATOM      9  N   UNL     1     -66.607  63.274   5.066  0.00  0.00    -0.283 N 
ATOM     36  H   UNL     1     -66.212  62.553   4.462  0.00  0.00    +0.155 HD
ATOM     37  N   UNL     1     -65.971  62.007   6.934  0.00  0.00    -0.214 NA
BRANCH   4   3
ATOM      1  C   UNL     1     -65.291  58.061   9.368  0.00  0.00    +0.020 A 
ATOM      2  C   UNL     1     -65.972  59.271   8.968  0.00  0.00    +0.013 A 
ATOM      3  C   UNL     1     -65.223  60.494   8.705  0.00  0.00    +0.019 A 
ATOM     38  C   UNL     1     -63.777  60.458   8.857  0.00  0.00    +0.120 A 
ATOM     39  N   UNL     1     -63.149  59.279   9.245  0.00  0.00    -0.263 NA
ATOM     40  C   UNL     1     -63.859  58.096   9.502  0.00  0.00    +0.111 A 
ENDBRANCH   4   3
ENDBRANCH  10   9
BRANCH  12  13
ATOM     13  N   UNL     1     -70.694  65.560   3.386  0.00  0.00    -0.281 N 
ATOM     14  C   UNL     1     -71.697  66.101   4.174  0.00  0.00    +0.248 C 
ATOM     30  O   UNL     1     -71.551  66.446   5.337  0.00  0.00    -0.270 OA
ATOM     31  H   UNL     1     -70.994  65.137   2.507  0.00  0.00    +0.155 HD
BRANCH  14  15
ATOM     15  C   UNL     1     -73.063  66.269   3.591  0.00  0.00    +0.037 A 
ATOM     16  C   UNL     1     -74.119  66.974   4.321  0.00  0.00    +0.013 A 
ATOM     17  C   UNL     1     -75.433  67.107   3.743  0.00  0.00    +0.005 A 
ATOM     18  C   UNL     1     -75.697  66.534   2.425  0.00  0.00    -0.033 A 
ATOM     28  C   UNL     1     -74.629  65.844   1.721  0.00  0.00    +0.005 A 
ATOM     29  C   UNL     1     -73.340  65.711   2.285  0.00  0.00    +0.013 A 
BRANCH  18  19
ATOM     19  C   UNL     1     -77.074  66.610   1.741  0.00  0.00    +0.119 C 
BRANCH  19  20
ATOM     20  N   UNL     1     -77.166  66.123   0.332  0.00  0.00    -0.302 NA
ATOM     21  C   UNL     1     -77.000  67.259  -0.681  0.00  0.00    +0.066 C 
ATOM     22  C   UNL     1     -77.076  66.729  -2.149  0.00  0.00    -0.064 C 
ATOM     23  N   UNL     1     -78.408  66.006  -2.360  0.00  0.00    +0.379 N 
ATOM     24  C   UNL     1     -78.507  65.556  -3.756  0.00  0.00    -0.096 C 
ATOM     25  H   UNL     1     -79.224  66.745  -2.183  0.00  0.00    -0.082 HD
ATOM     26  C   UNL     1     -78.582  64.876  -1.355  0.00  0.00    -0.064 C 
ATOM     27  C   UNL     1     -78.476  65.410   0.101  0.00  0.00    +0.066 C 
ENDBRANCH  19  20
ENDBRANCH  18  19
ENDBRANCH  14  15
ENDBRANCH  12  13
TORSDOF 6
ENDMDL
