MODEL 1
REMARK VINA RESULT:      -8.6      0.000      0.000
REMARK  Name = C:\Users\Docking\Desktop\test protocol\1iep_ligandH.pdb
REMARK  8 active torsions:
REMARK  status: ('A' for Active; 'I' for Inactive)
REMARK    1  A    between atoms: _5  and  _11
REMARK    2  A    between atoms: _19  and  _21
REMARK    3  A    between atoms: _22  and  _66
REMARK    4  A    between atoms: _27  and  _30
REMARK    5  A    between atoms: _32  and  _33
REMARK    6  A    between atoms: _38  and  _43
REMARK    7  A    between atoms: _43  and  _46
REMARK    8  A    between atoms: _53  and  _55
REMARK                            x       y       z     vdW  Elec       q    Type
REMARK                         _______ _______ _______ _____ _____    ______ ____
ROOT
ATOM     10  C   UNL     1     -14.861  39.785  32.096  0.00  0.00    +0.038 A 
ATOM     11  C   UNL     1     -13.746  38.909  32.149  0.00  0.00    +0.047 A 
ATOM     12  C   UNL     1     -12.385  39.423  32.166  0.00  0.00    +0.035 A 
ATOM     32  C   UNL     1     -12.196  40.835  32.132  0.00  0.00    +0.024 A 
ATOM     33  C   UNL     1     -13.318  41.740  32.077  0.00  0.00    +0.007 A 
ATOM     34  C   UNL     1     -14.662  41.239  32.057  0.00  0.00    -0.029 A 
ATOM     35  C   UNL     1     -15.826  42.255  31.992  0.00  0.00    +0.045 C 
ENDROOT
BRANCH  10   9
ATOM      4  C   UNL     1     -18.648  37.937  29.799  0.00  0.00    +0.077 A 
ATOM      5  C   UNL     1     -18.026  38.102  28.517  0.00  0.00    +0.048 A 
ATOM      6  C   UNL     1     -16.734  38.673  28.492  0.00  0.00    +0.116 A 
ATOM      7  N   UNL     1     -16.119  39.047  29.667  0.00  0.00    -0.223 NA
ATOM      8  C   UNL     1     -16.748  38.875  30.887  0.00  0.00    +0.220 A 
ATOM      9  N   UNL     1     -16.145  39.237  32.082  0.00  0.00    -0.283 N 
ATOM     36  H   UNL     1     -16.645  39.101  32.960  0.00  0.00    +0.155 HD
ATOM     37  N   UNL     1     -17.983  38.334  30.938  0.00  0.00    -0.214 NA
BRANCH   4   3
ATOM      1  C   UNL     1     -22.025  36.063  29.179  0.00  0.00    +0.020 A 
ATOM      2  C   UNL     1     -20.711  36.614  28.942  0.00  0.00    +0.013 A 
ATOM      3  C   UNL     1     -20.011  37.346  29.990  0.00  0.00    +0.019 A 
ATOM     38  C   UNL     1     -20.673  37.503  31.276  0.00  0.00    +0.120 A 
ATOM     39  N   UNL     1     -21.940  36.962  31.475  0.00  0.00    -0.263 NA
ATOM     40  C   UNL     1     -22.624  36.258  30.473  0.00  0.00    +0.111 A 
ENDBRANCH   4   3
ENDBRANCH  10   9
BRANCH  12  13
ATOM     13  N   UNL     1     -11.215  38.582  32.211  0.00  0.00    -0.281 N 
ATOM     14  C   UNL     1     -10.771  37.689  31.249  0.00  0.00    +0.248 C 
ATOM     30  O   UNL     1     -11.433  37.320  30.291  0.00  0.00    -0.270 OA
ATOM     31  H   UNL     1     -10.645  38.654  33.053  0.00  0.00    +0.155 HD
BRANCH  14  15
ATOM     15  C   UNL     1      -9.398  37.113  31.379  0.00  0.00    +0.037 A 
ATOM     16  C   UNL     1      -8.353  37.802  32.141  0.00  0.00    +0.013 A 
ATOM     17  C   UNL     1      -7.032  37.232  32.235  0.00  0.00    +0.005 A 
ATOM     18  C   UNL     1      -6.750  35.964  31.567  0.00  0.00    -0.033 A 
ATOM     28  C   UNL     1      -7.806  35.299  30.822  0.00  0.00    +0.005 A 
ATOM     29  C   UNL     1      -9.101  35.855  30.726  0.00  0.00    +0.013 A 
BRANCH  18  19
ATOM     19  C   UNL     1      -5.363  35.294  31.597  0.00  0.00    +0.119 C 
BRANCH  19  20
ATOM     20  N   UNL     1      -4.563  35.321  30.337  0.00  0.00    -0.302 NA
ATOM     21  C   UNL     1      -4.144  33.917  29.892  0.00  0.00    +0.066 C 
ATOM     22  C   UNL     1      -3.327  33.962  28.560  0.00  0.00    -0.064 C 
ATOM     23  N   UNL     1      -2.102  34.859  28.746  0.00  0.00    +0.379 N 
ATOM     24  C   UNL     1      -1.301  34.857  27.513  0.00  0.00    -0.096 C 
ATOM     25  H   UNL     1      -1.478  34.415  29.556  0.00  0.00    -0.082 HD
ATOM     26  C   UNL     1      -2.510  36.256  29.191  0.00  0.00    -0.064 C 
ATOM     27  C   UNL     1      -3.346  36.198  30.499  0.00  0.00    +0.066 C 
ENDBRANCH  19  20
ENDBRANCH  18  19
ENDBRANCH  14  15
ENDBRANCH  12  13
TORSDOF 6
ENDMDL
MODEL 2
REMARK VINA RESULT:      -8.5      1.664      2.347
REMARK  Name = C:\Users\Docking\Desktop\test protocol\1iep_ligandH.pdb
REMARK  8 active torsions:
REMARK  status: ('A' for Active; 'I' for Inactive)
REMARK    1  A    between atoms: _5  and  _11
REMARK    2  A    between atoms: _19  and  _21
REMARK    3  A    between atoms: _22  and  _66
REMARK    4  A    between atoms: _27  and  _30
REMARK    5  A    between atoms: _32  and  _33
REMARK    6  A    between atoms: _38  and  _43
REMARK    7  A    between atoms: _43  and  _46
REMARK    8  A    between atoms: _53  and  _55
REMARK                            x       y       z     vdW  Elec       q    Type
REMARK                         _______ _______ _______ _____ _____    ______ ____
ROOT
ATOM     10  C   UNL     1     -15.207  40.320  31.915  0.00  0.00    +0.038 A 
ATOM     11  C   UNL     1     -14.029  39.547  31.758  0.00  0.00    +0.047 A 
ATOM     12  C   UNL     1     -12.714  40.170  31.760  0.00  0.00    +0.035 A 
ATOM     32  C   UNL     1     -12.637  41.583  31.928  0.00  0.00    +0.024 A 
ATOM     33  C   UNL     1     -13.825  42.384  32.089  0.00  0.00    +0.007 A 
ATOM     34  C   UNL     1     -15.124  41.776  32.085  0.00  0.00    -0.029 A 
ATOM     35  C   UNL     1     -16.364  42.685  32.254  0.00  0.00    +0.045 C 
ENDROOT
BRANCH  10   9
ATOM      4  C   UNL     1     -18.724  37.948  29.669  0.00  0.00    +0.077 A 
ATOM      5  C   UNL     1     -18.054  38.035  28.403  0.00  0.00    +0.048 A 
ATOM      6  C   UNL     1     -16.810  38.705  28.372  0.00  0.00    +0.116 A 
ATOM      7  N   UNL     1     -16.285  39.243  29.526  0.00  0.00    -0.223 NA
ATOM      8  C   UNL     1     -16.957  39.143  30.730  0.00  0.00    +0.220 A 
ATOM      9  N   UNL     1     -16.443  39.670  31.905  0.00  0.00    -0.283 N 
ATOM     36  H   UNL     1     -16.974  39.582  32.771  0.00  0.00    +0.155 HD
ATOM     37  N   UNL     1     -18.147  38.510  30.786  0.00  0.00    -0.214 NA
BRANCH   4   3
ATOM      1  C   UNL     1     -21.986  35.880  29.051  0.00  0.00    +0.020 A 
ATOM      2  C   UNL     1     -20.712  36.518  28.810  0.00  0.00    +0.013 A 
ATOM      3  C   UNL     1     -20.044  37.269  29.864  0.00  0.00    +0.019 A 
ATOM     38  C   UNL     1     -20.696  37.357  31.162  0.00  0.00    +0.120 A 
ATOM     39  N   UNL     1     -21.924  36.734  31.365  0.00  0.00    -0.263 NA
ATOM     40  C   UNL     1     -22.577  36.009  30.356  0.00  0.00    +0.111 A 
ENDBRANCH   4   3
ENDBRANCH  10   9
BRANCH  12  13
ATOM     13  N   UNL     1     -11.483  39.437  31.597  0.00  0.00    -0.281 N 
ATOM     14  C   UNL     1     -10.947  38.474  32.436  0.00  0.00    +0.248 C 
ATOM     30  O   UNL     1     -11.342  38.248  33.570  0.00  0.00    -0.270 OA
ATOM     31  H   UNL     1     -10.941  39.656  30.761  0.00  0.00    +0.155 HD
BRANCH  14  15
ATOM     15  C   UNL     1      -9.797  37.653  31.950  0.00  0.00    +0.037 A 
ATOM     16  C   UNL     1     -10.004  36.500  31.070  0.00  0.00    +0.013 A 
ATOM     17  C   UNL     1      -8.878  35.715  30.630  0.00  0.00    +0.005 A 
ATOM     18  C   UNL     1      -7.534  36.081  31.069  0.00  0.00    -0.033 A 
ATOM     28  C   UNL     1      -7.356  37.232  31.938  0.00  0.00    +0.005 A 
ATOM     29  C   UNL     1      -8.457  38.004  32.372  0.00  0.00    +0.013 A 
BRANCH  18  19
ATOM     19  C   UNL     1      -6.277  35.287  30.666  0.00  0.00    +0.119 C 
BRANCH  19  20
ATOM     20  N   UNL     1      -6.486  33.953  30.028  0.00  0.00    -0.302 NA
ATOM     21  C   UNL     1      -6.742  32.855  31.064  0.00  0.00    +0.066 C 
ATOM     22  C   UNL     1      -6.981  31.470  30.378  0.00  0.00    -0.064 C 
ATOM     23  N   UNL     1      -5.774  31.121  29.506  0.00  0.00    +0.379 N 
ATOM     24  C   UNL     1      -5.970  29.794  28.905  0.00  0.00    -0.096 C 
ATOM     25  H   UNL     1      -4.882  31.063  30.171  0.00  0.00    -0.082 HD
ATOM     26  C   UNL     1      -5.510  32.210  28.475  0.00  0.00    -0.064 C 
ATOM     27  C   UNL     1      -5.304  33.587  29.165  0.00  0.00    +0.066 C 
ENDBRANCH  19  20
ENDBRANCH  18  19
ENDBRANCH  14  15
ENDBRANCH  12  13
TORSDOF 6
ENDMDL
MODEL 3
REMARK VINA RESULT:      -8.4      2.718     13.742
REMARK  Name = C:\Users\Docking\Desktop\test protocol\1iep_ligandH.pdb
REMARK  8 active torsions:
REMARK  status: ('A' for Active; 'I' for Inactive)
REMARK    1  A    between atoms: _5  and  _11
REMARK    2  A    between atoms: _19  and  _21
REMARK    3  A    between atoms: _22  and  _66
REMARK    4  A    between atoms: _27  and  _30
REMARK    5  A    between atoms: _32  and  _33
REMARK    6  A    between atoms: _38  and  _43
REMARK    7  A    between atoms: _43  and  _46
REMARK    8  A    between atoms: _53  and  _55
REMARK                            x       y       z     vdW  Elec       q    Type
REMARK                         _______ _______ _______ _____ _____    ______ ____
ROOT
ATOM     10  C   UNL     1     -13.663  39.185  30.796  0.00  0.00    +0.038 A 
ATOM     11  C   UNL     1     -14.815  38.473  30.375  0.00  0.00    +0.047 A 
ATOM     12  C   UNL     1     -16.152  38.969  30.660  0.00  0.00    +0.035 A 
ATOM     32  C   UNL     1     -16.279  40.196  31.375  0.00  0.00    +0.024 A 
ATOM     33  C   UNL     1     -15.119  40.932  31.811  0.00  0.00    +0.007 A 
ATOM     34  C   UNL     1     -13.797  40.446  31.535  0.00  0.00    -0.029 A 
ATOM     35  C   UNL     1     -12.590  41.274  32.033  0.00  0.00    +0.045 C 
ENDROOT
BRANCH  10   9
ATOM      4  C   UNL     1      -9.691  36.764  31.979  0.00  0.00    +0.077 A 
ATOM      5  C   UNL     1     -10.154  36.543  33.319  0.00  0.00    +0.048 A 
ATOM      6  C   UNL     1     -11.416  37.075  33.666  0.00  0.00    +0.116 A 
ATOM      7  N   UNL     1     -12.152  37.774  32.734  0.00  0.00    -0.223 NA
ATOM      8  C   UNL     1     -11.676  37.970  31.451  0.00  0.00    +0.220 A 
ATOM      9  N   UNL     1     -12.403  38.663  30.495  0.00  0.00    -0.283 N 
ATOM     36  H   UNL     1     -12.013  38.793  29.561  0.00  0.00    +0.155 HD
ATOM     37  N   UNL     1     -10.473  37.473  31.095  0.00  0.00    -0.214 NA
BRANCH   4   3
ATOM      1  C   UNL     1      -6.981  34.713  30.042  0.00  0.00    +0.020 A 
ATOM      2  C   UNL     1      -8.273  35.160  30.512  0.00  0.00    +0.013 A 
ATOM      3  C   UNL     1      -8.380  36.261  31.461  0.00  0.00    +0.019 A 
ATOM     38  C   UNL     1      -7.152  36.893  31.918  0.00  0.00    +0.120 A 
ATOM     39  N   UNL     1      -5.922  36.440  31.450  0.00  0.00    -0.263 NA
ATOM     40  C   UNL     1      -5.807  35.381  30.537  0.00  0.00    +0.111 A 
ENDBRANCH   4   3
ENDBRANCH  10   9
BRANCH  12  13
ATOM     13  N   UNL     1     -17.358  38.285  30.265  0.00  0.00    -0.281 N 
ATOM     14  C   UNL     1     -18.231  37.566  31.066  0.00  0.00    +0.248 C 
ATOM     30  O   UNL     1     -17.991  37.221  32.213  0.00  0.00    -0.270 OA
ATOM     31  H   UNL     1     -17.598  38.338  29.275  0.00  0.00    +0.155 HD
BRANCH  14  15
ATOM     15  C   UNL     1     -19.556  37.160  30.506  0.00  0.00    +0.037 A 
ATOM     16  C   UNL     1     -19.805  37.165  29.062  0.00  0.00    +0.013 A 
ATOM     17  C   UNL     1     -21.097  36.784  28.549  0.00  0.00    +0.005 A 
ATOM     18  C   UNL     1     -22.151  36.394  29.483  0.00  0.00    -0.033 A 
ATOM     28  C   UNL     1     -21.875  36.393  30.910  0.00  0.00    +0.005 A 
ATOM     29  C   UNL     1     -20.610  36.766  31.416  0.00  0.00    +0.013 A 
BRANCH  18  19
ATOM     19  C   UNL     1     -23.566  35.994  29.026  0.00  0.00    +0.119 C 
BRANCH  19  20
ATOM     20  N   UNL     1     -24.388  37.041  28.349  0.00  0.00    -0.302 NA
ATOM     21  C   UNL     1     -24.823  38.145  29.317  0.00  0.00    +0.066 C 
ATOM     22  C   UNL     1     -25.663  39.243  28.587  0.00  0.00    -0.064 C 
ATOM     23  N   UNL     1     -26.879  38.595  27.923  0.00  0.00    +0.379 N 
ATOM     24  C   UNL     1     -27.701  39.633  27.286  0.00  0.00    -0.096 C 
ATOM     25  H   UNL     1     -27.491  38.124  28.727  0.00  0.00    -0.082 HD
ATOM     26  C   UNL     1     -26.456  37.494  26.961  0.00  0.00    -0.064 C 
ATOM     27  C   UNL     1     -25.597  36.423  27.690  0.00  0.00    +0.066 C 
ENDBRANCH  19  20
ENDBRANCH  18  19
ENDBRANCH  14  15
ENDBRANCH  12  13
TORSDOF 6
ENDMDL
MODEL 4
REMARK VINA RESULT:      -8.0      3.193      6.320
REMARK  Name = C:\Users\Docking\Desktop\test protocol\1iep_ligandH.pdb
REMARK  8 active torsions:
REMARK  status: ('A' for Active; 'I' for Inactive)
REMARK    1  A    between atoms: _5  and  _11
REMARK    2  A    between atoms: _19  and  _21
REMARK    3  A    between atoms: _22  and  _66
REMARK    4  A    between atoms: _27  and  _30
REMARK    5  A    between atoms: _32  and  _33
REMARK    6  A    between atoms: _38  and  _43
REMARK    7  A    between atoms: _43  and  _46
REMARK    8  A    between atoms: _53  and  _55
REMARK                            x       y       z     vdW  Elec       q    Type
REMARK                         _______ _______ _______ _____ _____    ______ ____
ROOT
ATOM     10  C   UNL     1     -21.110  38.813  32.491  0.00  0.00    +0.038 A 
ATOM     11  C   UNL     1     -19.761  38.593  32.111  0.00  0.00    +0.047 A 
ATOM     12  C   UNL     1     -18.694  38.583  33.099  0.00  0.00    +0.035 A 
ATOM     32  C   UNL     1     -19.036  38.799  34.466  0.00  0.00    +0.024 A 
ATOM     33  C   UNL     1     -20.401  39.026  34.869  0.00  0.00    +0.007 A 
ATOM     34  C   UNL     1     -21.458  39.039  33.899  0.00  0.00    -0.029 A 
ATOM     35  C   UNL     1     -22.903  39.293  34.387  0.00  0.00    +0.045 C 
ENDROOT
BRANCH  10   9
ATOM      4  C   UNL     1     -23.747  36.600  29.146  0.00  0.00    +0.077 A 
ATOM      5  C   UNL     1     -23.088  35.346  29.372  0.00  0.00    +0.048 A 
ATOM      6  C   UNL     1     -22.071  35.314  30.352  0.00  0.00    +0.116 A 
ATOM      7  N   UNL     1     -21.746  36.458  31.049  0.00  0.00    -0.223 NA
ATOM      8  C   UNL     1     -22.400  37.651  30.806  0.00  0.00    +0.220 A 
ATOM      9  N   UNL     1     -22.095  38.812  31.500  0.00  0.00    -0.283 N 
ATOM     36  H   UNL     1     -22.596  39.674  31.286  0.00  0.00    +0.155 HD
ATOM     37  N   UNL     1     -23.374  37.708  29.874  0.00  0.00    -0.214 NA
BRANCH   4   3
ATOM      1  C   UNL     1     -26.231  36.043  26.176  0.00  0.00    +0.020 A 
ATOM      2  C   UNL     1     -25.160  35.809  27.118  0.00  0.00    +0.013 A 
ATOM      3  C   UNL     1     -24.844  36.792  28.146  0.00  0.00    +0.019 A 
ATOM     38  C   UNL     1     -25.638  38.011  28.196  0.00  0.00    +0.120 A 
ATOM     39  N   UNL     1     -26.661  38.210  27.275  0.00  0.00    -0.263 NA
ATOM     40  C   UNL     1     -26.973  37.271  26.279  0.00  0.00    +0.111 A 
ENDBRANCH   4   3
ENDBRANCH  10   9
BRANCH  12  13
ATOM     13  N   UNL     1     -17.305  38.372  32.772  0.00  0.00    -0.281 N 
ATOM     14  C   UNL     1     -16.534  39.058  31.847  0.00  0.00    +0.248 C 
ATOM     30  O   UNL     1     -16.982  39.820  31.004  0.00  0.00    -0.270 OA
ATOM     31  H   UNL     1     -16.833  37.627  33.284  0.00  0.00    +0.155 HD
BRANCH  14  15
ATOM     15  C   UNL     1     -15.053  38.857  31.851  0.00  0.00    +0.037 A 
ATOM     16  C   UNL     1     -14.345  38.450  33.067  0.00  0.00    +0.013 A 
ATOM     17  C   UNL     1     -12.913  38.279  33.047  0.00  0.00    +0.005 A 
ATOM     18  C   UNL     1     -12.181  38.515  31.805  0.00  0.00    -0.033 A 
ATOM     28  C   UNL     1     -12.910  38.913  30.612  0.00  0.00    +0.005 A 
ATOM     29  C   UNL     1     -14.313  39.082  30.628  0.00  0.00    +0.013 A 
BRANCH  18  19
ATOM     19  C   UNL     1     -10.651  38.378  31.697  0.00  0.00    +0.119 C 
BRANCH  19  20
ATOM     20  N   UNL     1     -10.088  36.995  31.681  0.00  0.00    -0.302 NA
ATOM     21  C   UNL     1      -8.557  36.998  31.691  0.00  0.00    +0.066 C 
ATOM     22  C   UNL     1      -7.985  35.542  31.696  0.00  0.00    -0.064 C 
ATOM     23  N   UNL     1      -8.517  34.784  30.479  0.00  0.00    +0.379 N 
ATOM     24  C   UNL     1      -7.935  33.434  30.450  0.00  0.00    -0.096 C 
ATOM     25  H   UNL     1      -8.169  35.322  29.567  0.00  0.00    -0.082 HD
ATOM     26  C   UNL     1     -10.039  34.778  30.460  0.00  0.00    -0.064 C 
ATOM     27  C   UNL     1     -10.597  36.229  30.485  0.00  0.00    +0.066 C 
ENDBRANCH  19  20
ENDBRANCH  18  19
ENDBRANCH  14  15
ENDBRANCH  12  13
TORSDOF 6
ENDMDL
MODEL 5
REMARK VINA RESULT:      -7.9     22.569     25.346
REMARK  Name = C:\Users\Docking\Desktop\test protocol\1iep_ligandH.pdb
REMARK  8 active torsions:
REMARK  status: ('A' for Active; 'I' for Inactive)
REMARK    1  A    between atoms: _5  and  _11
REMARK    2  A    between atoms: _19  and  _21
REMARK    3  A    between atoms: _22  and  _66
REMARK    4  A    between atoms: _27  and  _30
REMARK    5  A    between atoms: _32  and  _33
REMARK    6  A    between atoms: _38  and  _43
REMARK    7  A    between atoms: _43  and  _46
REMARK    8  A    between atoms: _53  and  _55
REMARK                            x       y       z     vdW  Elec       q    Type
REMARK                         _______ _______ _______ _____ _____    ______ ____
ROOT
ATOM     10  C   UNL     1     -21.756  26.396  12.226  0.00  0.00    +0.038 A 
ATOM     11  C   UNL     1     -22.155  27.751  12.354  0.00  0.00    +0.047 A 
ATOM     12  C   UNL     1     -22.350  28.592  11.184  0.00  0.00    +0.035 A 
ATOM     32  C   UNL     1     -22.131  28.019   9.897  0.00  0.00    +0.024 A 
ATOM     33  C   UNL     1     -21.724  26.644   9.748  0.00  0.00    +0.007 A 
ATOM     34  C   UNL     1     -21.528  25.810  10.900  0.00  0.00    -0.029 A 
ATOM     35  C   UNL     1     -21.085  24.345  10.681  0.00  0.00    +0.045 C 
ENDROOT
BRANCH  10   9
ATOM      4  C   UNL     1     -23.306  23.215  15.470  0.00  0.00    +0.077 A 
ATOM      5  C   UNL     1     -24.576  23.080  14.817  0.00  0.00    +0.048 A 
ATOM      6  C   UNL     1     -24.794  23.852  13.654  0.00  0.00    +0.116 A 
ATOM      7  N   UNL     1     -23.807  24.693  13.187  0.00  0.00    -0.223 NA
ATOM      8  C   UNL     1     -22.593  24.801  13.841  0.00  0.00    +0.220 A 
ATOM      9  N   UNL     1     -21.584  25.634  13.384  0.00  0.00    -0.283 N 
ATOM     36  H   UNL     1     -20.706  25.691  13.900  0.00  0.00    +0.155 HD
ATOM     37  N   UNL     1     -22.362  24.076  14.955  0.00  0.00    -0.214 NA
BRANCH   4   3
ATOM      1  C   UNL     1     -23.315  21.739  19.092  0.00  0.00    +0.020 A 
ATOM      2  C   UNL     1     -23.727  22.483  17.924  0.00  0.00    +0.013 A 
ATOM      3  C   UNL     1     -22.925  22.464  16.708  0.00  0.00    +0.019 A 
ATOM     38  C   UNL     1     -21.701  21.676  16.705  0.00  0.00    +0.120 A 
ATOM     39  N   UNL     1     -21.329  20.972  17.846  0.00  0.00    -0.263 NA
ATOM     40  C   UNL     1     -22.092  20.983  19.023  0.00  0.00    +0.111 A 
ENDBRANCH   4   3
ENDBRANCH  10   9
BRANCH  12  13
ATOM     13  N   UNL     1     -22.746  29.976  11.252  0.00  0.00    -0.281 N 
ATOM     14  C   UNL     1     -24.026  30.500  11.170  0.00  0.00    +0.248 C 
ATOM     30  O   UNL     1     -25.009  29.870  10.810  0.00  0.00    -0.270 OA
ATOM     31  H   UNL     1     -21.992  30.652  11.375  0.00  0.00    +0.155 HD
BRANCH  14  15
ATOM     15  C   UNL     1     -24.242  31.936  11.526  0.00  0.00    +0.037 A 
ATOM     16  C   UNL     1     -23.510  32.564  12.629  0.00  0.00    +0.013 A 
ATOM     17  C   UNL     1     -23.750  33.946  12.962  0.00  0.00    +0.005 A 
ATOM     18  C   UNL     1     -24.727  34.709  12.190  0.00  0.00    -0.033 A 
ATOM     28  C   UNL     1     -25.436  34.063  11.099  0.00  0.00    +0.005 A 
ATOM     29  C   UNL     1     -25.204  32.708  10.770  0.00  0.00    +0.013 A 
BRANCH  18  19
ATOM     19  C   UNL     1     -25.063  36.182  12.489  0.00  0.00    +0.119 C 
BRANCH  19  20
ATOM     20  N   UNL     1     -25.655  36.988  11.380  0.00  0.00    -0.302 NA
ATOM     21  C   UNL     1     -24.603  37.838  10.663  0.00  0.00    +0.066 C 
ATOM     22  C   UNL     1     -25.235  38.657   9.491  0.00  0.00    -0.064 C 
ATOM     23  N   UNL     1     -26.362  39.536  10.036  0.00  0.00    +0.379 N 
ATOM     24  C   UNL     1     -26.921  40.350   8.947  0.00  0.00    -0.096 C 
ATOM     25  H   UNL     1     -25.916  40.232  10.784  0.00  0.00    -0.082 HD
ATOM     26  C   UNL     1     -27.412  38.698  10.753  0.00  0.00    -0.064 C 
ATOM     27  C   UNL     1     -26.767  37.866  11.897  0.00  0.00    +0.066 C 
ENDBRANCH  19  20
ENDBRANCH  18  19
ENDBRANCH  14  15
ENDBRANCH  12  13
TORSDOF 6
ENDMDL
