MODEL 1
REMARK VINA RESULT:      -7.9      0.000      0.000
REMARK  Name = C:\Users\Docking\Desktop\test protocol\1iep_ligandH.pdb
REMARK  8 active torsions:
REMARK  status: ('A' for Active; 'I' for Inactive)
REMARK    1  A    between atoms: _5  and  _11
REMARK    2  A    between atoms: _19  and  _21
REMARK    3  A    between atoms: _22  and  _66
REMARK    4  A    between atoms: _27  and  _30
REMARK    5  A    between atoms: _32  and  _33
REMARK    6  A    between atoms: _38  and  _43
REMARK    7  A    between atoms: _43  and  _46
REMARK    8  A    between atoms: _53  and  _55
REMARK                            x       y       z     vdW  Elec       q    Type
REMARK                         _______ _______ _______ _____ _____    ______ ____
ROOT
ATOM     10  C   UNL     1      26.068  22.044  18.205  0.00  0.00    +0.038 A 
ATOM     11  C   UNL     1      26.594  22.494  19.444  0.00  0.00    +0.047 A 
ATOM     12  C   UNL     1      27.791  23.318  19.498  0.00  0.00    +0.035 A 
ATOM     32  C   UNL     1      28.426  23.669  18.271  0.00  0.00    +0.024 A 
ATOM     33  C   UNL     1      27.906  23.220  17.004  0.00  0.00    +0.007 A 
ATOM     34  C   UNL     1      26.727  22.404  16.944  0.00  0.00    -0.029 A 
ATOM     35  C   UNL     1      26.218  21.946  15.557  0.00  0.00    +0.045 C 
ENDROOT
BRANCH  10   9
ATOM      4  C   UNL     1      21.318  21.486  17.806  0.00  0.00    +0.077 A 
ATOM      5  C   UNL     1      21.111  22.889  17.593  0.00  0.00    +0.048 A 
ATOM      6  C   UNL     1      22.253  23.722  17.601  0.00  0.00    +0.116 A 
ATOM      7  N   UNL     1      23.503  23.180  17.807  0.00  0.00    -0.223 NA
ATOM      8  C   UNL     1      23.667  21.822  18.010  0.00  0.00    +0.220 A 
ATOM      9  N   UNL     1      24.916  21.255  18.211  0.00  0.00    -0.283 N 
ATOM     36  H   UNL     1      24.994  20.250  18.365  0.00  0.00    +0.155 HD
ATOM     37  N   UNL     1      22.593  21.006  18.009  0.00  0.00    -0.214 NA
BRANCH   4   3
ATOM      1  C   UNL     1      19.223  18.232  17.232  0.00  0.00    +0.020 A 
ATOM      2  C   UNL     1      20.321  19.170  17.187  0.00  0.00    +0.013 A 
ATOM      3  C   UNL     1      20.211  20.477  17.822  0.00  0.00    +0.019 A 
ATOM     38  C   UNL     1      18.967  20.807  18.500  0.00  0.00    +0.120 A 
ATOM     39  N   UNL     1      17.926  19.884  18.526  0.00  0.00    -0.263 NA
ATOM     40  C   UNL     1      18.020  18.624  17.917  0.00  0.00    +0.111 A 
ENDBRANCH   4   3
ENDBRANCH  10   9
BRANCH  12  13
ATOM     13  N   UNL     1      28.375  23.797  20.726  0.00  0.00    -0.281 N 
ATOM     14  C   UNL     1      29.351  23.190  21.499  0.00  0.00    +0.248 C 
ATOM     30  O   UNL     1      29.721  22.033  21.362  0.00  0.00    -0.270 OA
ATOM     31  H   UNL     1      28.026  24.693  21.068  0.00  0.00    +0.155 HD
BRANCH  14  15
ATOM     15  C   UNL     1      30.002  23.977  22.590  0.00  0.00    +0.037 A 
ATOM     16  C   UNL     1      29.233  24.915  23.413  0.00  0.00    +0.013 A 
ATOM     17  C   UNL     1      29.889  25.674  24.448  0.00  0.00    +0.005 A 
ATOM     18  C   UNL     1      31.323  25.498  24.666  0.00  0.00    -0.033 A 
ATOM     28  C   UNL     1      32.060  24.557  23.839  0.00  0.00    +0.005 A 
ATOM     29  C   UNL     1      31.421  23.812  22.823  0.00  0.00    +0.013 A 
BRANCH  18  19
ATOM     19  C   UNL     1      32.109  26.282  25.734  0.00  0.00    +0.119 C 
BRANCH  19  20
ATOM     20  N   UNL     1      31.316  27.033  26.752  0.00  0.00    -0.302 NA
ATOM     21  C   UNL     1      31.354  28.545  26.510  0.00  0.00    +0.066 C 
ATOM     22  C   UNL     1      30.501  29.313  27.571  0.00  0.00    -0.064 C 
ATOM     23  N   UNL     1      31.012  28.976  28.973  0.00  0.00    +0.379 N 
ATOM     24  C   UNL     1      30.250  29.742  29.970  0.00  0.00    -0.096 C 
ATOM     25  H   UNL     1      32.075  29.306  29.033  0.00  0.00    -0.082 HD
ATOM     26  C   UNL     1      30.980  27.475  29.221  0.00  0.00    -0.064 C 
ATOM     27  C   UNL     1      31.806  26.719  28.144  0.00  0.00    +0.066 C 
ENDBRANCH  19  20
ENDBRANCH  18  19
ENDBRANCH  14  15
ENDBRANCH  12  13
TORSDOF 6
ENDMDL
MODEL 2
REMARK VINA RESULT:      -7.5      1.599      2.300
REMARK  Name = C:\Users\Docking\Desktop\test protocol\1iep_ligandH.pdb
REMARK  8 active torsions:
REMARK  status: ('A' for Active; 'I' for Inactive)
REMARK    1  A    between atoms: _5  and  _11
REMARK    2  A    between atoms: _19  and  _21
REMARK    3  A    between atoms: _22  and  _66
REMARK    4  A    between atoms: _27  and  _30
REMARK    5  A    between atoms: _32  and  _33
REMARK    6  A    between atoms: _38  and  _43
REMARK    7  A    between atoms: _43  and  _46
REMARK    8  A    between atoms: _53  and  _55
REMARK                            x       y       z     vdW  Elec       q    Type
REMARK                         _______ _______ _______ _____ _____    ______ ____
ROOT
ATOM     10  C   UNL     1      26.014  22.005  18.271  0.00  0.00    +0.038 A 
ATOM     11  C   UNL     1      26.512  22.451  19.522  0.00  0.00    +0.047 A 
ATOM     12  C   UNL     1      27.705  23.279  19.605  0.00  0.00    +0.035 A 
ATOM     32  C   UNL     1      28.364  23.637  18.393  0.00  0.00    +0.024 A 
ATOM     33  C   UNL     1      27.872  23.192  17.113  0.00  0.00    +0.007 A 
ATOM     34  C   UNL     1      26.697  22.372  17.025  0.00  0.00    -0.029 A 
ATOM     35  C   UNL     1      26.218  21.918  15.627  0.00  0.00    +0.045 C 
ENDROOT
BRANCH  10   9
ATOM      4  C   UNL     1      21.267  21.441  17.833  0.00  0.00    +0.077 A 
ATOM      5  C   UNL     1      21.057  22.849  17.657  0.00  0.00    +0.048 A 
ATOM      6  C   UNL     1      22.196  23.685  17.693  0.00  0.00    +0.116 A 
ATOM      7  N   UNL     1      23.447  23.142  17.890  0.00  0.00    -0.223 NA
ATOM      8  C   UNL     1      23.615  21.780  18.058  0.00  0.00    +0.220 A 
ATOM      9  N   UNL     1      24.864  21.212  18.250  0.00  0.00    -0.283 N 
ATOM     36  H   UNL     1      24.945  20.203  18.378  0.00  0.00    +0.155 HD
ATOM     37  N   UNL     1      22.543  20.961  18.029  0.00  0.00    -0.214 NA
BRANCH   4   3
ATOM      1  C   UNL     1      19.205  18.177  17.206  0.00  0.00    +0.020 A 
ATOM      2  C   UNL     1      20.301  19.118  17.194  0.00  0.00    +0.013 A 
ATOM      3  C   UNL     1      20.164  20.429  17.816  0.00  0.00    +0.019 A 
ATOM     38  C   UNL     1      18.896  20.759  18.448  0.00  0.00    +0.120 A 
ATOM     39  N   UNL     1      17.857  19.833  18.443  0.00  0.00    -0.263 NA
ATOM     40  C   UNL     1      17.977  18.569  17.846  0.00  0.00    +0.111 A 
ENDBRANCH   4   3
ENDBRANCH  10   9
BRANCH  12  13
ATOM     13  N   UNL     1      28.262  23.755  20.846  0.00  0.00    -0.281 N 
ATOM     14  C   UNL     1      29.354  23.255  21.537  0.00  0.00    +0.248 C 
ATOM     30  O   UNL     1      29.890  22.183  21.299  0.00  0.00    -0.270 OA
ATOM     31  H   UNL     1      27.795  24.558  21.268  0.00  0.00    +0.155 HD
BRANCH  14  15
ATOM     15  C   UNL     1      29.923  24.055  22.664  0.00  0.00    +0.037 A 
ATOM     16  C   UNL     1      29.212  25.214  23.209  0.00  0.00    +0.013 A 
ATOM     17  C   UNL     1      29.791  25.978  24.285  0.00  0.00    +0.005 A 
ATOM     18  C   UNL     1      31.090  25.583  24.825  0.00  0.00    -0.033 A 
ATOM     28  C   UNL     1      31.772  24.426  24.269  0.00  0.00    +0.005 A 
ATOM     29  C   UNL     1      31.207  23.675  23.214  0.00  0.00    +0.013 A 
BRANCH  18  19
ATOM     19  C   UNL     1      31.793  26.353  25.959  0.00  0.00    +0.119 C 
BRANCH  19  20
ATOM     20  N   UNL     1      33.247  26.649  25.785  0.00  0.00    -0.302 NA
ATOM     21  C   UNL     1      33.871  27.229  27.058  0.00  0.00    +0.066 C 
ATOM     22  C   UNL     1      35.397  27.512  26.866  0.00  0.00    -0.064 C 
ATOM     23  N   UNL     1      35.591  28.464  25.685  0.00  0.00    +0.379 N 
ATOM     24  C   UNL     1      37.020  28.778  25.538  0.00  0.00    -0.096 C 
ATOM     25  H   UNL     1      35.059  29.414  25.926  0.00  0.00    -0.082 HD
ATOM     26  C   UNL     1      34.971  27.897  24.416  0.00  0.00    -0.064 C 
ATOM     27  C   UNL     1      33.461  27.592  24.627  0.00  0.00    +0.066 C 
ENDBRANCH  19  20
ENDBRANCH  18  19
ENDBRANCH  14  15
ENDBRANCH  12  13
TORSDOF 6
ENDMDL
MODEL 3
REMARK VINA RESULT:      -7.3      4.650     12.231
REMARK  Name = C:\Users\Docking\Desktop\test protocol\1iep_ligandH.pdb
REMARK  8 active torsions:
REMARK  status: ('A' for Active; 'I' for Inactive)
REMARK    1  A    between atoms: _5  and  _11
REMARK    2  A    between atoms: _19  and  _21
REMARK    3  A    between atoms: _22  and  _66
REMARK    4  A    between atoms: _27  and  _30
REMARK    5  A    between atoms: _32  and  _33
REMARK    6  A    between atoms: _38  and  _43
REMARK    7  A    between atoms: _43  and  _46
REMARK    8  A    between atoms: _53  and  _55
REMARK                            x       y       z     vdW  Elec       q    Type
REMARK                         _______ _______ _______ _____ _____    ______ ____
ROOT
ATOM     10  C   UNL     1      29.831  21.639  20.183  0.00  0.00    +0.038 A 
ATOM     11  C   UNL     1      28.497  21.574  19.705  0.00  0.00    +0.047 A 
ATOM     12  C   UNL     1      27.474  22.481  20.203  0.00  0.00    +0.035 A 
ATOM     32  C   UNL     1      27.845  23.443  21.186  0.00  0.00    +0.024 A 
ATOM     33  C   UNL     1      29.196  23.523  21.684  0.00  0.00    +0.007 A 
ATOM     34  C   UNL     1      30.209  22.630  21.198  0.00  0.00    -0.029 A 
ATOM     35  C   UNL     1      31.639  22.756  21.773  0.00  0.00    +0.045 C 
ENDROOT
BRANCH  10   9
ATOM      4  C   UNL     1      33.115  20.356  16.927  0.00  0.00    +0.077 A 
ATOM      5  C   UNL     1      32.919  21.558  16.169  0.00  0.00    +0.048 A 
ATOM      6  C   UNL     1      31.958  22.478  16.647  0.00  0.00    +0.116 A 
ATOM      7  N   UNL     1      31.253  22.205  17.799  0.00  0.00    -0.223 NA
ATOM      8  C   UNL     1      31.465  21.036  18.505  0.00  0.00    +0.220 A 
ATOM      9  N   UNL     1      30.772  20.745  19.670  0.00  0.00    -0.283 N 
ATOM     36  H   UNL     1      30.953  19.868  20.158  0.00  0.00    +0.155 HD
ATOM     37  N   UNL     1      32.376  20.141  18.068  0.00  0.00    -0.214 NA
BRANCH   4   3
ATOM      1  C   UNL     1      36.266  18.040  16.859  0.00  0.00    +0.020 A 
ATOM      2  C   UNL     1      35.353  19.085  17.261  0.00  0.00    +0.013 A 
ATOM      3  C   UNL     1      34.097  19.290  16.552  0.00  0.00    +0.019 A 
ATOM     38  C   UNL     1      33.791  18.412  15.432  0.00  0.00    +0.120 A 
ATOM     39  N   UNL     1      34.690  17.415  15.067  0.00  0.00    -0.263 NA
ATOM     40  C   UNL     1      35.903  17.210  15.740  0.00  0.00    +0.111 A 
ENDBRANCH   4   3
ENDBRANCH  10   9
BRANCH  12  13
ATOM     13  N   UNL     1      26.102  22.456  19.761  0.00  0.00    -0.281 N 
ATOM     14  C   UNL     1      25.602  22.802  18.516  0.00  0.00    +0.248 C 
ATOM     30  O   UNL     1      26.238  23.391  17.655  0.00  0.00    -0.270 OA
ATOM     31  H   UNL     1      25.415  22.146  20.449  0.00  0.00    +0.155 HD
BRANCH  14  15
ATOM     15  C   UNL     1      24.186  22.455  18.185  0.00  0.00    +0.037 A 
ATOM     16  C   UNL     1      23.288  23.435  17.568  0.00  0.00    +0.013 A 
ATOM     17  C   UNL     1      21.922  23.080  17.274  0.00  0.00    +0.005 A 
ATOM     18  C   UNL     1      21.446  21.737  17.597  0.00  0.00    -0.033 A 
ATOM     28  C   UNL     1      22.360  20.783  18.204  0.00  0.00    +0.005 A 
ATOM     29  C   UNL     1      23.699  21.128  18.494  0.00  0.00    +0.013 A 
BRANCH  18  19
ATOM     19  C   UNL     1      19.999  21.278  17.338  0.00  0.00    +0.119 C 
BRANCH  19  20
ATOM     20  N   UNL     1      18.981  21.605  18.381  0.00  0.00    -0.302 NA
ATOM     21  C   UNL     1      18.228  20.361  18.859  0.00  0.00    +0.066 C 
ATOM     22  C   UNL     1      17.183  20.718  19.966  0.00  0.00    -0.064 C 
ATOM     23  N   UNL     1      16.209  21.766  19.425  0.00  0.00    +0.379 N 
ATOM     24  C   UNL     1      15.191  22.061  20.443  0.00  0.00    -0.096 C 
ATOM     25  H   UNL     1      15.689  21.321  18.545  0.00  0.00    -0.082 HD
ATOM     26  C   UNL     1      16.950  23.006  18.945  0.00  0.00    -0.064 C 
ATOM     27  C   UNL     1      18.006  22.636  17.866  0.00  0.00    +0.066 C 
ENDBRANCH  19  20
ENDBRANCH  18  19
ENDBRANCH  14  15
ENDBRANCH  12  13
TORSDOF 6
ENDMDL
MODEL 4
REMARK VINA RESULT:      -7.2     24.005     27.257
REMARK  Name = C:\Users\Docking\Desktop\test protocol\1iep_ligandH.pdb
REMARK  8 active torsions:
REMARK  status: ('A' for Active; 'I' for Inactive)
REMARK    1  A    between atoms: _5  and  _11
REMARK    2  A    between atoms: _19  and  _21
REMARK    3  A    between atoms: _22  and  _66
REMARK    4  A    between atoms: _27  and  _30
REMARK    5  A    between atoms: _32  and  _33
REMARK    6  A    between atoms: _38  and  _43
REMARK    7  A    between atoms: _43  and  _46
REMARK    8  A    between atoms: _53  and  _55
REMARK                            x       y       z     vdW  Elec       q    Type
REMARK                         _______ _______ _______ _____ _____    ______ ____
ROOT
ATOM     10  C   UNL     1      41.535   5.678  21.062  0.00  0.00    +0.038 A 
ATOM     11  C   UNL     1      40.659   4.577  20.882  0.00  0.00    +0.047 A 
ATOM     12  C   UNL     1      40.855   3.334  21.610  0.00  0.00    +0.035 A 
ATOM     32  C   UNL     1      41.951   3.247  22.517  0.00  0.00    +0.024 A 
ATOM     33  C   UNL     1      42.852   4.356  22.711  0.00  0.00    +0.007 A 
ATOM     34  C   UNL     1      42.666   5.584  21.993  0.00  0.00    -0.029 A 
ATOM     35  C   UNL     1      43.666   6.738  22.236  0.00  0.00    +0.045 C 
ENDROOT
BRANCH  10   9
ATOM      4  C   UNL     1      41.910   8.340  17.085  0.00  0.00    +0.077 A 
ATOM      5  C   UNL     1      42.659   7.324  16.404  0.00  0.00    +0.048 A 
ATOM      6  C   UNL     1      42.933   6.134  17.115  0.00  0.00    +0.116 A 
ATOM      7  N   UNL     1      42.486   5.982  18.410  0.00  0.00    -0.223 NA
ATOM      8  C   UNL     1      41.767   6.983  19.038  0.00  0.00    +0.220 A 
ATOM      9  N   UNL     1      41.301   6.849  20.336  0.00  0.00    -0.283 N 
ATOM     36  H   UNL     1      40.781   7.613  20.767  0.00  0.00    +0.155 HD
ATOM     37  N   UNL     1      41.494   8.129  18.381  0.00  0.00    -0.214 NA
BRANCH   4   3
ATOM      1  C   UNL     1      41.536  12.174  16.403  0.00  0.00    +0.020 A 
ATOM      2  C   UNL     1      41.921  10.936  17.040  0.00  0.00    +0.013 A 
ATOM      3  C   UNL     1      41.538   9.652  16.466  0.00  0.00    +0.019 A 
ATOM     38  C   UNL     1      40.761   9.656  15.236  0.00  0.00    +0.120 A 
ATOM     39  N   UNL     1      40.404  10.864  14.645  0.00  0.00    -0.263 NA
ATOM     40  C   UNL     1      40.765  12.105  15.189  0.00  0.00    +0.111 A 
ENDBRANCH   4   3
ENDBRANCH  10   9
BRANCH  12  13
ATOM     13  N   UNL     1      40.003   2.180  21.463  0.00  0.00    -0.281 N 
ATOM     14  C   UNL     1      39.970   1.274  20.415  0.00  0.00    +0.248 C 
ATOM     30  O   UNL     1      40.525   1.441  19.339  0.00  0.00    -0.270 OA
ATOM     31  H   UNL     1      39.344   2.010  22.223  0.00  0.00    +0.155 HD
BRANCH  14  15
ATOM     15  C   UNL     1      39.198   0.005  20.581  0.00  0.00    +0.037 A 
ATOM     16  C   UNL     1      39.521  -0.948  21.647  0.00  0.00    +0.013 A 
ATOM     17  C   UNL     1      38.771  -2.172  21.774  0.00  0.00    +0.005 A 
ATOM     18  C   UNL     1      37.688  -2.449  20.834  0.00  0.00    -0.033 A 
ATOM     28  C   UNL     1      37.385  -1.484  19.790  0.00  0.00    +0.005 A 
ATOM     29  C   UNL     1      38.119  -0.284  19.661  0.00  0.00    +0.013 A 
BRANCH  18  19
ATOM     19  C   UNL     1      36.849  -3.740  20.882  0.00  0.00    +0.119 C 
BRANCH  19  20
ATOM     20  N   UNL     1      36.876  -4.526  22.151  0.00  0.00    -0.302 NA
ATOM     21  C   UNL     1      37.694  -5.813  22.012  0.00  0.00    +0.066 C 
ATOM     22  C   UNL     1      37.732  -6.612  23.355  0.00  0.00    -0.064 C 
ATOM     23  N   UNL     1      36.301  -6.925  23.799  0.00  0.00    +0.379 N 
ATOM     24  C   UNL     1      36.334  -7.727  25.031  0.00  0.00    -0.096 C 
ATOM     25  H   UNL     1      35.829  -7.547  23.003  0.00  0.00    -0.082 HD
ATOM     26  C   UNL     1      35.480  -5.651  23.937  0.00  0.00    -0.064 C 
ATOM     27  C   UNL     1      35.474  -4.850  22.606  0.00  0.00    +0.066 C 
ENDBRANCH  19  20
ENDBRANCH  18  19
ENDBRANCH  14  15
ENDBRANCH  12  13
TORSDOF 6
ENDMDL
MODEL 5
REMARK VINA RESULT:      -7.1      2.377      4.455
REMARK  Name = C:\Users\Docking\Desktop\test protocol\1iep_ligandH.pdb
REMARK  8 active torsions:
REMARK  status: ('A' for Active; 'I' for Inactive)
REMARK    1  A    between atoms: _5  and  _11
REMARK    2  A    between atoms: _19  and  _21
REMARK    3  A    between atoms: _22  and  _66
REMARK    4  A    between atoms: _27  and  _30
REMARK    5  A    between atoms: _32  and  _33
REMARK    6  A    between atoms: _38  and  _43
REMARK    7  A    between atoms: _43  and  _46
REMARK    8  A    between atoms: _53  and  _55
REMARK                            x       y       z     vdW  Elec       q    Type
REMARK                         _______ _______ _______ _____ _____    ______ ____
ROOT
ATOM     10  C   UNL     1      29.398  22.159  20.843  0.00  0.00    +0.038 A 
ATOM     11  C   UNL     1      29.615  22.933  22.012  0.00  0.00    +0.047 A 
ATOM     12  C   UNL     1      30.957  23.305  22.430  0.00  0.00    +0.035 A 
ATOM     32  C   UNL     1      32.057  22.875  21.631  0.00  0.00    +0.024 A 
ATOM     33  C   UNL     1      31.855  22.088  20.441  0.00  0.00    +0.007 A 
ATOM     34  C   UNL     1      30.533  21.715  20.025  0.00  0.00    -0.029 A 
ATOM     35  C   UNL     1      30.376  20.864  18.743  0.00  0.00    +0.045 C 
ENDROOT
BRANCH  10   9
ATOM      4  C   UNL     1      25.323  22.997  18.450  0.00  0.00    +0.077 A 
ATOM      5  C   UNL     1      25.838  24.208  17.878  0.00  0.00    +0.048 A 
ATOM      6  C   UNL     1      27.154  24.583  18.231  0.00  0.00    +0.116 A 
ATOM      7  N   UNL     1      27.890  23.799  19.092  0.00  0.00    -0.223 NA
ATOM      8  C   UNL     1      27.362  22.638  19.627  0.00  0.00    +0.220 A 
ATOM      9  N   UNL     1      28.088  21.830  20.489  0.00  0.00    -0.283 N 
ATOM     36  H   UNL     1      27.660  20.986  20.868  0.00  0.00    +0.155 HD
ATOM     37  N   UNL     1      26.108  22.259  19.307  0.00  0.00    -0.214 NA
BRANCH   4   3
ATOM      1  C   UNL     1      22.273  20.591  17.991  0.00  0.00    +0.020 A 
ATOM      2  C   UNL     1      23.614  21.052  18.271  0.00  0.00    +0.013 A 
ATOM      3  C   UNL     1      23.951  22.466  18.171  0.00  0.00    +0.019 A 
ATOM     38  C   UNL     1      22.901  23.396  17.784  0.00  0.00    +0.120 A 
ATOM     39  N   UNL     1      21.619  22.923  17.519  0.00  0.00    -0.263 NA
ATOM     40  C   UNL     1      21.283  21.564  17.610  0.00  0.00    +0.111 A 
ENDBRANCH   4   3
ENDBRANCH  10   9
BRANCH  12  13
ATOM     13  N   UNL     1      31.239  24.082  23.611  0.00  0.00    -0.281 N 
ATOM     14  C   UNL     1      31.470  25.445  23.700  0.00  0.00    +0.248 C 
ATOM     30  O   UNL     1      31.680  26.174  22.741  0.00  0.00    -0.270 OA
ATOM     31  H   UNL     1      31.273  23.564  24.490  0.00  0.00    +0.155 HD
BRANCH  14  15
ATOM     15  C   UNL     1      31.482  26.090  25.048  0.00  0.00    +0.037 A 
ATOM     16  C   UNL     1      32.341  25.586  26.123  0.00  0.00    +0.013 A 
ATOM     17  C   UNL     1      32.321  26.216  27.420  0.00  0.00    +0.005 A 
ATOM     18  C   UNL     1      31.439  27.358  27.647  0.00  0.00    -0.033 A 
ATOM     28  C   UNL     1      30.602  27.841  26.562  0.00  0.00    +0.005 A 
ATOM     29  C   UNL     1      30.618  27.225  25.290  0.00  0.00    +0.013 A 
BRANCH  18  19
ATOM     19  C   UNL     1      31.337  28.079  29.005  0.00  0.00    +0.119 C 
BRANCH  19  20
ATOM     20  N   UNL     1      32.119  27.508  30.142  0.00  0.00    -0.302 NA
ATOM     21  C   UNL     1      31.351  27.588  31.465  0.00  0.00    +0.066 C 
ATOM     22  C   UNL     1      32.174  26.966  32.639  0.00  0.00    -0.064 C 
ATOM     23  N   UNL     1      33.521  27.683  32.751  0.00  0.00    +0.379 N 
ATOM     24  C   UNL     1      34.273  27.139  33.891  0.00  0.00    -0.096 C 
ATOM     25  H   UNL     1      33.315  28.758  32.962  0.00  0.00    -0.082 HD
ATOM     26  C   UNL     1      34.290  27.610  31.439  0.00  0.00    -0.064 C 
ATOM     27  C   UNL     1      33.451  28.204  30.273  0.00  0.00    +0.066 C 
ENDBRANCH  19  20
ENDBRANCH  18  19
ENDBRANCH  14  15
ENDBRANCH  12  13
TORSDOF 6
ENDMDL
