MODEL 1
REMARK VINA RESULT:      -8.7      0.000      0.000
REMARK  Name = C:\Users\Docking\Desktop\test protocol\1iep_ligandH.pdb
REMARK  8 active torsions:
REMARK  status: ('A' for Active; 'I' for Inactive)
REMARK    1  A    between atoms: _5  and  _11
REMARK    2  A    between atoms: _19  and  _21
REMARK    3  A    between atoms: _22  and  _66
REMARK    4  A    between atoms: _27  and  _30
REMARK    5  A    between atoms: _32  and  _33
REMARK    6  A    between atoms: _38  and  _43
REMARK    7  A    between atoms: _43  and  _46
REMARK    8  A    between atoms: _53  and  _55
REMARK                            x       y       z     vdW  Elec       q    Type
REMARK                         _______ _______ _______ _____ _____    ______ ____
ROOT
ATOM     10  C   UNL     1      20.233  25.312  14.898  0.00  0.00    +0.038 A 
ATOM     11  C   UNL     1      21.625  25.545  15.044  0.00  0.00    +0.047 A 
ATOM     12  C   UNL     1      22.162  26.897  15.070  0.00  0.00    +0.035 A 
ATOM     32  C   UNL     1      21.253  27.988  14.948  0.00  0.00    +0.024 A 
ATOM     33  C   UNL     1      19.836  27.768  14.798  0.00  0.00    +0.007 A 
ATOM     34  C   UNL     1      19.300  26.438  14.769  0.00  0.00    -0.029 A 
ATOM     35  C   UNL     1      17.773  26.262  14.599  0.00  0.00    +0.045 C 
ENDROOT
BRANCH  10   9
ATOM      4  C   UNL     1      18.739  21.384  12.580  0.00  0.00    +0.077 A 
ATOM      5  C   UNL     1      18.862  22.020  11.300  0.00  0.00    +0.048 A 
ATOM      6  C   UNL     1      19.306  23.361  11.282  0.00  0.00    +0.116 A 
ATOM      7  N   UNL     1      19.603  24.008  12.463  0.00  0.00    -0.223 NA
ATOM      8  C   UNL     1      19.472  23.365  13.680  0.00  0.00    +0.220 A 
ATOM      9  N   UNL     1      19.772  23.994  14.879  0.00  0.00    -0.283 N 
ATOM     36  H   UNL     1      19.655  23.488  15.756  0.00  0.00    +0.155 HD
ATOM     37  N   UNL     1      19.048  22.085  13.724  0.00  0.00    -0.214 NA
BRANCH   4   3
ATOM      1  C   UNL     1      18.476  17.488  12.348  0.00  0.00    +0.020 A 
ATOM      2  C   UNL     1      18.955  18.835  12.139  0.00  0.00    +0.013 A 
ATOM      3  C   UNL     1      18.284  19.969  12.763  0.00  0.00    +0.019 A 
ATOM     38  C   UNL     1      17.124  19.703  13.599  0.00  0.00    +0.120 A 
ATOM     39  N   UNL     1      16.685  18.396  13.781  0.00  0.00    -0.263 NA
ATOM     40  C   UNL     1      17.321  17.297  13.185  0.00  0.00    +0.111 A 
ENDBRANCH   4   3
ENDBRANCH  10   9
BRANCH  12  13
ATOM     13  N   UNL     1      23.566  27.195  15.208  0.00  0.00    -0.281 N 
ATOM     14  C   UNL     1      24.317  27.243  16.371  0.00  0.00    +0.248 C 
ATOM     30  O   UNL     1      23.845  27.245  17.498  0.00  0.00    -0.270 OA
ATOM     31  H   UNL     1      24.068  27.396  14.342  0.00  0.00    +0.155 HD
BRANCH  14  15
ATOM     15  C   UNL     1      25.806  27.312  16.267  0.00  0.00    +0.037 A 
ATOM     16  C   UNL     1      26.594  26.150  15.849  0.00  0.00    +0.013 A 
ATOM     17  C   UNL     1      28.031  26.239  15.773  0.00  0.00    +0.005 A 
ATOM     18  C   UNL     1      28.689  27.498  16.116  0.00  0.00    -0.033 A 
ATOM     28  C   UNL     1      27.883  28.637  16.523  0.00  0.00    +0.005 A 
ATOM     29  C   UNL     1      26.475  28.553  16.599  0.00  0.00    +0.013 A 
BRANCH  18  19
ATOM     19  C   UNL     1      30.218  27.677  16.084  0.00  0.00    +0.119 C 
BRANCH  19  20
ATOM     20  N   UNL     1      30.877  27.697  14.744  0.00  0.00    -0.302 NA
ATOM     21  C   UNL     1      30.039  28.445  13.703  0.00  0.00    +0.066 C 
ATOM     22  C   UNL     1      30.753  28.475  12.313  0.00  0.00    -0.064 C 
ATOM     23  N   UNL     1      31.032  27.042  11.855  0.00  0.00    +0.379 N 
ATOM     24  C   UNL     1      31.651  27.066  10.521  0.00  0.00    -0.096 C 
ATOM     25  H   UNL     1      30.052  26.520  11.764  0.00  0.00    -0.082 HD
ATOM     26  C   UNL     1      31.863  26.290  12.885  0.00  0.00    -0.064 C 
ATOM     27  C   UNL     1      31.158  26.292  14.270  0.00  0.00    +0.066 C 
ENDBRANCH  19  20
ENDBRANCH  18  19
ENDBRANCH  14  15
ENDBRANCH  12  13
TORSDOF 6
ENDMDL
MODEL 2
REMARK VINA RESULT:      -8.7      9.610     14.111
REMARK  Name = C:\Users\Docking\Desktop\test protocol\1iep_ligandH.pdb
REMARK  8 active torsions:
REMARK  status: ('A' for Active; 'I' for Inactive)
REMARK    1  A    between atoms: _5  and  _11
REMARK    2  A    between atoms: _19  and  _21
REMARK    3  A    between atoms: _22  and  _66
REMARK    4  A    between atoms: _27  and  _30
REMARK    5  A    between atoms: _32  and  _33
REMARK    6  A    between atoms: _38  and  _43
REMARK    7  A    between atoms: _43  and  _46
REMARK    8  A    between atoms: _53  and  _55
REMARK                            x       y       z     vdW  Elec       q    Type
REMARK                         _______ _______ _______ _____ _____    ______ ____
ROOT
ATOM     10  C   UNL     1       9.168  25.528  19.240  0.00  0.00    +0.038 A 
ATOM     11  C   UNL     1      10.466  25.298  18.717  0.00  0.00    +0.047 A 
ATOM     12  C   UNL     1      11.055  23.968  18.724  0.00  0.00    +0.035 A 
ATOM     32  C   UNL     1      10.292  22.894  19.269  0.00  0.00    +0.024 A 
ATOM     33  C   UNL     1       8.971  23.110  19.805  0.00  0.00    +0.007 A 
ATOM     34  C   UNL     1       8.386  24.420  19.803  0.00  0.00    -0.029 A 
ATOM     35  C   UNL     1       6.969  24.595  20.397  0.00  0.00    +0.045 C 
ENDROOT
BRANCH  10   9
ATOM      4  C   UNL     1       8.162  29.736  21.318  0.00  0.00    +0.077 A 
ATOM      5  C   UNL     1       8.686  29.304  22.582  0.00  0.00    +0.048 A 
ATOM      6  C   UNL     1       9.198  27.989  22.657  0.00  0.00    +0.116 A 
ATOM      7  N   UNL     1       9.183  27.176  21.545  0.00  0.00    -0.223 NA
ATOM      8  C   UNL     1       8.669  27.623  20.341  0.00  0.00    +0.220 A 
ATOM      9  N   UNL     1       8.651  26.825  19.208  0.00  0.00    -0.283 N 
ATOM     36  H   UNL     1       8.256  27.189  18.341  0.00  0.00    +0.155 HD
ATOM     37  N   UNL     1       8.172  28.874  20.244  0.00  0.00    -0.214 NA
BRANCH   4   3
ATOM      1  C   UNL     1       6.057  33.014  21.670  0.00  0.00    +0.020 A 
ATOM      2  C   UNL     1       6.578  31.695  21.944  0.00  0.00    +0.013 A 
ATOM      3  C   UNL     1       7.588  31.098  21.080  0.00  0.00    +0.019 A 
ATOM     38  C   UNL     1       8.055  31.869  19.937  0.00  0.00    +0.120 A 
ATOM     39  N   UNL     1       7.534  33.137  19.697  0.00  0.00    -0.263 NA
ATOM     40  C   UNL     1       6.560  33.720  20.521  0.00  0.00    +0.111 A 
ENDBRANCH   4   3
ENDBRANCH  10   9
BRANCH  12  13
ATOM     13  N   UNL     1      12.372  23.675  18.215  0.00  0.00    -0.281 N 
ATOM     14  C   UNL     1      12.712  22.838  17.164  0.00  0.00    +0.248 C 
ATOM     30  O   UNL     1      11.947  22.045  16.637  0.00  0.00    -0.270 OA
ATOM     31  H   UNL     1      13.147  24.141  18.686  0.00  0.00    +0.155 HD
BRANCH  14  15
ATOM     15  C   UNL     1      14.108  22.879  16.632  0.00  0.00    +0.037 A 
ATOM     16  C   UNL     1      15.227  23.324  17.467  0.00  0.00    +0.013 A 
ATOM     17  C   UNL     1      16.561  23.370  16.924  0.00  0.00    +0.005 A 
ATOM     18  C   UNL     1      16.784  22.968  15.537  0.00  0.00    -0.033 A 
ATOM     28  C   UNL     1      15.657  22.526  14.733  0.00  0.00    +0.005 A 
ATOM     29  C   UNL     1      14.348  22.480  15.262  0.00  0.00    +0.013 A 
BRANCH  18  19
ATOM     19  C   UNL     1      18.171  23.005  14.868  0.00  0.00    +0.119 C 
BRANCH  19  20
ATOM     20  N   UNL     1      18.992  24.237  15.064  0.00  0.00    -0.302 NA
ATOM     21  C   UNL     1      18.331  25.472  14.446  0.00  0.00    +0.066 C 
ATOM     22  C   UNL     1      19.193  26.756  14.681  0.00  0.00    -0.064 C 
ATOM     23  N   UNL     1      20.591  26.541  14.099  0.00  0.00    +0.379 N 
ATOM     24  C   UNL     1      21.385  27.767  14.266  0.00  0.00    -0.096 C 
ATOM     25  H   UNL     1      20.477  26.358  13.005  0.00  0.00    -0.082 HD
ATOM     26  C   UNL     1      21.254  25.313  14.706  0.00  0.00    -0.064 C 
ATOM     27  C   UNL     1      20.376  24.048  14.493  0.00  0.00    +0.066 C 
ENDBRANCH  19  20
ENDBRANCH  18  19
ENDBRANCH  14  15
ENDBRANCH  12  13
TORSDOF 6
ENDMDL
MODEL 3
REMARK VINA RESULT:      -8.5      5.744      9.033
REMARK  Name = C:\Users\Docking\Desktop\test protocol\1iep_ligandH.pdb
REMARK  8 active torsions:
REMARK  status: ('A' for Active; 'I' for Inactive)
REMARK    1  A    between atoms: _5  and  _11
REMARK    2  A    between atoms: _19  and  _21
REMARK    3  A    between atoms: _22  and  _66
REMARK    4  A    between atoms: _27  and  _30
REMARK    5  A    between atoms: _32  and  _33
REMARK    6  A    between atoms: _38  and  _43
REMARK    7  A    between atoms: _43  and  _46
REMARK    8  A    between atoms: _53  and  _55
REMARK                            x       y       z     vdW  Elec       q    Type
REMARK                         _______ _______ _______ _____ _____    ______ ____
ROOT
ATOM     10  C   UNL     1      14.173  21.705  14.781  0.00  0.00    +0.038 A 
ATOM     11  C   UNL     1      15.275  22.579  14.960  0.00  0.00    +0.047 A 
ATOM     12  C   UNL     1      16.591  22.248  14.435  0.00  0.00    +0.035 A 
ATOM     32  C   UNL     1      16.747  21.019  13.730  0.00  0.00    +0.024 A 
ATOM     33  C   UNL     1      15.637  20.119  13.539  0.00  0.00    +0.007 A 
ATOM     34  C   UNL     1      14.338  20.439  14.057  0.00  0.00    -0.029 A 
ATOM     35  C   UNL     1      13.186  19.433  13.829  0.00  0.00    +0.045 C 
ENDROOT
BRANCH  10   9
ATOM      4  C   UNL     1      10.998  21.940  18.373  0.00  0.00    +0.077 A 
ATOM      5  C   UNL     1      11.875  21.248  19.273  0.00  0.00    +0.048 A 
ATOM      6  C   UNL     1      13.132  20.842  18.769  0.00  0.00    +0.116 A 
ATOM      7  N   UNL     1      13.475  21.114  17.463  0.00  0.00    -0.223 NA
ATOM      8  C   UNL     1      12.604  21.782  16.621  0.00  0.00    +0.220 A 
ATOM      9  N   UNL     1      12.932  22.073  15.306  0.00  0.00    -0.283 N 
ATOM     36  H   UNL     1      12.259  22.562  14.715  0.00  0.00    +0.155 HD
ATOM     37  N   UNL     1      11.398  22.179  17.077  0.00  0.00    -0.214 NA
BRANCH   4   3
ATOM      1  C   UNL     1       7.582  23.847  18.375  0.00  0.00    +0.020 A 
ATOM      2  C   UNL     1       8.892  23.401  17.960  0.00  0.00    +0.013 A 
ATOM      3  C   UNL     1       9.639  22.436  18.758  0.00  0.00    +0.019 A 
ATOM     38  C   UNL     1       9.026  21.937  19.979  0.00  0.00    +0.120 A 
ATOM     39  N   UNL     1       7.763  22.385  20.355  0.00  0.00    -0.263 NA
ATOM     40  C   UNL     1       7.037  23.315  19.597  0.00  0.00    +0.111 A 
ENDBRANCH   4   3
ENDBRANCH  10   9
BRANCH  12  13
ATOM     13  N   UNL     1      17.749  23.092  14.593  0.00  0.00    -0.281 N 
ATOM     14  C   UNL     1      18.432  23.794  13.613  0.00  0.00    +0.248 C 
ATOM     30  O   UNL     1      18.277  23.631  12.412  0.00  0.00    -0.270 OA
ATOM     31  H   UNL     1      18.110  23.183  15.543  0.00  0.00    +0.155 HD
BRANCH  14  15
ATOM     15  C   UNL     1      19.443  24.814  14.027  0.00  0.00    +0.037 A 
ATOM     16  C   UNL     1      19.084  26.227  14.166  0.00  0.00    +0.013 A 
ATOM     17  C   UNL     1      20.083  27.193  14.551  0.00  0.00    +0.005 A 
ATOM     18  C   UNL     1      21.451  26.747  14.800  0.00  0.00    -0.033 A 
ATOM     28  C   UNL     1      21.779  25.338  14.659  0.00  0.00    +0.005 A 
ATOM     29  C   UNL     1      20.803  24.389  14.282  0.00  0.00    +0.013 A 
BRANCH  18  19
ATOM     19  C   UNL     1      22.586  27.711  15.193  0.00  0.00    +0.119 C 
BRANCH  19  20
ATOM     20  N   UNL     1      23.464  27.305  16.331  0.00  0.00    -0.302 NA
ATOM     21  C   UNL     1      22.688  27.204  17.647  0.00  0.00    +0.066 C 
ATOM     22  C   UNL     1      23.617  26.757  18.823  0.00  0.00    -0.064 C 
ATOM     23  N   UNL     1      24.779  27.743  18.954  0.00  0.00    +0.379 N 
ATOM     24  C   UNL     1      25.622  27.358  20.095  0.00  0.00    -0.096 C 
ATOM     25  H   UNL     1      24.348  28.747  19.175  0.00  0.00    -0.082 HD
ATOM     26  C   UNL     1      25.555  27.851  17.649  0.00  0.00    -0.064 C 
ATOM     27  C   UNL     1      24.617  28.268  16.481  0.00  0.00    +0.066 C 
ENDBRANCH  19  20
ENDBRANCH  18  19
ENDBRANCH  14  15
ENDBRANCH  12  13
TORSDOF 6
ENDMDL
MODEL 4
REMARK VINA RESULT:      -8.4      7.064     14.683
REMARK  Name = C:\Users\Docking\Desktop\test protocol\1iep_ligandH.pdb
REMARK  8 active torsions:
REMARK  status: ('A' for Active; 'I' for Inactive)
REMARK    1  A    between atoms: _5  and  _11
REMARK    2  A    between atoms: _19  and  _21
REMARK    3  A    between atoms: _22  and  _66
REMARK    4  A    between atoms: _27  and  _30
REMARK    5  A    between atoms: _32  and  _33
REMARK    6  A    between atoms: _38  and  _43
REMARK    7  A    between atoms: _43  and  _46
REMARK    8  A    between atoms: _53  and  _55
REMARK                            x       y       z     vdW  Elec       q    Type
REMARK                         _______ _______ _______ _____ _____    ______ ____
ROOT
ATOM     10  C   UNL     1      17.457  22.529  14.896  0.00  0.00    +0.038 A 
ATOM     11  C   UNL     1      16.230  22.895  15.507  0.00  0.00    +0.047 A 
ATOM     12  C   UNL     1      14.966  22.344  15.045  0.00  0.00    +0.035 A 
ATOM     32  C   UNL     1      14.987  21.421  13.959  0.00  0.00    +0.024 A 
ATOM     33  C   UNL     1      16.224  21.038  13.326  0.00  0.00    +0.007 A 
ATOM     34  C   UNL     1      17.475  21.580  13.776  0.00  0.00    -0.029 A 
ATOM     35  C   UNL     1      18.770  21.139  13.055  0.00  0.00    +0.045 C 
ENDROOT
BRANCH  10   9
ATOM      4  C   UNL     1      20.482  26.214  15.445  0.00  0.00    +0.077 A 
ATOM      5  C   UNL     1      19.644  27.092  14.681  0.00  0.00    +0.048 A 
ATOM      6  C   UNL     1      18.447  26.555  14.158  0.00  0.00    +0.116 A 
ATOM      7  N   UNL     1      18.121  25.236  14.388  0.00  0.00    -0.223 NA
ATOM      8  C   UNL     1      18.953  24.415  15.128  0.00  0.00    +0.220 A 
ATOM      9  N   UNL     1      18.642  23.088  15.379  0.00  0.00    -0.283 N 
ATOM     36  H   UNL     1      19.285  22.513  15.924  0.00  0.00    +0.155 HD
ATOM     37  N   UNL     1      20.103  24.904  15.637  0.00  0.00    -0.214 NA
BRANCH   4   3
ATOM      1  C   UNL     1      24.071  27.680  15.962  0.00  0.00    +0.020 A 
ATOM      2  C   UNL     1      22.839  27.294  15.315  0.00  0.00    +0.013 A 
ATOM      3  C   UNL     1      21.778  26.635  16.066  0.00  0.00    +0.019 A 
ATOM     38  C   UNL     1      21.996  26.381  17.482  0.00  0.00    +0.120 A 
ATOM     39  N   UNL     1      23.194  26.764  18.078  0.00  0.00    -0.263 NA
ATOM     40  C   UNL     1      24.223  27.396  17.365  0.00  0.00    +0.111 A 
ENDBRANCH   4   3
ENDBRANCH  10   9
BRANCH  12  13
ATOM     13  N   UNL     1      13.688  22.685  15.621  0.00  0.00    -0.281 N 
ATOM     14  C   UNL     1      12.891  21.907  16.445  0.00  0.00    +0.248 C 
ATOM     30  O   UNL     1      13.056  20.712  16.639  0.00  0.00    -0.270 OA
ATOM     31  H   UNL     1      13.329  23.612  15.394  0.00  0.00    +0.155 HD
BRANCH  14  15
ATOM     15  C   UNL     1      11.734  22.547  17.142  0.00  0.00    +0.037 A 
ATOM     16  C   UNL     1      10.390  21.966  17.073  0.00  0.00    +0.013 A 
ATOM     17  C   UNL     1       9.288  22.612  17.741  0.00  0.00    +0.005 A 
ATOM     18  C   UNL     1       9.526  23.847  18.485  0.00  0.00    -0.033 A 
ATOM     28  C   UNL     1      10.869  24.398  18.540  0.00  0.00    +0.005 A 
ATOM     29  C   UNL     1      11.952  23.768  17.886  0.00  0.00    +0.013 A 
BRANCH  18  19
ATOM     19  C   UNL     1       8.405  24.615  19.210  0.00  0.00    +0.119 C 
BRANCH  19  20
ATOM     20  N   UNL     1       8.816  25.589  20.264  0.00  0.00    -0.302 NA
ATOM     21  C   UNL     1       7.936  25.488  21.514  0.00  0.00    +0.066 C 
ATOM     22  C   UNL     1       8.394  26.498  22.616  0.00  0.00    -0.064 C 
ATOM     23  N   UNL     1       8.364  27.917  22.046  0.00  0.00    +0.379 N 
ATOM     24  C   UNL     1       8.738  28.875  23.097  0.00  0.00    -0.096 C 
ATOM     25  H   UNL     1       7.314  28.139  21.745  0.00  0.00    -0.082 HD
ATOM     26  C   UNL     1       9.234  28.026  20.802  0.00  0.00    -0.064 C 
ATOM     27  C   UNL     1       8.790  26.998  19.725  0.00  0.00    +0.066 C 
ENDBRANCH  19  20
ENDBRANCH  18  19
ENDBRANCH  14  15
ENDBRANCH  12  13
TORSDOF 6
ENDMDL
MODEL 5
REMARK VINA RESULT:      -8.4      7.705     15.631
REMARK  Name = C:\Users\Docking\Desktop\test protocol\1iep_ligandH.pdb
REMARK  8 active torsions:
REMARK  status: ('A' for Active; 'I' for Inactive)
REMARK    1  A    between atoms: _5  and  _11
REMARK    2  A    between atoms: _19  and  _21
REMARK    3  A    between atoms: _22  and  _66
REMARK    4  A    between atoms: _27  and  _30
REMARK    5  A    between atoms: _32  and  _33
REMARK    6  A    between atoms: _38  and  _43
REMARK    7  A    between atoms: _43  and  _46
REMARK    8  A    between atoms: _53  and  _55
REMARK                            x       y       z     vdW  Elec       q    Type
REMARK                         _______ _______ _______ _____ _____    ______ ____
ROOT
ATOM     10  C   UNL     1      17.354  22.550  14.997  0.00  0.00    +0.038 A 
ATOM     11  C   UNL     1      16.120  22.908  15.597  0.00  0.00    +0.047 A 
ATOM     12  C   UNL     1      14.859  22.389  15.090  0.00  0.00    +0.035 A 
ATOM     32  C   UNL     1      14.892  21.506  13.971  0.00  0.00    +0.024 A 
ATOM     33  C   UNL     1      16.138  21.133  13.349  0.00  0.00    +0.007 A 
ATOM     34  C   UNL     1      17.385  21.644  13.843  0.00  0.00    -0.029 A 
ATOM     35  C   UNL     1      18.690  21.215  13.133  0.00  0.00    +0.045 C 
ENDROOT
BRANCH  10   9
ATOM      4  C   UNL     1      20.523  26.113  15.550  0.00  0.00    +0.077 A 
ATOM      5  C   UNL     1      19.777  26.989  14.693  0.00  0.00    +0.048 A 
ATOM      6  C   UNL     1      18.587  26.482  14.124  0.00  0.00    +0.116 A 
ATOM      7  N   UNL     1      18.183  25.193  14.399  0.00  0.00    -0.223 NA
ATOM      8  C   UNL     1      18.927  24.374  15.229  0.00  0.00    +0.220 A 
ATOM      9  N   UNL     1      18.535  23.078  15.525  0.00  0.00    -0.283 N 
ATOM     36  H   UNL     1      19.115  22.503  16.135  0.00  0.00    +0.155 HD
ATOM     37  N   UNL     1      20.067  24.834  15.783  0.00  0.00    -0.214 NA
BRANCH   4   3
ATOM      1  C   UNL     1      24.199  27.280  16.200  0.00  0.00    +0.020 A 
ATOM      2  C   UNL     1      22.992  26.911  15.497  0.00  0.00    +0.013 A 
ATOM      3  C   UNL     1      21.799  26.504  16.228  0.00  0.00    +0.019 A 
ATOM     38  C   UNL     1      21.860  26.482  17.682  0.00  0.00    +0.120 A 
ATOM     39  N   UNL     1      23.037  26.841  18.332  0.00  0.00    -0.263 NA
ATOM     40  C   UNL     1      24.192  27.233  17.639  0.00  0.00    +0.111 A 
ENDBRANCH   4   3
ENDBRANCH  10   9
BRANCH  12  13
ATOM     13  N   UNL     1      13.574  22.723  15.653  0.00  0.00    -0.281 N 
ATOM     14  C   UNL     1      12.818  21.983  16.547  0.00  0.00    +0.248 C 
ATOM     30  O   UNL     1      13.035  20.816  16.835  0.00  0.00    -0.270 OA
ATOM     31  H   UNL     1      13.173  23.613  15.356  0.00  0.00    +0.155 HD
BRANCH  14  15
ATOM     15  C   UNL     1      11.641  22.629  17.204  0.00  0.00    +0.037 A 
ATOM     16  C   UNL     1      11.777  23.891  17.936  0.00  0.00    +0.013 A 
ATOM     17  C   UNL     1      10.629  24.484  18.576  0.00  0.00    +0.005 A 
ATOM     18  C   UNL     1       9.334  23.815  18.485  0.00  0.00    -0.033 A 
ATOM     28  C   UNL     1       9.226  22.566  17.748  0.00  0.00    +0.005 A 
ATOM     29  C   UNL     1      10.349  21.982  17.121  0.00  0.00    +0.013 A 
BRANCH  18  19
ATOM     19  C   UNL     1       8.060  24.364  19.154  0.00  0.00    +0.119 C 
BRANCH  19  20
ATOM     20  N   UNL     1       7.144  23.374  19.795  0.00  0.00    -0.302 NA
ATOM     21  C   UNL     1       5.671  23.759  19.622  0.00  0.00    +0.066 C 
ATOM     22  C   UNL     1       4.726  22.701  20.280  0.00  0.00    -0.064 C 
ATOM     23  N   UNL     1       5.078  22.558  21.761  0.00  0.00    +0.379 N 
ATOM     24  C   UNL     1       4.153  21.607  22.395  0.00  0.00    -0.096 C 
ATOM     25  H   UNL     1       4.924  23.552  22.243  0.00  0.00    -0.082 HD
ATOM     26  C   UNL     1       6.541  22.178  21.943  0.00  0.00    -0.064 C 
ATOM     27  C   UNL     1       7.471  23.220  21.260  0.00  0.00    +0.066 C 
ENDBRANCH  19  20
ENDBRANCH  18  19
ENDBRANCH  14  15
ENDBRANCH  12  13
TORSDOF 6
ENDMDL
