MODEL 1
REMARK VINA RESULT:     -11.0      0.000      0.000
REMARK  Name = C:\Users\Docking\Desktop\test protocol\1iep_ligandH.pdb
REMARK  8 active torsions:
REMARK  status: ('A' for Active; 'I' for Inactive)
REMARK    1  A    between atoms: _5  and  _11
REMARK    2  A    between atoms: _19  and  _21
REMARK    3  A    between atoms: _22  and  _66
REMARK    4  A    between atoms: _27  and  _30
REMARK    5  A    between atoms: _32  and  _33
REMARK    6  A    between atoms: _38  and  _43
REMARK    7  A    between atoms: _43  and  _46
REMARK    8  A    between atoms: _53  and  _55
REMARK                            x       y       z     vdW  Elec       q    Type
REMARK                         _______ _______ _______ _____ _____    ______ ____
ROOT
ATOM     10  C   UNL     1      20.412  -4.917   1.698  0.00  0.00    +0.038 A 
ATOM     11  C   UNL     1      19.907  -5.383   2.939  0.00  0.00    +0.047 A 
ATOM     12  C   UNL     1      20.585  -6.435   3.680  0.00  0.00    +0.035 A 
ATOM     32  C   UNL     1      21.777  -6.990   3.129  0.00  0.00    +0.024 A 
ATOM     33  C   UNL     1      22.303  -6.529   1.868  0.00  0.00    +0.007 A 
ATOM     34  C   UNL     1      21.638  -5.493   1.131  0.00  0.00    -0.029 A 
ATOM     35  C   UNL     1      22.244  -5.043  -0.218  0.00  0.00    +0.045 C 
ENDROOT
BRANCH  10   9
ATOM      4  C   UNL     1      17.067  -3.404  -1.393  0.00  0.00    +0.077 A 
ATOM      5  C   UNL     1      16.681  -4.745  -1.724  0.00  0.00    +0.048 A 
ATOM      6  C   UNL     1      17.373  -5.797  -1.082  0.00  0.00    +0.116 A 
ATOM      7  N   UNL     1      18.375  -5.515  -0.178  0.00  0.00    -0.223 NA
ATOM      8  C   UNL     1      18.723  -4.210   0.117  0.00  0.00    +0.220 A 
ATOM      9  N   UNL     1      19.721  -3.904   1.029  0.00  0.00    -0.283 N 
ATOM     36  H   UNL     1      19.954  -2.929   1.214  0.00  0.00    +0.155 HD
ATOM     37  N   UNL     1      18.078  -3.189  -0.484  0.00  0.00    -0.214 NA
BRANCH   4   3
ATOM      1  C   UNL     1      16.131   0.311  -2.185  0.00  0.00    +0.020 A 
ATOM      2  C   UNL     1      16.778  -0.831  -1.581  0.00  0.00    +0.013 A 
ATOM      3  C   UNL     1      16.428  -2.187  -1.986  0.00  0.00    +0.019 A 
ATOM     38  C   UNL     1      15.411  -2.354  -3.013  0.00  0.00    +0.120 A 
ATOM     39  N   UNL     1      14.803  -1.236  -3.576  0.00  0.00    -0.263 NA
ATOM     40  C   UNL     1      15.131   0.073  -3.193  0.00  0.00    +0.111 A 
ENDBRANCH   4   3
ENDBRANCH  10   9
BRANCH  12  13
ATOM     13  N   UNL     1      20.115  -6.954   4.940  0.00  0.00    -0.281 N 
ATOM     14  C   UNL     1      19.739  -6.242   6.067  0.00  0.00    +0.248 C 
ATOM     30  O   UNL     1      19.953  -5.051   6.236  0.00  0.00    -0.270 OA
ATOM     31  H   UNL     1      20.051  -7.970   5.010  0.00  0.00    +0.155 HD
BRANCH  14  15
ATOM     15  C   UNL     1      19.035  -6.960   7.174  0.00  0.00    +0.037 A 
ATOM     16  C   UNL     1      18.308  -8.208   6.928  0.00  0.00    +0.013 A 
ATOM     17  C   UNL     1      17.624  -8.871   8.010  0.00  0.00    +0.005 A 
ATOM     18  C   UNL     1      17.664  -8.287   9.348  0.00  0.00    -0.033 A 
ATOM     28  C   UNL     1      18.397  -7.050   9.564  0.00  0.00    +0.005 A 
ATOM     29  C   UNL     1      19.068  -6.397   8.507  0.00  0.00    +0.013 A 
BRANCH  18  19
ATOM     19  C   UNL     1      16.945  -8.914  10.557  0.00  0.00    +0.119 C 
BRANCH  19  20
ATOM     20  N   UNL     1      17.266  -8.361  11.906  0.00  0.00    -0.302 NA
ATOM     21  C   UNL     1      18.623  -8.852  12.420  0.00  0.00    +0.066 C 
ATOM     22  C   UNL     1      18.953  -8.246  13.823  0.00  0.00    -0.064 C 
ATOM     23  N   UNL     1      17.838  -8.607  14.806  0.00  0.00    +0.379 N 
ATOM     24  C   UNL     1      18.174  -8.088  16.140  0.00  0.00    -0.096 C 
ATOM     25  H   UNL     1      17.797  -9.719  14.876  0.00  0.00    -0.082 HD
ATOM     26  C   UNL     1      16.485  -8.125  14.302  0.00  0.00    -0.064 C 
ATOM     27  C   UNL     1      16.180  -8.710  12.894  0.00  0.00    +0.066 C 
ENDBRANCH  19  20
ENDBRANCH  18  19
ENDBRANCH  14  15
ENDBRANCH  12  13
TORSDOF 6
ENDMDL
MODEL 2
REMARK VINA RESULT:     -10.1      2.382     13.285
REMARK  Name = C:\Users\Docking\Desktop\test protocol\1iep_ligandH.pdb
REMARK  8 active torsions:
REMARK  status: ('A' for Active; 'I' for Inactive)
REMARK    1  A    between atoms: _5  and  _11
REMARK    2  A    between atoms: _19  and  _21
REMARK    3  A    between atoms: _22  and  _66
REMARK    4  A    between atoms: _27  and  _30
REMARK    5  A    between atoms: _32  and  _33
REMARK    6  A    between atoms: _38  and  _43
REMARK    7  A    between atoms: _43  and  _46
REMARK    8  A    between atoms: _53  and  _55
REMARK                            x       y       z     vdW  Elec       q    Type
REMARK                         _______ _______ _______ _____ _____    ______ ____
ROOT
ATOM     10  C   UNL     1      18.410  -8.053   9.730  0.00  0.00    +0.038 A 
ATOM     11  C   UNL     1      18.901  -7.425   8.557  0.00  0.00    +0.047 A 
ATOM     12  C   UNL     1      18.195  -7.540   7.290  0.00  0.00    +0.035 A 
ATOM     32  C   UNL     1      16.989  -8.299   7.255  0.00  0.00    +0.024 A 
ATOM     33  C   UNL     1      16.477  -8.945   8.438  0.00  0.00    +0.007 A 
ATOM     34  C   UNL     1      17.170  -8.838   9.689  0.00  0.00    -0.029 A 
ATOM     35  C   UNL     1      16.578  -9.557  10.924  0.00  0.00    +0.045 C 
ENDROOT
BRANCH  10   9
ATOM      4  C   UNL     1      19.436  -5.728  13.802  0.00  0.00    +0.077 A 
ATOM      5  C   UNL     1      18.478  -4.697  13.523  0.00  0.00    +0.048 A 
ATOM      6  C   UNL     1      17.748  -4.798  12.318  0.00  0.00    +0.116 A 
ATOM      7  N   UNL     1      17.966  -5.856  11.463  0.00  0.00    -0.223 NA
ATOM      8  C   UNL     1      18.898  -6.833  11.761  0.00  0.00    +0.220 A 
ATOM      9  N   UNL     1      19.128  -7.910  10.919  0.00  0.00    -0.283 N 
ATOM     36  H   UNL     1      19.830  -8.606  11.171  0.00  0.00    +0.155 HD
ATOM     37  N   UNL     1      19.610  -6.758  12.905  0.00  0.00    -0.214 NA
BRANCH   4   3
ATOM      1  C   UNL     1      22.196  -4.939  16.459  0.00  0.00    +0.020 A 
ATOM      2  C   UNL     1      21.410  -4.864  15.249  0.00  0.00    +0.013 A 
ATOM      3  C   UNL     1      20.283  -5.763  15.036  0.00  0.00    +0.019 A 
ATOM     38  C   UNL     1      19.974  -6.733  16.075  0.00  0.00    +0.120 A 
ATOM     39  N   UNL     1      20.750  -6.783  17.230  0.00  0.00    -0.263 NA
ATOM     40  C   UNL     1      21.838  -5.924  17.445  0.00  0.00    +0.111 A 
ENDBRANCH   4   3
ENDBRANCH  10   9
BRANCH  12  13
ATOM     13  N   UNL     1      18.649  -6.931   6.064  0.00  0.00    -0.281 N 
ATOM     14  C   UNL     1      19.635  -7.384   5.203  0.00  0.00    +0.248 C 
ATOM     30  O   UNL     1      20.428  -8.276   5.468  0.00  0.00    -0.270 OA
ATOM     31  H   UNL     1      18.189  -6.060   5.800  0.00  0.00    +0.155 HD
BRANCH  14  15
ATOM     15  C   UNL     1      19.769  -6.744   3.859  0.00  0.00    +0.037 A 
ATOM     16  C   UNL     1      20.669  -5.608   3.644  0.00  0.00    +0.013 A 
ATOM     17  C   UNL     1      20.766  -4.999   2.341  0.00  0.00    +0.005 A 
ATOM     18  C   UNL     1      19.961  -5.527   1.242  0.00  0.00    -0.033 A 
ATOM     28  C   UNL     1      19.081  -6.658   1.482  0.00  0.00    +0.005 A 
ATOM     29  C   UNL     1      18.982  -7.257   2.757  0.00  0.00    +0.013 A 
BRANCH  18  19
ATOM     19  C   UNL     1      19.986  -4.926  -0.176  0.00  0.00    +0.119 C 
BRANCH  19  20
ATOM     20  N   UNL     1      18.850  -4.036  -0.561  0.00  0.00    -0.302 NA
ATOM     21  C   UNL     1      18.922  -3.617  -2.032  0.00  0.00    +0.066 C 
ATOM     22  C   UNL     1      17.714  -2.704  -2.424  0.00  0.00    -0.064 C 
ATOM     23  N   UNL     1      17.690  -1.477  -1.511  0.00  0.00    +0.379 N 
ATOM     24  C   UNL     1      16.590  -0.588  -1.914  0.00  0.00    -0.096 C 
ATOM     25  H   UNL     1      18.645  -0.923  -1.664  0.00  0.00    -0.082 HD
ATOM     26  C   UNL     1      17.621  -1.884  -0.047  0.00  0.00    -0.064 C 
ATOM     27  C   UNL     1      18.809  -2.815   0.324  0.00  0.00    +0.066 C 
ENDBRANCH  19  20
ENDBRANCH  18  19
ENDBRANCH  14  15
ENDBRANCH  12  13
TORSDOF 6
ENDMDL
MODEL 3
REMARK VINA RESULT:     -10.0      2.163     13.017
REMARK  Name = C:\Users\Docking\Desktop\test protocol\1iep_ligandH.pdb
REMARK  8 active torsions:
REMARK  status: ('A' for Active; 'I' for Inactive)
REMARK    1  A    between atoms: _5  and  _11
REMARK    2  A    between atoms: _19  and  _21
REMARK    3  A    between atoms: _22  and  _66
REMARK    4  A    between atoms: _27  and  _30
REMARK    5  A    between atoms: _32  and  _33
REMARK    6  A    between atoms: _38  and  _43
REMARK    7  A    between atoms: _43  and  _46
REMARK    8  A    between atoms: _53  and  _55
REMARK                            x       y       z     vdW  Elec       q    Type
REMARK                         _______ _______ _______ _____ _____    ______ ____
ROOT
ATOM     10  C   UNL     1      20.238  -7.174   3.020  0.00  0.00    +0.038 A 
ATOM     11  C   UNL     1      19.532  -6.204   2.264  0.00  0.00    +0.047 A 
ATOM     12  C   UNL     1      20.136  -5.571   1.101  0.00  0.00    +0.035 A 
ATOM     32  C   UNL     1      21.460  -5.951   0.736  0.00  0.00    +0.024 A 
ATOM     33  C   UNL     1      22.193  -6.935   1.495  0.00  0.00    +0.007 A 
ATOM     34  C   UNL     1      21.603  -7.561   2.644  0.00  0.00    -0.029 A 
ATOM     35  C   UNL     1      22.437  -8.604   3.424  0.00  0.00    +0.045 C 
ENDROOT
BRANCH  10   9
ATOM      4  C   UNL     1      18.762  -7.056   7.586  0.00  0.00    +0.077 A 
ATOM      5  C   UNL     1      19.311  -5.746   7.792  0.00  0.00    +0.048 A 
ATOM      6  C   UNL     1      19.972  -5.141   6.699  0.00  0.00    +0.116 A 
ATOM      7  N   UNL     1      20.070  -5.805   5.496  0.00  0.00    -0.223 NA
ATOM      8  C   UNL     1      19.530  -7.067   5.331  0.00  0.00    +0.220 A 
ATOM      9  N   UNL     1      19.610  -7.750   4.127  0.00  0.00    -0.283 N 
ATOM     36  H   UNL     1      19.206  -8.682   4.048  0.00  0.00    +0.155 HD
ATOM     37  N   UNL     1      18.895  -7.667   6.359  0.00  0.00    -0.214 NA
BRANCH   4   3
ATOM      1  C   UNL     1      16.294  -9.490   9.398  0.00  0.00    +0.020 A 
ATOM      2  C   UNL     1      16.967  -8.773   8.340  0.00  0.00    +0.013 A 
ATOM      3  C   UNL     1      18.031  -7.824   8.643  0.00  0.00    +0.019 A 
ATOM     38  C   UNL     1      18.394  -7.624  10.038  0.00  0.00    +0.120 A 
ATOM     39  N   UNL     1      17.726  -8.327  11.036  0.00  0.00    -0.263 NA
ATOM     40  C   UNL     1      16.700  -9.241  10.756  0.00  0.00    +0.111 A 
ENDBRANCH   4   3
ENDBRANCH  10   9
BRANCH  12  13
ATOM     13  N   UNL     1      19.471  -4.574   0.300  0.00  0.00    -0.281 N 
ATOM     14  C   UNL     1      18.269  -4.690  -0.379  0.00  0.00    +0.248 C 
ATOM     30  O   UNL     1      17.684  -5.745  -0.574  0.00  0.00    -0.270 OA
ATOM     31  H   UNL     1      19.944  -3.674   0.223  0.00  0.00    +0.155 HD
BRANCH  14  15
ATOM     15  C   UNL     1      17.630  -3.457  -0.932  0.00  0.00    +0.037 A 
ATOM     16  C   UNL     1      17.730  -2.172  -0.237  0.00  0.00    +0.013 A 
ATOM     17  C   UNL     1      17.091  -1.001  -0.784  0.00  0.00    +0.005 A 
ATOM     18  C   UNL     1      16.346  -1.112  -2.036  0.00  0.00    -0.033 A 
ATOM     28  C   UNL     1      16.267  -2.399  -2.708  0.00  0.00    +0.005 A 
ATOM     29  C   UNL     1      16.892  -3.548  -2.174  0.00  0.00    +0.013 A 
BRANCH  18  19
ATOM     19  C   UNL     1      15.614   0.079  -2.682  0.00  0.00    +0.119 C 
BRANCH  19  20
ATOM     20  N   UNL     1      14.938  -0.162  -3.991  0.00  0.00    -0.302 NA
ATOM     21  C   UNL     1      15.779   0.331  -5.172  0.00  0.00    +0.066 C 
ATOM     22  C   UNL     1      15.067   0.050  -6.535  0.00  0.00    -0.064 C 
ATOM     23  N   UNL     1      13.691   0.718  -6.535  0.00  0.00    +0.379 N 
ATOM     24  C   UNL     1      13.042   0.505  -7.837  0.00  0.00    -0.096 C 
ATOM     25  H   UNL     1      13.847   1.815  -6.411  0.00  0.00    -0.082 HD
ATOM     26  C   UNL     1      12.848   0.236  -5.363  0.00  0.00    -0.064 C 
ATOM     27  C   UNL     1      13.578   0.493  -4.015  0.00  0.00    +0.066 C 
ENDBRANCH  19  20
ENDBRANCH  18  19
ENDBRANCH  14  15
ENDBRANCH  12  13
TORSDOF 6
ENDMDL
MODEL 4
REMARK VINA RESULT:      -9.8      2.205     12.627
REMARK  Name = C:\Users\Docking\Desktop\test protocol\1iep_ligandH.pdb
REMARK  8 active torsions:
REMARK  status: ('A' for Active; 'I' for Inactive)
REMARK    1  A    between atoms: _5  and  _11
REMARK    2  A    between atoms: _19  and  _21
REMARK    3  A    between atoms: _22  and  _66
REMARK    4  A    between atoms: _27  and  _30
REMARK    5  A    between atoms: _32  and  _33
REMARK    6  A    between atoms: _38  and  _43
REMARK    7  A    between atoms: _43  and  _46
REMARK    8  A    between atoms: _53  and  _55
REMARK                            x       y       z     vdW  Elec       q    Type
REMARK                         _______ _______ _______ _____ _____    ______ ____
ROOT
ATOM     10  C   UNL     1      20.009  -7.237   2.956  0.00  0.00    +0.038 A 
ATOM     11  C   UNL     1      19.225  -6.382   2.141  0.00  0.00    +0.047 A 
ATOM     12  C   UNL     1      19.776  -5.772   0.941  0.00  0.00    +0.035 A 
ATOM     32  C   UNL     1      21.131  -6.056   0.600  0.00  0.00    +0.024 A 
ATOM     33  C   UNL     1      21.943  -6.921   1.419  0.00  0.00    +0.007 A 
ATOM     34  C   UNL     1      21.405  -7.524   2.604  0.00  0.00    -0.029 A 
ATOM     35  C   UNL     1      22.324  -8.439   3.448  0.00  0.00    +0.045 C 
ENDROOT
BRANCH  10   9
ATOM      4  C   UNL     1      18.742  -7.057   7.582  0.00  0.00    +0.077 A 
ATOM      5  C   UNL     1      19.309  -5.749   7.748  0.00  0.00    +0.048 A 
ATOM      6  C   UNL     1      19.923  -5.161   6.620  0.00  0.00    +0.116 A 
ATOM      7  N   UNL     1      19.962  -5.839   5.421  0.00  0.00    -0.223 NA
ATOM      8  C   UNL     1      19.408  -7.099   5.296  0.00  0.00    +0.220 A 
ATOM      9  N   UNL     1      19.429  -7.796   4.097  0.00  0.00    -0.283 N 
ATOM     36  H   UNL     1      19.016  -8.727   4.048  0.00  0.00    +0.155 HD
ATOM     37  N   UNL     1      18.817  -7.684   6.358  0.00  0.00    -0.214 NA
BRANCH   4   3
ATOM      1  C   UNL     1      17.717  -8.409  11.107  0.00  0.00    +0.020 A 
ATOM      2  C   UNL     1      18.412  -7.659  10.086  0.00  0.00    +0.013 A 
ATOM      3  C   UNL     1      18.056  -7.809   8.680  0.00  0.00    +0.019 A 
ATOM     38  C   UNL     1      16.984  -8.732   8.339  0.00  0.00    +0.120 A 
ATOM     39  N   UNL     1      16.334  -9.442   9.344  0.00  0.00    -0.263 NA
ATOM     40  C   UNL     1      16.669  -9.307  10.700  0.00  0.00    +0.111 A 
ENDBRANCH   4   3
ENDBRANCH  10   9
BRANCH  12  13
ATOM     13  N   UNL     1      19.030  -4.889   0.079  0.00  0.00    -0.281 N 
ATOM     14  C   UNL     1      18.735  -3.551   0.279  0.00  0.00    +0.248 C 
ATOM     30  O   UNL     1      18.888  -2.961   1.339  0.00  0.00    -0.270 OA
ATOM     31  H   UNL     1      18.676  -5.302  -0.785  0.00  0.00    +0.155 HD
BRANCH  14  15
ATOM     15  C   UNL     1      18.177  -2.756  -0.857  0.00  0.00    +0.037 A 
ATOM     16  C   UNL     1      18.613  -2.992  -2.236  0.00  0.00    +0.013 A 
ATOM     17  C   UNL     1      18.071  -2.200  -3.311  0.00  0.00    +0.005 A 
ATOM     18  C   UNL     1      17.085  -1.164  -3.011  0.00  0.00    -0.033 A 
ATOM     28  C   UNL     1      16.666  -0.955  -1.635  0.00  0.00    +0.005 A 
ATOM     29  C   UNL     1      17.196  -1.729  -0.578  0.00  0.00    +0.013 A 
BRANCH  18  19
ATOM     19  C   UNL     1      16.469  -0.257  -4.093  0.00  0.00    +0.119 C 
BRANCH  19  20
ATOM     20  N   UNL     1      15.171  -0.691  -4.691  0.00  0.00    -0.302 NA
ATOM     21  C   UNL     1      13.973  -0.018  -4.014  0.00  0.00    +0.066 C 
ATOM     22  C   UNL     1      12.625  -0.465  -4.667  0.00  0.00    -0.064 C 
ATOM     23  N   UNL     1      12.505  -1.988  -4.590  0.00  0.00    +0.379 N 
ATOM     24  C   UNL     1      11.212  -2.408  -5.150  0.00  0.00    -0.096 C 
ATOM     25  H   UNL     1      12.515  -2.274  -3.512  0.00  0.00    -0.082 HD
ATOM     26  C   UNL     1      13.693  -2.666  -5.258  0.00  0.00    -0.064 C 
ATOM     27  C   UNL     1      15.029  -2.192  -4.622  0.00  0.00    +0.066 C 
ENDBRANCH  19  20
ENDBRANCH  18  19
ENDBRANCH  14  15
ENDBRANCH  12  13
TORSDOF 6
ENDMDL
MODEL 5
REMARK VINA RESULT:      -9.6      4.980     14.627
REMARK  Name = C:\Users\Docking\Desktop\test protocol\1iep_ligandH.pdb
REMARK  8 active torsions:
REMARK  status: ('A' for Active; 'I' for Inactive)
REMARK    1  A    between atoms: _5  and  _11
REMARK    2  A    between atoms: _19  and  _21
REMARK    3  A    between atoms: _22  and  _66
REMARK    4  A    between atoms: _27  and  _30
REMARK    5  A    between atoms: _32  and  _33
REMARK    6  A    between atoms: _38  and  _43
REMARK    7  A    between atoms: _43  and  _46
REMARK    8  A    between atoms: _53  and  _55
REMARK                            x       y       z     vdW  Elec       q    Type
REMARK                         _______ _______ _______ _____ _____    ______ ____
ROOT
ATOM     10  C   UNL     1      18.802  -7.935  14.871  0.00  0.00    +0.038 A 
ATOM     11  C   UNL     1      19.003  -7.806  13.473  0.00  0.00    +0.047 A 
ATOM     12  C   UNL     1      17.888  -7.879  12.542  0.00  0.00    +0.035 A 
ATOM     32  C   UNL     1      16.580  -8.082  13.070  0.00  0.00    +0.024 A 
ATOM     33  C   UNL     1      16.357  -8.217  14.489  0.00  0.00    +0.007 A 
ATOM     34  C   UNL     1      17.454  -8.149  15.411  0.00  0.00    -0.029 A 
ATOM     35  C   UNL     1      17.158  -8.306  16.921  0.00  0.00    +0.045 C 
ENDROOT
BRANCH  10   9
ATOM      4  C   UNL     1      22.470  -5.541  16.834  0.00  0.00    +0.077 A 
ATOM      5  C   UNL     1      22.171  -4.353  16.087  0.00  0.00    +0.048 A 
ATOM      6  C   UNL     1      21.070  -4.402  15.203  0.00  0.00    +0.116 A 
ATOM      7  N   UNL     1      20.330  -5.558  15.083  0.00  0.00    -0.223 NA
ATOM      8  C   UNL     1      20.645  -6.687  15.817  0.00  0.00    +0.220 A 
ATOM      9  N   UNL     1      19.909  -7.857  15.719  0.00  0.00    -0.283 N 
ATOM     36  H   UNL     1      20.179  -8.670  16.272  0.00  0.00    +0.155 HD
ATOM     37  N   UNL     1      21.693  -6.666  16.667  0.00  0.00    -0.214 NA
BRANCH   4   3
ATOM      1  C   UNL     1      25.764  -6.652  18.628  0.00  0.00    +0.020 A 
ATOM      2  C   UNL     1      24.696  -6.592  17.656  0.00  0.00    +0.013 A 
ATOM      3  C   UNL     1      23.600  -5.645  17.811  0.00  0.00    +0.019 A 
ATOM     38  C   UNL     1      23.614  -4.763  18.968  0.00  0.00    +0.120 A 
ATOM     39  N   UNL     1      24.654  -4.844  19.889  0.00  0.00    -0.263 NA
ATOM     40  C   UNL     1      25.714  -5.753  19.751  0.00  0.00    +0.111 A 
ENDBRANCH   4   3
ENDBRANCH  10   9
BRANCH  12  13
ATOM     13  N   UNL     1      18.032  -7.762  11.112  0.00  0.00    -0.281 N 
ATOM     14  C   UNL     1      18.402  -6.644  10.382  0.00  0.00    +0.248 C 
ATOM     30  O   UNL     1      18.458  -5.511  10.835  0.00  0.00    -0.270 OA
ATOM     31  H   UNL     1      17.838  -8.606  10.573  0.00  0.00    +0.155 HD
BRANCH  14  15
ATOM     15  C   UNL     1      18.745  -6.807   8.937  0.00  0.00    +0.037 A 
ATOM     16  C   UNL     1      19.456  -5.759   8.201  0.00  0.00    +0.013 A 
ATOM     17  C   UNL     1      19.760  -5.934   6.803  0.00  0.00    +0.005 A 
ATOM     18  C   UNL     1      19.352  -7.166   6.131  0.00  0.00    -0.033 A 
ATOM     28  C   UNL     1      18.652  -8.192   6.886  0.00  0.00    +0.005 A 
ATOM     29  C   UNL     1      18.352  -8.023   8.256  0.00  0.00    +0.013 A 
BRANCH  18  19
ATOM     19  C   UNL     1      19.615  -7.430   4.637  0.00  0.00    +0.119 C 
BRANCH  19  20
ATOM     20  N   UNL     1      21.039  -7.454   4.187  0.00  0.00    -0.302 NA
ATOM     21  C   UNL     1      21.339  -6.350   3.170  0.00  0.00    +0.066 C 
ATOM     22  C   UNL     1      22.839  -6.376   2.727  0.00  0.00    -0.064 C 
ATOM     23  N   UNL     1      23.173  -7.752   2.148  0.00  0.00    +0.379 N 
ATOM     24  C   UNL     1      24.566  -7.761   1.677  0.00  0.00    -0.096 C 
ATOM     25  H   UNL     1      22.515  -7.914   1.262  0.00  0.00    -0.082 HD
ATOM     26  C   UNL     1      22.875  -8.856   3.152  0.00  0.00    -0.064 C 
ATOM     27  C   UNL     1      21.389  -8.803   3.608  0.00  0.00    +0.066 C 
ENDBRANCH  19  20
ENDBRANCH  18  19
ENDBRANCH  14  15
ENDBRANCH  12  13
TORSDOF 6
ENDMDL
