MODEL 1
REMARK VINA RESULT:      -8.0      0.000      0.000
REMARK  Name = C:\Users\Docking\Desktop\test protocol\1iep_ligandH.pdb
REMARK  8 active torsions:
REMARK  status: ('A' for Active; 'I' for Inactive)
REMARK    1  A    between atoms: _5  and  _11
REMARK    2  A    between atoms: _19  and  _21
REMARK    3  A    between atoms: _22  and  _66
REMARK    4  A    between atoms: _27  and  _30
REMARK    5  A    between atoms: _32  and  _33
REMARK    6  A    between atoms: _38  and  _43
REMARK    7  A    between atoms: _43  and  _46
REMARK    8  A    between atoms: _53  and  _55
REMARK                            x       y       z     vdW  Elec       q    Type
REMARK                         _______ _______ _______ _____ _____    ______ ____
ROOT
ATOM     10  C   UNL     1     -16.024  12.018   1.045  0.00  0.00    +0.038 A 
ATOM     11  C   UNL     1     -15.227  12.133   2.212  0.00  0.00    +0.047 A 
ATOM     12  C   UNL     1     -14.380  13.296   2.433  0.00  0.00    +0.035 A 
ATOM     32  C   UNL     1     -14.372  14.323   1.445  0.00  0.00    +0.024 A 
ATOM     33  C   UNL     1     -15.176  14.222   0.253  0.00  0.00    +0.007 A 
ATOM     34  C   UNL     1     -16.011  13.077   0.028  0.00  0.00    -0.029 A 
ATOM     35  C   UNL     1     -16.847  13.018  -1.271  0.00  0.00    +0.045 C 
ENDROOT
BRANCH  10   9
ATOM      4  C   UNL     1     -16.579   7.333   0.161  0.00  0.00    +0.077 A 
ATOM      5  C   UNL     1     -15.169   7.141  -0.022  0.00  0.00    +0.048 A 
ATOM      6  C   UNL     1     -14.336   8.274   0.113  0.00  0.00    +0.116 A 
ATOM      7  N   UNL     1     -14.883   9.504   0.409  0.00  0.00    -0.223 NA
ATOM      8  C   UNL     1     -16.247   9.655   0.578  0.00  0.00    +0.220 A 
ATOM      9  N   UNL     1     -16.819  10.881   0.884  0.00  0.00    -0.283 N 
ATOM     36  H   UNL     1     -17.830  10.952   0.993  0.00  0.00    +0.155 HD
ATOM     37  N   UNL     1     -17.064   8.588   0.453  0.00  0.00    -0.214 NA
BRANCH   4   3
ATOM      1  C   UNL     1     -19.723   5.236  -0.844  0.00  0.00    +0.020 A 
ATOM      2  C   UNL     1     -18.781   6.329  -0.776  0.00  0.00    +0.013 A 
ATOM      3  C   UNL     1     -17.587   6.232   0.054  0.00  0.00    +0.019 A 
ATOM     38  C   UNL     1     -17.374   5.005   0.808  0.00  0.00    +0.120 A 
ATOM     39  N   UNL     1     -18.300   3.970   0.724  0.00  0.00    -0.263 NA
ATOM     40  C   UNL     1     -19.453   4.053  -0.071  0.00  0.00    +0.111 A 
ENDBRANCH   4   3
ENDBRANCH  10   9
BRANCH  12  13
ATOM     13  N   UNL     1     -13.542  13.464   3.594  0.00  0.00    -0.281 N 
ATOM     14  C   UNL     1     -13.855  13.192   4.916  0.00  0.00    +0.248 C 
ATOM     30  O   UNL     1     -14.982  12.962   5.327  0.00  0.00    -0.270 OA
ATOM     31  H   UNL     1     -12.605  13.828   3.421  0.00  0.00    +0.155 HD
BRANCH  14  15
ATOM     15  C   UNL     1     -12.758  13.189   5.931  0.00  0.00    +0.037 A 
ATOM     16  C   UNL     1     -12.565  14.318   6.845  0.00  0.00    +0.013 A 
ATOM     17  C   UNL     1     -11.489  14.297   7.804  0.00  0.00    +0.005 A 
ATOM     18  C   UNL     1     -10.597  13.141   7.854  0.00  0.00    -0.033 A 
ATOM     28  C   UNL     1     -10.814  12.033   6.939  0.00  0.00    +0.005 A 
ATOM     29  C   UNL     1     -11.867  12.050   5.997  0.00  0.00    +0.013 A 
BRANCH  18  19
ATOM     19  C   UNL     1      -9.409  13.043   8.830  0.00  0.00    +0.119 C 
BRANCH  19  20
ATOM     20  N   UNL     1      -9.704  13.211  10.284  0.00  0.00    -0.302 NA
ATOM     21  C   UNL     1      -8.437  13.486  11.099  0.00  0.00    +0.066 C 
ATOM     22  C   UNL     1      -8.766  13.681  12.615  0.00  0.00    -0.064 C 
ATOM     23  N   UNL     1      -9.489  12.440  13.141  0.00  0.00    +0.379 N 
ATOM     24  C   UNL     1      -9.749  12.597  14.579  0.00  0.00    -0.096 C 
ATOM     25  H   UNL     1      -8.804  11.570  13.013  0.00  0.00    -0.082 HD
ATOM     26  C   UNL     1     -10.749  12.158  12.334  0.00  0.00    -0.064 C 
ATOM     27  C   UNL     1     -10.414  11.995  10.825  0.00  0.00    +0.066 C 
ENDBRANCH  19  20
ENDBRANCH  18  19
ENDBRANCH  14  15
ENDBRANCH  12  13
TORSDOF 6
ENDMDL
MODEL 2
REMARK VINA RESULT:      -7.6      2.752     12.996
REMARK  Name = C:\Users\Docking\Desktop\test protocol\1iep_ligandH.pdb
REMARK  8 active torsions:
REMARK  status: ('A' for Active; 'I' for Inactive)
REMARK    1  A    between atoms: _5  and  _11
REMARK    2  A    between atoms: _19  and  _21
REMARK    3  A    between atoms: _22  and  _66
REMARK    4  A    between atoms: _27  and  _30
REMARK    5  A    between atoms: _32  and  _33
REMARK    6  A    between atoms: _38  and  _43
REMARK    7  A    between atoms: _43  and  _46
REMARK    8  A    between atoms: _53  and  _55
REMARK                            x       y       z     vdW  Elec       q    Type
REMARK                         _______ _______ _______ _____ _____    ______ ____
ROOT
ATOM     10  C   UNL     1     -15.299  11.634   1.213  0.00  0.00    +0.038 A 
ATOM     11  C   UNL     1     -15.841  10.328   1.096  0.00  0.00    +0.047 A 
ATOM     12  C   UNL     1     -16.883  10.030   0.126  0.00  0.00    +0.035 A 
ATOM     32  C   UNL     1     -17.348  11.086  -0.711  0.00  0.00    +0.024 A 
ATOM     33  C   UNL     1     -16.809  12.419  -0.605  0.00  0.00    +0.007 A 
ATOM     34  C   UNL     1     -15.783  12.719   0.352  0.00  0.00    -0.029 A 
ATOM     35  C   UNL     1     -15.246  14.168   0.426  0.00  0.00    +0.045 C 
ENDROOT
BRANCH  10   9
ATOM      4  C   UNL     1     -13.848  12.904   5.609  0.00  0.00    +0.077 A 
ATOM      5  C   UNL     1     -15.191  13.156   6.044  0.00  0.00    +0.048 A 
ATOM      6  C   UNL     1     -16.226  12.954   5.103  0.00  0.00    +0.116 A 
ATOM      7  N   UNL     1     -15.929  12.531   3.826  0.00  0.00    -0.223 NA
ATOM      8  C   UNL     1     -14.622  12.298   3.439  0.00  0.00    +0.220 A 
ATOM      9  N   UNL     1     -14.300  11.864   2.162  0.00  0.00    -0.283 N 
ATOM     36  H   UNL     1     -13.323  11.710   1.913  0.00  0.00    +0.155 HD
ATOM     37  N   UNL     1     -13.615  12.485   4.318  0.00  0.00    -0.214 NA
BRANCH   4   3
ATOM      1  C   UNL     1     -10.363  12.376   7.306  0.00  0.00    +0.020 A 
ATOM      2  C   UNL     1     -11.499  12.172   6.436  0.00  0.00    +0.013 A 
ATOM      3  C   UNL     1     -12.646  13.069   6.487  0.00  0.00    +0.019 A 
ATOM     38  C   UNL     1     -12.613  14.171   7.436  0.00  0.00    +0.120 A 
ATOM     39  N   UNL     1     -11.507  14.342   8.263  0.00  0.00    -0.263 NA
ATOM     40  C   UNL     1     -10.397  13.484   8.224  0.00  0.00    +0.111 A 
ENDBRANCH   4   3
ENDBRANCH  10   9
BRANCH  12  13
ATOM     13  N   UNL     1     -17.477   8.726  -0.033  0.00  0.00    -0.281 N 
ATOM     14  C   UNL     1     -16.840   7.496  -0.045  0.00  0.00    +0.248 C 
ATOM     30  O   UNL     1     -15.630   7.345  -0.135  0.00  0.00    -0.270 OA
ATOM     31  H   UNL     1     -18.490   8.707  -0.151  0.00  0.00    +0.155 HD
BRANCH  14  15
ATOM     15  C   UNL     1     -17.667   6.254   0.041  0.00  0.00    +0.037 A 
ATOM     16  C   UNL     1     -17.231   5.104   0.838  0.00  0.00    +0.013 A 
ATOM     17  C   UNL     1     -18.039   3.912   0.890  0.00  0.00    +0.005 A 
ATOM     18  C   UNL     1     -19.294   3.864   0.143  0.00  0.00    -0.033 A 
ATOM     28  C   UNL     1     -19.705   5.021  -0.636  0.00  0.00    +0.005 A 
ATOM     29  C   UNL     1     -18.914   6.191  -0.690  0.00  0.00    +0.013 A 
BRANCH  18  19
ATOM     19  C   UNL     1     -20.209   2.626   0.123  0.00  0.00    +0.119 C 
BRANCH  19  20
ATOM     20  N   UNL     1     -20.171   1.767  -1.098  0.00  0.00    -0.302 NA
ATOM     21  C   UNL     1     -21.473   0.984  -1.289  0.00  0.00    +0.066 C 
ATOM     22  C   UNL     1     -21.425   0.108  -2.583  0.00  0.00    -0.064 C 
ATOM     23  N   UNL     1     -20.228  -0.842  -2.509  0.00  0.00    +0.379 N 
ATOM     24  C   UNL     1     -20.214  -1.707  -3.697  0.00  0.00    -0.096 C 
ATOM     25  H   UNL     1     -20.370  -1.495  -1.617  0.00  0.00    -0.082 HD
ATOM     26  C   UNL     1     -18.930  -0.072  -2.315  0.00  0.00    -0.064 C 
ATOM     27  C   UNL     1     -18.999   0.818  -1.043  0.00  0.00    +0.066 C 
ENDBRANCH  19  20
ENDBRANCH  18  19
ENDBRANCH  14  15
ENDBRANCH  12  13
TORSDOF 6
ENDMDL
MODEL 3
REMARK VINA RESULT:      -7.5     19.252     21.512
REMARK  Name = C:\Users\Docking\Desktop\test protocol\1iep_ligandH.pdb
REMARK  8 active torsions:
REMARK  status: ('A' for Active; 'I' for Inactive)
REMARK    1  A    between atoms: _5  and  _11
REMARK    2  A    between atoms: _19  and  _21
REMARK    3  A    between atoms: _22  and  _66
REMARK    4  A    between atoms: _27  and  _30
REMARK    5  A    between atoms: _32  and  _33
REMARK    6  A    between atoms: _38  and  _43
REMARK    7  A    between atoms: _43  and  _46
REMARK    8  A    between atoms: _53  and  _55
REMARK                            x       y       z     vdW  Elec       q    Type
REMARK                         _______ _______ _______ _____ _____    ______ ____
ROOT
ATOM     10  C   UNL     1       1.407  -1.080  -6.864  0.00  0.00    +0.038 A 
ATOM     11  C   UNL     1       1.605   0.323  -6.920  0.00  0.00    +0.047 A 
ATOM     12  C   UNL     1       2.245   1.036  -5.826  0.00  0.00    +0.035 A 
ATOM     32  C   UNL     1       2.673   0.289  -4.690  0.00  0.00    +0.024 A 
ATOM     33  C   UNL     1       2.478  -1.138  -4.616  0.00  0.00    +0.007 A 
ATOM     34  C   UNL     1       1.845  -1.847  -5.691  0.00  0.00    -0.029 A 
ATOM     35  C   UNL     1       1.656  -3.376  -5.555  0.00  0.00    +0.045 C 
ENDROOT
BRANCH  10   9
ATOM      4  C   UNL     1      -2.450  -2.079  -9.540  0.00  0.00    +0.077 A 
ATOM      5  C   UNL     1      -3.309  -1.292  -8.703  0.00  0.00    +0.048 A 
ATOM      6  C   UNL     1      -2.720  -0.652  -7.589  0.00  0.00    +0.116 A 
ATOM      7  N   UNL     1      -1.372  -0.796  -7.342  0.00  0.00    -0.223 NA
ATOM      8  C   UNL     1      -0.573  -1.563  -8.168  0.00  0.00    +0.220 A 
ATOM      9  N   UNL     1       0.787  -1.715  -7.943  0.00  0.00    -0.283 N 
ATOM     36  H   UNL     1       1.341  -2.296  -8.572  0.00  0.00    +0.155 HD
ATOM     37  N   UNL     1      -1.111  -2.186  -9.238  0.00  0.00    -0.214 NA
BRANCH   4   3
ATOM      1  C   UNL     1      -4.383  -3.046 -12.801  0.00  0.00    +0.020 A 
ATOM      2  C   UNL     1      -3.962  -2.297 -11.639  0.00  0.00    +0.013 A 
ATOM      3  C   UNL     1      -2.924  -2.813 -10.756  0.00  0.00    +0.019 A 
ATOM     38  C   UNL     1      -2.325  -4.100 -11.081  0.00  0.00    +0.120 A 
ATOM     39  N   UNL     1      -2.751  -4.799 -12.205  0.00  0.00    -0.263 NA
ATOM     40  C   UNL     1      -3.751  -4.313 -13.061  0.00  0.00    +0.111 A 
ENDBRANCH   4   3
ENDBRANCH  10   9
BRANCH  12  13
ATOM     13  N   UNL     1       2.466   2.461  -5.823  0.00  0.00    -0.281 N 
ATOM     14  C   UNL     1       3.666   3.137  -5.979  0.00  0.00    +0.248 C 
ATOM     30  O   UNL     1       4.767   2.610  -5.931  0.00  0.00    -0.270 OA
ATOM     31  H   UNL     1       1.639   3.042  -5.690  0.00  0.00    +0.155 HD
BRANCH  14  15
ATOM     15  C   UNL     1       3.638   4.614  -6.207  0.00  0.00    +0.037 A 
ATOM     16  C   UNL     1       4.356   5.224  -7.329  0.00  0.00    +0.013 A 
ATOM     17  C   UNL     1       4.327   6.653  -7.516  0.00  0.00    +0.005 A 
ATOM     18  C   UNL     1       3.574   7.482  -6.578  0.00  0.00    -0.033 A 
ATOM     28  C   UNL     1       2.866   6.851  -5.477  0.00  0.00    +0.005 A 
ATOM     29  C   UNL     1       2.894   5.451  -5.290  0.00  0.00    +0.013 A 
BRANCH  18  19
ATOM     19  C   UNL     1       3.505   9.017  -6.688  0.00  0.00    +0.119 C 
BRANCH  19  20
ATOM     20  N   UNL     1       2.845   9.754  -5.569  0.00  0.00    -0.302 NA
ATOM     21  C   UNL     1       1.580  10.483  -6.029  0.00  0.00    +0.066 C 
ATOM     22  C   UNL     1       0.890  11.230  -4.841  0.00  0.00    -0.064 C 
ATOM     23  N   UNL     1       1.882  12.210  -4.214  0.00  0.00    +0.379 N 
ATOM     24  C   UNL     1       1.220  12.956  -3.134  0.00  0.00    -0.096 C 
ATOM     25  H   UNL     1       2.176  12.944  -5.001  0.00  0.00    -0.082 HD
ATOM     26  C   UNL     1       3.145  11.494  -3.756  0.00  0.00    -0.064 C 
ATOM     27  C   UNL     1       3.806  10.731  -4.938  0.00  0.00    +0.066 C 
ENDBRANCH  19  20
ENDBRANCH  18  19
ENDBRANCH  14  15
ENDBRANCH  12  13
TORSDOF 6
ENDMDL
MODEL 4
REMARK VINA RESULT:      -7.4     22.774     26.944
REMARK  Name = C:\Users\Docking\Desktop\test protocol\1iep_ligandH.pdb
REMARK  8 active torsions:
REMARK  status: ('A' for Active; 'I' for Inactive)
REMARK    1  A    between atoms: _5  and  _11
REMARK    2  A    between atoms: _19  and  _21
REMARK    3  A    between atoms: _22  and  _66
REMARK    4  A    between atoms: _27  and  _30
REMARK    5  A    between atoms: _32  and  _33
REMARK    6  A    between atoms: _38  and  _43
REMARK    7  A    between atoms: _43  and  _46
REMARK    8  A    between atoms: _53  and  _55
REMARK                            x       y       z     vdW  Elec       q    Type
REMARK                         _______ _______ _______ _____ _____    ______ ____
ROOT
ATOM     10  C   UNL     1       0.765  -2.359  -6.867  0.00  0.00    +0.038 A 
ATOM     11  C   UNL     1       0.723  -3.700  -7.326  0.00  0.00    +0.047 A 
ATOM     12  C   UNL     1       0.853  -4.816  -6.402  0.00  0.00    +0.035 A 
ATOM     32  C   UNL     1       1.023  -4.529  -5.016  0.00  0.00    +0.024 A 
ATOM     33  C   UNL     1       1.070  -3.172  -4.532  0.00  0.00    +0.007 A 
ATOM     34  C   UNL     1       0.944  -2.067  -5.439  0.00  0.00    -0.029 A 
ATOM     35  C   UNL     1       1.008  -0.632  -4.866  0.00  0.00    +0.045 C 
ENDROOT
BRANCH  10   9
ATOM      4  C   UNL     1      -1.873   0.755  -9.393  0.00  0.00    +0.077 A 
ATOM      5  C   UNL     1      -3.098   0.265  -8.830  0.00  0.00    +0.048 A 
ATOM      6  C   UNL     1      -3.006  -0.795  -7.899  0.00  0.00    +0.116 A 
ATOM      7  N   UNL     1      -1.776  -1.317  -7.564  0.00  0.00    -0.223 NA
ATOM      8  C   UNL     1      -0.614  -0.822  -8.127  0.00  0.00    +0.220 A 
ATOM      9  N   UNL     1       0.635  -1.326  -7.798  0.00  0.00    -0.283 N 
ATOM     36  H   UNL     1       1.468  -0.938  -8.241  0.00  0.00    +0.155 HD
ATOM     37  N   UNL     1      -0.675   0.189  -9.019  0.00  0.00    -0.214 NA
BRANCH   4   3
ATOM      1  C   UNL     1      -2.116   4.282 -11.067  0.00  0.00    +0.020 A 
ATOM      2  C   UNL     1      -2.201   3.239 -10.071  0.00  0.00    +0.013 A 
ATOM      3  C   UNL     1      -1.806   1.872 -10.387  0.00  0.00    +0.019 A 
ATOM     38  C   UNL     1      -1.324   1.592 -11.731  0.00  0.00    +0.120 A 
ATOM     39  N   UNL     1      -1.255   2.616 -12.671  0.00  0.00    -0.263 NA
ATOM     40  C   UNL     1      -1.634   3.934 -12.378  0.00  0.00    +0.111 A 
ENDBRANCH   4   3
ENDBRANCH  10   9
BRANCH  12  13
ATOM     13  N   UNL     1       0.825  -6.199  -6.810  0.00  0.00    -0.281 N 
ATOM     14  C   UNL     1       1.833  -7.142  -6.693  0.00  0.00    +0.248 C 
ATOM     30  O   UNL     1       2.993  -6.882  -6.410  0.00  0.00    -0.270 OA
ATOM     31  H   UNL     1      -0.043  -6.521  -7.238  0.00  0.00    +0.155 HD
BRANCH  14  15
ATOM     15  C   UNL     1       1.508  -8.580  -6.938  0.00  0.00    +0.037 A 
ATOM     16  C   UNL     1       1.532  -9.144  -8.290  0.00  0.00    +0.013 A 
ATOM     17  C   UNL     1       1.198 -10.530  -8.501  0.00  0.00    +0.005 A 
ATOM     18  C   UNL     1       0.839 -11.363  -7.356  0.00  0.00    -0.033 A 
ATOM     28  C   UNL     1       0.829 -10.779  -6.025  0.00  0.00    +0.005 A 
ATOM     29  C   UNL     1       1.154  -9.420  -5.814  0.00  0.00    +0.013 A 
BRANCH  18  19
ATOM     19  C   UNL     1       0.448 -12.847  -7.490  0.00  0.00    +0.119 C 
BRANCH  19  20
ATOM     20  N   UNL     1       1.238 -13.836  -6.698  0.00  0.00    -0.302 NA
ATOM     21  C   UNL     1       1.773 -14.975  -7.571  0.00  0.00    +0.066 C 
ATOM     22  C   UNL     1       2.616 -15.988  -6.731  0.00  0.00    -0.064 C 
ATOM     23  N   UNL     1       1.758 -16.538  -5.591  0.00  0.00    +0.379 N 
ATOM     24  C   UNL     1       2.529 -17.535  -4.833  0.00  0.00    -0.096 C 
ATOM     25  H   UNL     1       0.884 -17.061  -6.046  0.00  0.00    -0.082 HD
ATOM     26  C   UNL     1       1.219 -15.413  -4.719  0.00  0.00    -0.064 C 
ATOM     27  C   UNL     1       0.408 -14.395  -5.569  0.00  0.00    +0.066 C 
ENDBRANCH  19  20
ENDBRANCH  18  19
ENDBRANCH  14  15
ENDBRANCH  12  13
TORSDOF 6
ENDMDL
MODEL 5
REMARK VINA RESULT:      -7.4      7.439      9.792
REMARK  Name = C:\Users\Docking\Desktop\test protocol\1iep_ligandH.pdb
REMARK  8 active torsions:
REMARK  status: ('A' for Active; 'I' for Inactive)
REMARK    1  A    between atoms: _5  and  _11
REMARK    2  A    between atoms: _19  and  _21
REMARK    3  A    between atoms: _22  and  _66
REMARK    4  A    between atoms: _27  and  _30
REMARK    5  A    between atoms: _32  and  _33
REMARK    6  A    between atoms: _38  and  _43
REMARK    7  A    between atoms: _43  and  _46
REMARK    8  A    between atoms: _53  and  _55
REMARK                            x       y       z     vdW  Elec       q    Type
REMARK                         _______ _______ _______ _____ _____    ______ ____
ROOT
ATOM     10  C   UNL     1     -20.855   3.971   8.864  0.00  0.00    +0.038 A 
ATOM     11  C   UNL     1     -19.796   4.432   9.687  0.00  0.00    +0.047 A 
ATOM     12  C   UNL     1     -20.038   4.862  11.055  0.00  0.00    +0.035 A 
ATOM     32  C   UNL     1     -21.372   4.807  11.554  0.00  0.00    +0.024 A 
ATOM     33  C   UNL     1     -22.461   4.342  10.732  0.00  0.00    +0.007 A 
ATOM     34  C   UNL     1     -22.228   3.919   9.380  0.00  0.00    -0.029 A 
ATOM     35  C   UNL     1     -23.435   3.436   8.542  0.00  0.00    +0.045 C 
ENDROOT
BRANCH  10   9
ATOM      4  C   UNL     1     -19.857   4.924   4.267  0.00  0.00    +0.077 A 
ATOM      5  C   UNL     1     -19.946   6.340   4.480  0.00  0.00    +0.048 A 
ATOM      6  C   UNL     1     -20.258   6.781   5.785  0.00  0.00    +0.116 A 
ATOM      7  N   UNL     1     -20.463   5.866   6.795  0.00  0.00    -0.223 NA
ATOM      8  C   UNL     1     -20.371   4.508   6.556  0.00  0.00    +0.220 A 
ATOM      9  N   UNL     1     -20.566   3.570   7.558  0.00  0.00    -0.283 N 
ATOM     36  H   UNL     1     -20.496   2.576   7.339  0.00  0.00    +0.155 HD
ATOM     37  N   UNL     1     -20.076   4.060   5.317  0.00  0.00    -0.214 NA
BRANCH   4   3
ATOM      1  C   UNL     1     -18.205   4.166   0.803  0.00  0.00    +0.020 A 
ATOM      2  C   UNL     1     -18.479   4.804   2.071  0.00  0.00    +0.013 A 
ATOM      3  C   UNL     1     -19.532   4.302   2.944  0.00  0.00    +0.019 A 
ATOM     38  C   UNL     1     -20.296   3.145   2.503  0.00  0.00    +0.120 A 
ATOM     39  N   UNL     1     -20.011   2.553   1.276  0.00  0.00    -0.263 NA
ATOM     40  C   UNL     1     -19.001   3.028   0.426  0.00  0.00    +0.111 A 
ENDBRANCH   4   3
ENDBRANCH  10   9
BRANCH  12  13
ATOM     13  N   UNL     1     -19.003   5.347  11.935  0.00  0.00    -0.281 N 
ATOM     14  C   UNL     1     -18.794   6.646  12.368  0.00  0.00    +0.248 C 
ATOM     30  O   UNL     1     -19.340   7.630  11.892  0.00  0.00    -0.270 OA
ATOM     31  H   UNL     1     -18.346   4.647  12.280  0.00  0.00    +0.155 HD
BRANCH  14  15
ATOM     15  C   UNL     1     -17.826   6.888  13.481  0.00  0.00    +0.037 A 
ATOM     16  C   UNL     1     -17.516   8.246  13.936  0.00  0.00    +0.013 A 
ATOM     17  C   UNL     1     -16.566   8.453  15.000  0.00  0.00    +0.005 A 
ATOM     18  C   UNL     1     -15.921   7.297  15.619  0.00  0.00    -0.033 A 
ATOM     28  C   UNL     1     -16.252   5.961  15.152  0.00  0.00    +0.005 A 
ATOM     29  C   UNL     1     -17.181   5.754  14.108  0.00  0.00    +0.013 A 
BRANCH  18  19
ATOM     19  C   UNL     1     -14.880   7.425  16.747  0.00  0.00    +0.119 C 
BRANCH  19  20
ATOM     20  N   UNL     1     -13.440   7.333  16.362  0.00  0.00    -0.302 NA
ATOM     21  C   UNL     1     -13.007   8.506  15.477  0.00  0.00    +0.066 C 
ATOM     22  C   UNL     1     -11.492   8.406  15.102  0.00  0.00    -0.064 C 
ATOM     23  N   UNL     1     -11.230   7.073  14.400  0.00  0.00    +0.379 N 
ATOM     24  C   UNL     1      -9.819   7.001  13.995  0.00  0.00    -0.096 C 
ATOM     25  H   UNL     1     -11.850   7.051  13.474  0.00  0.00    -0.082 HD
ATOM     26  C   UNL     1     -11.661   5.901  15.272  0.00  0.00    -0.064 C 
ATOM     27  C   UNL     1     -13.160   6.026  15.663  0.00  0.00    +0.066 C 
ENDBRANCH  19  20
ENDBRANCH  18  19
ENDBRANCH  14  15
ENDBRANCH  12  13
TORSDOF 6
ENDMDL
