MODEL 1
REMARK VINA RESULT:      -7.5      0.000      0.000
REMARK  Name = C:\Users\Docking\Desktop\test protocol\1iep_ligandH.pdb
REMARK  8 active torsions:
REMARK  status: ('A' for Active; 'I' for Inactive)
REMARK    1  A    between atoms: _5  and  _11
REMARK    2  A    between atoms: _19  and  _21
REMARK    3  A    between atoms: _22  and  _66
REMARK    4  A    between atoms: _27  and  _30
REMARK    5  A    between atoms: _32  and  _33
REMARK    6  A    between atoms: _38  and  _43
REMARK    7  A    between atoms: _43  and  _46
REMARK    8  A    between atoms: _53  and  _55
REMARK                            x       y       z     vdW  Elec       q    Type
REMARK                         _______ _______ _______ _____ _____    ______ ____
ROOT
ATOM     10  C   UNL     1     -21.357   1.798  -0.059  0.00  0.00    +0.038 A 
ATOM     11  C   UNL     1     -20.621   3.008  -0.125  0.00  0.00    +0.047 A 
ATOM     12  C   UNL     1     -20.195   3.697   1.083  0.00  0.00    +0.035 A 
ATOM     32  C   UNL     1     -20.534   3.122   2.343  0.00  0.00    +0.024 A 
ATOM     33  C   UNL     1     -21.283   1.893   2.428  0.00  0.00    +0.007 A 
ATOM     34  C   UNL     1     -21.708   1.211   1.240  0.00  0.00    -0.029 A 
ATOM     35  C   UNL     1     -22.514  -0.100   1.391  0.00  0.00    +0.045 C 
ENDROOT
BRANCH  10   9
ATOM      4  C   UNL     1     -20.366  -0.653  -4.066  0.00  0.00    +0.077 A 
ATOM      5  C   UNL     1     -18.962  -0.679  -3.772  0.00  0.00    +0.048 A 
ATOM      6  C   UNL     1     -18.535  -0.045  -2.584  0.00  0.00    +0.116 A 
ATOM      7  N   UNL     1     -19.453   0.567  -1.758  0.00  0.00    -0.223 NA
ATOM      8  C   UNL     1     -20.799   0.576  -2.072  0.00  0.00    +0.220 A 
ATOM      9  N   UNL     1     -21.741   1.179  -1.251  0.00  0.00    -0.283 N 
ATOM     36  H   UNL     1     -22.724   1.171  -1.521  0.00  0.00    +0.155 HD
ATOM     37  N   UNL     1     -21.232  -0.021  -3.201  0.00  0.00    -0.214 NA
BRANCH   4   3
ATOM      1  C   UNL     1     -20.834  -2.210  -7.623  0.00  0.00    +0.020 A 
ATOM      2  C   UNL     1     -20.200  -1.602  -6.476  0.00  0.00    +0.013 A 
ATOM      3  C   UNL     1     -20.972  -1.282  -5.281  0.00  0.00    +0.019 A 
ATOM     38  C   UNL     1     -22.393  -1.594  -5.280  0.00  0.00    +0.120 A 
ATOM     39  N   UNL     1     -22.976  -2.178  -6.400  0.00  0.00    -0.263 NA
ATOM     40  C   UNL     1     -22.244  -2.488  -7.556  0.00  0.00    +0.111 A 
ENDBRANCH   4   3
ENDBRANCH  10   9
BRANCH  12  13
ATOM     13  N   UNL     1     -19.452   4.933   1.079  0.00  0.00    -0.281 N 
ATOM     14  C   UNL     1     -18.100   5.113   0.837  0.00  0.00    +0.248 C 
ATOM     30  O   UNL     1     -17.279   4.209   0.799  0.00  0.00    -0.270 OA
ATOM     31  H   UNL     1     -19.989   5.777   1.278  0.00  0.00    +0.155 HD
BRANCH  14  15
ATOM     15  C   UNL     1     -17.584   6.499   0.622  0.00  0.00    +0.037 A 
ATOM     16  C   UNL     1     -16.222   6.735   0.135  0.00  0.00    +0.013 A 
ATOM     17  C   UNL     1     -15.743   8.082  -0.048  0.00  0.00    +0.005 A 
ATOM     18  C   UNL     1     -16.628   9.204   0.256  0.00  0.00    -0.033 A 
ATOM     28  C   UNL     1     -17.976   8.941   0.733  0.00  0.00    +0.005 A 
ATOM     29  C   UNL     1     -18.448   7.622   0.914  0.00  0.00    +0.013 A 
BRANCH  18  19
ATOM     19  C   UNL     1     -16.194  10.675   0.110  0.00  0.00    +0.119 C 
BRANCH  19  20
ATOM     20  N   UNL     1     -15.899  11.428   1.365  0.00  0.00    -0.302 NA
ATOM     21  C   UNL     1     -15.504  12.881   1.085  0.00  0.00    +0.066 C 
ATOM     22  C   UNL     1     -15.220  13.660   2.410  0.00  0.00    -0.064 C 
ATOM     23  N   UNL     1     -14.121  12.942   3.195  0.00  0.00    +0.379 N 
ATOM     24  C   UNL     1     -13.811  13.704   4.414  0.00  0.00    -0.096 C 
ATOM     25  H   UNL     1     -13.204  12.931   2.561  0.00  0.00    -0.082 HD
ATOM     26  C   UNL     1     -14.504  11.496   3.476  0.00  0.00    -0.064 C 
ATOM     27  C   UNL     1     -14.813  10.739   2.155  0.00  0.00    +0.066 C 
ENDBRANCH  19  20
ENDBRANCH  18  19
ENDBRANCH  14  15
ENDBRANCH  12  13
TORSDOF 6
ENDMDL
MODEL 2
REMARK VINA RESULT:      -7.4     23.143     24.689
REMARK  Name = C:\Users\Docking\Desktop\test protocol\1iep_ligandH.pdb
REMARK  8 active torsions:
REMARK  status: ('A' for Active; 'I' for Inactive)
REMARK    1  A    between atoms: _5  and  _11
REMARK    2  A    between atoms: _19  and  _21
REMARK    3  A    between atoms: _22  and  _66
REMARK    4  A    between atoms: _27  and  _30
REMARK    5  A    between atoms: _32  and  _33
REMARK    6  A    between atoms: _38  and  _43
REMARK    7  A    between atoms: _43  and  _46
REMARK    8  A    between atoms: _53  and  _55
REMARK                            x       y       z     vdW  Elec       q    Type
REMARK                         _______ _______ _______ _____ _____    ______ ____
ROOT
ATOM     10  C   UNL     1       1.572  -1.738  -4.950  0.00  0.00    +0.038 A 
ATOM     11  C   UNL     1       2.895  -1.277  -4.730  0.00  0.00    +0.047 A 
ATOM     12  C   UNL     1       3.198   0.144  -4.677  0.00  0.00    +0.035 A 
ATOM     32  C   UNL     1       2.128   1.070  -4.849  0.00  0.00    +0.024 A 
ATOM     33  C   UNL     1       0.777   0.620  -5.075  0.00  0.00    +0.007 A 
ATOM     34  C   UNL     1       0.472  -0.782  -5.130  0.00  0.00    -0.029 A 
ATOM     35  C   UNL     1      -0.993  -1.207  -5.381  0.00  0.00    +0.045 C 
ENDROOT
BRANCH  10   9
ATOM      4  C   UNL     1       1.202  -5.899  -7.313  0.00  0.00    +0.077 A 
ATOM      5  C   UNL     1       1.472  -5.274  -8.576  0.00  0.00    +0.048 A 
ATOM      6  C   UNL     1       1.693  -3.878  -8.575  0.00  0.00    +0.116 A 
ATOM      7  N   UNL     1       1.646  -3.171  -7.393  0.00  0.00    -0.223 NA
ATOM      8  C   UNL     1       1.382  -3.804  -6.193  0.00  0.00    +0.220 A 
ATOM      9  N   UNL     1       1.337  -3.114  -4.992  0.00  0.00    -0.283 N 
ATOM     36  H   UNL     1       1.132  -3.617  -4.128  0.00  0.00    +0.155 HD
ATOM     37  N   UNL     1       1.165  -5.136  -6.168  0.00  0.00    -0.214 NA
BRANCH   4   3
ATOM      1  C   UNL     1       0.902  -9.735  -8.015  0.00  0.00    +0.020 A 
ATOM      2  C   UNL     1       1.159  -8.329  -8.224  0.00  0.00    +0.013 A 
ATOM      3  C   UNL     1       0.950  -7.366  -7.151  0.00  0.00    +0.019 A 
ATOM     38  C   UNL     1       0.477  -7.862  -5.867  0.00  0.00    +0.120 A 
ATOM     39  N   UNL     1       0.237  -9.222  -5.695  0.00  0.00    -0.263 NA
ATOM     40  C   UNL     1       0.432 -10.158  -6.722  0.00  0.00    +0.111 A 
ENDBRANCH   4   3
ENDBRANCH  10   9
BRANCH  12  13
ATOM     13  N   UNL     1       4.524   0.671  -4.465  0.00  0.00    -0.281 N 
ATOM     14  C   UNL     1       5.347   1.300  -5.385  0.00  0.00    +0.248 C 
ATOM     30  O   UNL     1       5.151   1.316  -6.591  0.00  0.00    -0.270 OA
ATOM     31  H   UNL     1       4.901   0.567  -3.523  0.00  0.00    +0.155 HD
BRANCH  14  15
ATOM     15  C   UNL     1       6.572   2.002  -4.895  0.00  0.00    +0.037 A 
ATOM     16  C   UNL     1       6.579   3.448  -4.663  0.00  0.00    +0.013 A 
ATOM     17  C   UNL     1       7.779   4.103  -4.207  0.00  0.00    +0.005 A 
ATOM     18  C   UNL     1       8.984   3.309  -3.977  0.00  0.00    -0.033 A 
ATOM     28  C   UNL     1       8.949   1.875  -4.210  0.00  0.00    +0.005 A 
ATOM     29  C   UNL     1       7.774   1.230  -4.658  0.00  0.00    +0.013 A 
BRANCH  18  19
ATOM     19  C   UNL     1      10.316   3.927  -3.511  0.00  0.00    +0.119 C 
BRANCH  19  20
ATOM     20  N   UNL     1      10.388   4.411  -2.100  0.00  0.00    -0.302 NA
ATOM     21  C   UNL     1      11.259   5.663  -1.966  0.00  0.00    +0.066 C 
ATOM     22  C   UNL     1      11.305   6.169  -0.487  0.00  0.00    -0.064 C 
ATOM     23  N   UNL     1      11.823   5.049   0.416  0.00  0.00    +0.379 N 
ATOM     24  C   UNL     1      11.923   5.540   1.799  0.00  0.00    -0.096 C 
ATOM     25  H   UNL     1      12.852   4.789   0.075  0.00  0.00    -0.082 HD
ATOM     26  C   UNL     1      10.964   3.799   0.287  0.00  0.00    -0.064 C 
ATOM     27  C   UNL     1      10.901   3.322  -1.190  0.00  0.00    +0.066 C 
ENDBRANCH  19  20
ENDBRANCH  18  19
ENDBRANCH  14  15
ENDBRANCH  12  13
TORSDOF 6
ENDMDL
MODEL 3
REMARK VINA RESULT:      -7.3      9.709     12.165
REMARK  Name = C:\Users\Docking\Desktop\test protocol\1iep_ligandH.pdb
REMARK  8 active torsions:
REMARK  status: ('A' for Active; 'I' for Inactive)
REMARK    1  A    between atoms: _5  and  _11
REMARK    2  A    between atoms: _19  and  _21
REMARK    3  A    between atoms: _22  and  _66
REMARK    4  A    between atoms: _27  and  _30
REMARK    5  A    between atoms: _32  and  _33
REMARK    6  A    between atoms: _38  and  _43
REMARK    7  A    between atoms: _43  and  _46
REMARK    8  A    between atoms: _53  and  _55
REMARK                            x       y       z     vdW  Elec       q    Type
REMARK                         _______ _______ _______ _____ _____    ______ ____
ROOT
ATOM     10  C   UNL     1     -20.964   3.796   8.623  0.00  0.00    +0.038 A 
ATOM     11  C   UNL     1     -19.944   4.347   9.439  0.00  0.00    +0.047 A 
ATOM     12  C   UNL     1     -20.162   4.586  10.857  0.00  0.00    +0.035 A 
ATOM     32  C   UNL     1     -21.432   4.250  11.412  0.00  0.00    +0.024 A 
ATOM     33  C   UNL     1     -22.481   3.690  10.596  0.00  0.00    +0.007 A 
ATOM     34  C   UNL     1     -22.272   3.454   9.196  0.00  0.00    -0.029 A 
ATOM     35  C   UNL     1     -23.434   2.858   8.368  0.00  0.00    +0.045 C 
ENDROOT
BRANCH  10   9
ATOM      4  C   UNL     1     -20.156   5.400   4.172  0.00  0.00    +0.077 A 
ATOM      5  C   UNL     1     -20.298   6.769   4.576  0.00  0.00    +0.048 A 
ATOM      6  C   UNL     1     -20.586   7.017   5.937  0.00  0.00    +0.116 A 
ATOM      7  N   UNL     1     -20.719   5.967   6.819  0.00  0.00    -0.223 NA
ATOM      8  C   UNL     1     -20.578   4.658   6.396  0.00  0.00    +0.220 A 
ATOM      9  N   UNL     1     -20.700   3.587   7.267  0.00  0.00    -0.283 N 
ATOM     36  H   UNL     1     -20.596   2.636   6.915  0.00  0.00    +0.155 HD
ATOM     37  N   UNL     1     -20.304   4.395   5.101  0.00  0.00    -0.214 NA
BRANCH   4   3
ATOM      1  C   UNL     1     -18.813   5.345   0.498  0.00  0.00    +0.020 A 
ATOM      2  C   UNL     1     -19.082   5.801   1.843  0.00  0.00    +0.013 A 
ATOM      3  C   UNL     1     -19.848   4.976   2.769  0.00  0.00    +0.019 A 
ATOM     38  C   UNL     1     -20.329   3.685   2.301  0.00  0.00    +0.120 A 
ATOM     39  N   UNL     1     -20.055   3.273   1.000  0.00  0.00    -0.263 NA
ATOM     40  C   UNL     1     -19.321   4.059   0.099  0.00  0.00    +0.111 A 
ENDBRANCH   4   3
ENDBRANCH  10   9
BRANCH  12  13
ATOM     13  N   UNL     1     -19.167   5.150  11.734  0.00  0.00    -0.281 N 
ATOM     14  C   UNL     1     -19.121   6.432  12.258  0.00  0.00    +0.248 C 
ATOM     30  O   UNL     1     -19.821   7.359  11.879  0.00  0.00    -0.270 OA
ATOM     31  H   UNL     1     -18.402   4.530  12.001  0.00  0.00    +0.155 HD
BRANCH  14  15
ATOM     15  C   UNL     1     -18.147   6.731  13.352  0.00  0.00    +0.037 A 
ATOM     16  C   UNL     1     -17.933   8.101  13.825  0.00  0.00    +0.013 A 
ATOM     17  C   UNL     1     -16.975   8.363  14.870  0.00  0.00    +0.005 A 
ATOM     18  C   UNL     1     -16.225   7.252  15.450  0.00  0.00    -0.033 A 
ATOM     28  C   UNL     1     -16.461   5.902  14.965  0.00  0.00    +0.005 A 
ATOM     29  C   UNL     1     -17.398   5.641  13.940  0.00  0.00    +0.013 A 
BRANCH  18  19
ATOM     19  C   UNL     1     -15.168   7.442  16.554  0.00  0.00    +0.119 C 
BRANCH  19  20
ATOM     20  N   UNL     1     -13.819   6.847  16.318  0.00  0.00    -0.302 NA
ATOM     21  C   UNL     1     -13.182   6.336  17.614  0.00  0.00    +0.066 C 
ATOM     22  C   UNL     1     -11.781   5.696  17.346  0.00  0.00    -0.064 C 
ATOM     23  N   UNL     1     -10.875   6.725  16.666  0.00  0.00    +0.379 N 
ATOM     24  C   UNL     1      -9.539   6.145  16.465  0.00  0.00    -0.096 C 
ATOM     25  H   UNL     1     -10.768   7.591  17.359  0.00  0.00    -0.082 HD
ATOM     26  C   UNL     1     -11.502   7.239  15.378  0.00  0.00    -0.064 C 
ATOM     27  C   UNL     1     -12.907   7.847  15.651  0.00  0.00    +0.066 C 
ENDBRANCH  19  20
ENDBRANCH  18  19
ENDBRANCH  14  15
ENDBRANCH  12  13
TORSDOF 6
ENDMDL
MODEL 4
REMARK VINA RESULT:      -7.2     12.603     19.192
REMARK  Name = C:\Users\Docking\Desktop\test protocol\1iep_ligandH.pdb
REMARK  8 active torsions:
REMARK  status: ('A' for Active; 'I' for Inactive)
REMARK    1  A    between atoms: _5  and  _11
REMARK    2  A    between atoms: _19  and  _21
REMARK    3  A    between atoms: _22  and  _66
REMARK    4  A    between atoms: _27  and  _30
REMARK    5  A    between atoms: _32  and  _33
REMARK    6  A    between atoms: _38  and  _43
REMARK    7  A    between atoms: _43  and  _46
REMARK    8  A    between atoms: _53  and  _55
REMARK                            x       y       z     vdW  Elec       q    Type
REMARK                         _______ _______ _______ _____ _____    ______ ____
ROOT
ATOM     10  C   UNL     1     -11.462   5.266  15.919  0.00  0.00    +0.038 A 
ATOM     11  C   UNL     1     -12.667   5.534  15.221  0.00  0.00    +0.047 A 
ATOM     12  C   UNL     1     -13.930   4.954  15.650  0.00  0.00    +0.035 A 
ATOM     32  C   UNL     1     -13.930   4.108  16.797  0.00  0.00    +0.024 A 
ATOM     33  C   UNL     1     -12.714   3.824  17.518  0.00  0.00    +0.007 A 
ATOM     34  C   UNL     1     -11.465   4.392  17.098  0.00  0.00    -0.029 A 
ATOM     35  C   UNL     1     -10.192   4.048  17.906  0.00  0.00    +0.045 C 
ENDROOT
BRANCH  10   9
ATOM      4  C   UNL     1      -8.417   8.962  15.593  0.00  0.00    +0.077 A 
ATOM      5  C   UNL     1      -9.270   9.811  16.374  0.00  0.00    +0.048 A 
ATOM      6  C   UNL     1     -10.487   9.260  16.835  0.00  0.00    +0.116 A 
ATOM      7  N   UNL     1     -10.816   7.956  16.531  0.00  0.00    -0.223 NA
ATOM      8  C   UNL     1      -9.971   7.166  15.774  0.00  0.00    +0.220 A 
ATOM      9  N   UNL     1     -10.278   5.850  15.464  0.00  0.00    -0.283 N 
ATOM     36  H   UNL     1      -9.632   5.302  14.896  0.00  0.00    +0.155 HD
ATOM     37  N   UNL     1      -8.804   7.669  15.321  0.00  0.00    -0.214 NA
BRANCH   4   3
ATOM      1  C   UNL     1      -5.335  11.141  14.566  0.00  0.00    +0.020 A 
ATOM      2  C   UNL     1      -6.618  10.772  15.118  0.00  0.00    +0.013 A 
ATOM      3  C   UNL     1      -7.097   9.398  15.037  0.00  0.00    +0.019 A 
ATOM     38  C   UNL     1      -6.246   8.413  14.385  0.00  0.00    +0.120 A 
ATOM     39  N   UNL     1      -5.016   8.798  13.861  0.00  0.00    -0.263 NA
ATOM     40  C   UNL     1      -4.546  10.118  13.932  0.00  0.00    +0.111 A 
ENDBRANCH   4   3
ENDBRANCH  10   9
BRANCH  12  13
ATOM     13  N   UNL     1     -15.184   5.183  14.976  0.00  0.00    -0.281 N 
ATOM     14  C   UNL     1     -16.091   6.208  15.189  0.00  0.00    +0.248 C 
ATOM     30  O   UNL     1     -16.062   6.969  16.145  0.00  0.00    -0.270 OA
ATOM     31  H   UNL     1     -15.434   4.506  14.254  0.00  0.00    +0.155 HD
BRANCH  14  15
ATOM     15  C   UNL     1     -17.198   6.409  14.205  0.00  0.00    +0.037 A 
ATOM     16  C   UNL     1     -17.803   7.727  14.000  0.00  0.00    +0.013 A 
ATOM     17  C   UNL     1     -18.881   7.890  13.057  0.00  0.00    +0.005 A 
ATOM     18  C   UNL     1     -19.361   6.729  12.311  0.00  0.00    -0.033 A 
ATOM     28  C   UNL     1     -18.739   5.434  12.530  0.00  0.00    +0.005 A 
ATOM     29  C   UNL     1     -17.683   5.270  13.454  0.00  0.00    +0.013 A 
BRANCH  18  19
ATOM     19  C   UNL     1     -20.521   6.806  11.300  0.00  0.00    +0.119 C 
BRANCH  19  20
ATOM     20  N   UNL     1     -20.261   6.294   9.921  0.00  0.00    -0.302 NA
ATOM     21  C   UNL     1     -20.528   7.359   8.854  0.00  0.00    +0.066 C 
ATOM     22  C   UNL     1     -20.229   6.814   7.419  0.00  0.00    -0.064 C 
ATOM     23  N   UNL     1     -21.077   5.567   7.164  0.00  0.00    +0.379 N 
ATOM     24  C   UNL     1     -20.842   5.086   5.795  0.00  0.00    -0.096 C 
ATOM     25  H   UNL     1     -22.149   5.866   7.238  0.00  0.00    -0.082 HD
ATOM     26  C   UNL     1     -20.820   4.504   8.222  0.00  0.00    -0.064 C 
ATOM     27  C   UNL     1     -21.092   5.065   9.646  0.00  0.00    +0.066 C 
ENDBRANCH  19  20
ENDBRANCH  18  19
ENDBRANCH  14  15
ENDBRANCH  12  13
TORSDOF 6
ENDMDL
MODEL 5
REMARK VINA RESULT:      -7.1     21.553     25.240
REMARK  Name = C:\Users\Docking\Desktop\test protocol\1iep_ligandH.pdb
REMARK  8 active torsions:
REMARK  status: ('A' for Active; 'I' for Inactive)
REMARK    1  A    between atoms: _5  and  _11
REMARK    2  A    between atoms: _19  and  _21
REMARK    3  A    between atoms: _22  and  _66
REMARK    4  A    between atoms: _27  and  _30
REMARK    5  A    between atoms: _32  and  _33
REMARK    6  A    between atoms: _38  and  _43
REMARK    7  A    between atoms: _43  and  _46
REMARK    8  A    between atoms: _53  and  _55
REMARK                            x       y       z     vdW  Elec       q    Type
REMARK                         _______ _______ _______ _____ _____    ______ ____
ROOT
ATOM     10  C   UNL     1      -6.272  -6.108  15.257  0.00  0.00    +0.038 A 
ATOM     11  C   UNL     1      -7.282  -6.887  14.635  0.00  0.00    +0.047 A 
ATOM     12  C   UNL     1      -8.691  -6.573  14.815  0.00  0.00    +0.035 A 
ATOM     32  C   UNL     1      -9.036  -5.458  15.632  0.00  0.00    +0.024 A 
ATOM     33  C   UNL     1      -8.023  -4.656  16.272  0.00  0.00    +0.007 A 
ATOM     34  C   UNL     1      -6.632  -4.962  16.100  0.00  0.00    -0.029 A 
ATOM     35  C   UNL     1      -5.589  -4.072  16.816  0.00  0.00    +0.045 C 
ENDROOT
BRANCH  10   9
ATOM      4  C   UNL     1      -2.289  -8.508  16.443  0.00  0.00    +0.077 A 
ATOM      5  C   UNL     1      -2.918  -9.104  17.587  0.00  0.00    +0.048 A 
ATOM      6  C   UNL     1      -4.265  -8.761  17.839  0.00  0.00    +0.116 A 
ATOM      7  N   UNL     1      -4.925  -7.887  17.003  0.00  0.00    -0.223 NA
ATOM      8  C   UNL     1      -4.288  -7.329  15.909  0.00  0.00    +0.220 A 
ATOM      9  N   UNL     1      -4.935  -6.453  15.050  0.00  0.00    -0.283 N 
ATOM     36  H   UNL     1      -4.428  -6.057  14.259  0.00  0.00    +0.155 HD
ATOM     37  N   UNL     1      -3.002  -7.639  15.648  0.00  0.00    -0.214 NA
BRANCH   4   3
ATOM      1  C   UNL     1       0.872  -9.795  14.532  0.00  0.00    +0.020 A 
ATOM      2  C   UNL     1      -0.513  -9.568  14.874  0.00  0.00    +0.013 A 
ATOM      3  C   UNL     1      -0.871  -8.775  16.044  0.00  0.00    +0.019 A 
ATOM     38  C   UNL     1       0.205  -8.220  16.851  0.00  0.00    +0.120 A 
ATOM     39  N   UNL     1       1.530  -8.457  16.497  0.00  0.00    -0.263 NA
ATOM     40  C   UNL     1       1.886  -9.220  15.375  0.00  0.00    +0.111 A 
ENDBRANCH   4   3
ENDBRANCH  10   9
BRANCH  12  13
ATOM     13  N   UNL     1      -9.760  -7.333  14.216  0.00  0.00    -0.281 N 
ATOM     14  C   UNL     1     -10.643  -8.199  14.840  0.00  0.00    +0.248 C 
ATOM     30  O   UNL     1     -10.510  -8.618  15.980  0.00  0.00    -0.270 OA
ATOM     31  H   UNL     1      -9.881  -7.218  13.209  0.00  0.00    +0.155 HD
BRANCH  14  15
ATOM     15  C   UNL     1     -11.838  -8.681  14.083  0.00  0.00    +0.037 A 
ATOM     16  C   UNL     1     -12.534  -9.913  14.465  0.00  0.00    +0.013 A 
ATOM     17  C   UNL     1     -13.674 -10.364  13.707  0.00  0.00    +0.005 A 
ATOM     18  C   UNL     1     -14.127  -9.581  12.560  0.00  0.00    -0.033 A 
ATOM     28  C   UNL     1     -13.422  -8.360  12.206  0.00  0.00    +0.005 A 
ATOM     29  C   UNL     1     -12.303  -7.916  12.946  0.00  0.00    +0.013 A 
BRANCH  18  19
ATOM     19  C   UNL     1     -15.322  -9.999  11.682  0.00  0.00    +0.119 C 
BRANCH  19  20
ATOM     20  N   UNL     1     -16.670 -10.016  12.325  0.00  0.00    -0.302 NA
ATOM     21  C   UNL     1     -17.219 -11.438  12.469  0.00  0.00    +0.066 C 
ATOM     22  C   UNL     1     -18.620 -11.439  13.163  0.00  0.00    -0.064 C 
ATOM     23  N   UNL     1     -19.585 -10.564  12.361  0.00  0.00    +0.379 N 
ATOM     24  C   UNL     1     -20.918 -10.610  12.979  0.00  0.00    -0.096 C 
ATOM     25  H   UNL     1     -19.670 -11.004  11.340  0.00  0.00    -0.082 HD
ATOM     26  C   UNL     1     -19.045  -9.149  12.211  0.00  0.00    -0.064 C 
ATOM     27  C   UNL     1     -17.640  -9.161  11.546  0.00  0.00    +0.066 C 
ENDBRANCH  19  20
ENDBRANCH  18  19
ENDBRANCH  14  15
ENDBRANCH  12  13
TORSDOF 6
ENDMDL
