MODEL 1
REMARK VINA RESULT:      -8.1      0.000      0.000
REMARK  Name = C:\Users\Docking\Desktop\test protocol\1iep_ligandH.pdb
REMARK  8 active torsions:
REMARK  status: ('A' for Active; 'I' for Inactive)
REMARK    1  A    between atoms: _5  and  _11
REMARK    2  A    between atoms: _19  and  _21
REMARK    3  A    between atoms: _22  and  _66
REMARK    4  A    between atoms: _27  and  _30
REMARK    5  A    between atoms: _32  and  _33
REMARK    6  A    between atoms: _38  and  _43
REMARK    7  A    between atoms: _43  and  _46
REMARK    8  A    between atoms: _53  and  _55
REMARK                            x       y       z     vdW  Elec       q    Type
REMARK                         _______ _______ _______ _____ _____    ______ ____
ROOT
ATOM     10  C   UNL     1      67.399 -13.252  43.915  0.00  0.00    +0.038 A 
ATOM     11  C   UNL     1      66.343 -12.312  43.806  0.00  0.00    +0.047 A 
ATOM     12  C   UNL     1      66.043 -11.388  44.889  0.00  0.00    +0.035 A 
ATOM     32  C   UNL     1      66.840 -11.449  46.069  0.00  0.00    +0.024 A 
ATOM     33  C   UNL     1      67.917 -12.399  46.197  0.00  0.00    +0.007 A 
ATOM     34  C   UNL     1      68.216 -13.314  45.133  0.00  0.00    -0.029 A 
ATOM     35  C   UNL     1      69.377 -14.316  45.328  0.00  0.00    +0.045 C 
ENDROOT
BRANCH  10   9
ATOM      4  C   UNL     1      69.637 -14.395  39.826  0.00  0.00    +0.077 A 
ATOM      5  C   UNL     1      70.361 -13.157  39.807  0.00  0.00    +0.048 A 
ATOM      6  C   UNL     1      70.123 -12.250  40.864  0.00  0.00    +0.116 A 
ATOM      7  N   UNL     1      69.227 -12.568  41.861  0.00  0.00    -0.223 NA
ATOM      8  C   UNL     1      68.544 -13.771  41.848  0.00  0.00    +0.220 A 
ATOM      9  N   UNL     1      67.643 -14.115  42.845  0.00  0.00    -0.283 N 
ATOM     36  H   UNL     1      67.154 -15.008  42.795  0.00  0.00    +0.155 HD
ATOM     37  N   UNL     1      68.752 -14.653  40.849  0.00  0.00    -0.214 NA
BRANCH   4   3
ATOM      1  C   UNL     1      69.707 -17.856  38.005  0.00  0.00    +0.020 A 
ATOM      2  C   UNL     1      69.553 -16.871  39.051  0.00  0.00    +0.013 A 
ATOM      3  C   UNL     1      69.782 -15.457  38.781  0.00  0.00    +0.019 A 
ATOM     38  C   UNL     1      70.166 -15.070  37.432  0.00  0.00    +0.120 A 
ATOM     39  N   UNL     1      70.308 -16.042  36.446  0.00  0.00    -0.263 NA
ATOM     40  C   UNL     1      70.092 -17.405  36.694  0.00  0.00    +0.111 A 
ENDBRANCH   4   3
ENDBRANCH  10   9
BRANCH  12  13
ATOM     13  N   UNL     1      64.978 -10.417  44.838  0.00  0.00    -0.281 N 
ATOM     14  C   UNL     1      65.086  -9.039  44.742  0.00  0.00    +0.248 C 
ATOM     30  O   UNL     1      66.124  -8.415  44.900  0.00  0.00    -0.270 OA
ATOM     31  H   UNL     1      64.030 -10.791  44.879  0.00  0.00    +0.155 HD
BRANCH  14  15
ATOM     15  C   UNL     1      63.861  -8.238  44.440  0.00  0.00    +0.037 A 
ATOM     16  C   UNL     1      62.522  -8.821  44.566  0.00  0.00    +0.013 A 
ATOM     17  C   UNL     1      61.357  -8.031  44.252  0.00  0.00    +0.005 A 
ATOM     18  C   UNL     1      61.527  -6.649  43.810  0.00  0.00    -0.033 A 
ATOM     28  C   UNL     1      62.866  -6.095  43.699  0.00  0.00    +0.005 A 
ATOM     29  C   UNL     1      64.010  -6.866  44.005  0.00  0.00    +0.013 A 
BRANCH  18  19
ATOM     19  C   UNL     1      60.342  -5.740  43.434  0.00  0.00    +0.119 C 
BRANCH  19  20
ATOM     20  N   UNL     1      59.926  -4.710  44.432  0.00  0.00    -0.302 NA
ATOM     21  C   UNL     1      60.430  -3.313  44.060  0.00  0.00    +0.066 C 
ATOM     22  C   UNL     1      59.967  -2.245  45.104  0.00  0.00    -0.064 C 
ATOM     23  N   UNL     1      60.461  -2.646  46.494  0.00  0.00    +0.379 N 
ATOM     24  C   UNL     1      60.077  -1.614  47.468  0.00  0.00    -0.096 C 
ATOM     25  H   UNL     1      61.575  -2.681  46.460  0.00  0.00    -0.082 HD
ATOM     26  C   UNL     1      59.967  -4.036  46.871  0.00  0.00    -0.064 C 
ATOM     27  C   UNL     1      60.408  -5.085  45.813  0.00  0.00    +0.066 C 
ENDBRANCH  19  20
ENDBRANCH  18  19
ENDBRANCH  14  15
ENDBRANCH  12  13
TORSDOF 6
ENDMDL
MODEL 2
REMARK VINA RESULT:      -7.5     39.634     43.729
REMARK  Name = C:\Users\Docking\Desktop\test protocol\1iep_ligandH.pdb
REMARK  8 active torsions:
REMARK  status: ('A' for Active; 'I' for Inactive)
REMARK    1  A    between atoms: _5  and  _11
REMARK    2  A    between atoms: _19  and  _21
REMARK    3  A    between atoms: _22  and  _66
REMARK    4  A    between atoms: _27  and  _30
REMARK    5  A    between atoms: _32  and  _33
REMARK    6  A    between atoms: _38  and  _43
REMARK    7  A    between atoms: _43  and  _46
REMARK    8  A    between atoms: _53  and  _55
REMARK                            x       y       z     vdW  Elec       q    Type
REMARK                         _______ _______ _______ _____ _____    ______ ____
ROOT
ATOM     10  C   UNL     1      26.617   9.240  41.873  0.00  0.00    +0.038 A 
ATOM     11  C   UNL     1      27.215  10.075  42.852  0.00  0.00    +0.047 A 
ATOM     12  C   UNL     1      26.406  10.792  43.825  0.00  0.00    +0.035 A 
ATOM     32  C   UNL     1      24.990  10.634  43.775  0.00  0.00    +0.024 A 
ATOM     33  C   UNL     1      24.366   9.791  42.787  0.00  0.00    +0.007 A 
ATOM     34  C   UNL     1      25.158   9.083  41.822  0.00  0.00    -0.029 A 
ATOM     35  C   UNL     1      24.434   8.197  40.781  0.00  0.00    +0.045 C 
ENDROOT
BRANCH  10   9
ATOM      4  C   UNL     1      29.094   9.042  37.767  0.00  0.00    +0.077 A 
ATOM      5  C   UNL     1      28.689  10.366  37.390  0.00  0.00    +0.048 A 
ATOM      6  C   UNL     1      27.838  11.061  38.278  0.00  0.00    +0.116 A 
ATOM      7  N   UNL     1      27.428  10.467  39.452  0.00  0.00    -0.223 NA
ATOM      8  C   UNL     1      27.835   9.188  39.784  0.00  0.00    +0.220 A 
ATOM      9  N   UNL     1      27.441   8.575  40.963  0.00  0.00    -0.283 N 
ATOM     36  H   UNL     1      27.757   7.627  41.169  0.00  0.00    +0.155 HD
ATOM     37  N   UNL     1      28.647   8.503  38.953  0.00  0.00    -0.214 NA
BRANCH   4   3
ATOM      1  C   UNL     1      31.084   5.978  36.371  0.00  0.00    +0.020 A 
ATOM      2  C   UNL     1      30.204   6.764  37.204  0.00  0.00    +0.013 A 
ATOM      3  C   UNL     1      29.994   8.181  36.936  0.00  0.00    +0.019 A 
ATOM     38  C   UNL     1      30.694   8.776  35.808  0.00  0.00    +0.120 A 
ATOM     39  N   UNL     1      31.536   7.995  35.023  0.00  0.00    -0.263 NA
ATOM     40  C   UNL     1      31.748   6.630  35.273  0.00  0.00    +0.111 A 
ENDBRANCH   4   3
ENDBRANCH  10   9
BRANCH  12  13
ATOM     13  N   UNL     1      26.957  11.660  44.836  0.00  0.00    -0.281 N 
ATOM     14  C   UNL     1      27.274  13.004  44.725  0.00  0.00    +0.248 C 
ATOM     30  O   UNL     1      27.331  13.615  43.668  0.00  0.00    -0.270 OA
ATOM     31  H   UNL     1      27.134  11.232  45.745  0.00  0.00    +0.155 HD
BRANCH  14  15
ATOM     15  C   UNL     1      27.586  13.777  45.965  0.00  0.00    +0.037 A 
ATOM     16  C   UNL     1      28.833  14.537  46.093  0.00  0.00    +0.013 A 
ATOM     17  C   UNL     1      29.117  15.261  47.307  0.00  0.00    +0.005 A 
ATOM     18  C   UNL     1      28.151  15.229  48.402  0.00  0.00    -0.033 A 
ATOM     28  C   UNL     1      26.920  14.472  48.247  0.00  0.00    +0.005 A 
ATOM     29  C   UNL     1      26.639  13.761  47.059  0.00  0.00    +0.013 A 
BRANCH  18  19
ATOM     19  C   UNL     1      28.382  15.954  49.741  0.00  0.00    +0.119 C 
BRANCH  19  20
ATOM     20  N   UNL     1      29.078  15.193  50.821  0.00  0.00    -0.302 NA
ATOM     21  C   UNL     1      28.233  15.100  52.095  0.00  0.00    +0.066 C 
ATOM     22  C   UNL     1      28.966  14.280  53.206  0.00  0.00    -0.064 C 
ATOM     23  N   UNL     1      30.322  14.925  53.501  0.00  0.00    +0.379 N 
ATOM     24  C   UNL     1      30.989  14.191  54.586  0.00  0.00    -0.096 C 
ATOM     25  H   UNL     1      30.131  15.963  53.861  0.00  0.00    -0.082 HD
ATOM     26  C   UNL     1      31.167  15.024  52.239  0.00  0.00    -0.064 C 
ATOM     27  C   UNL     1      30.417  15.815  51.131  0.00  0.00    +0.066 C 
ENDBRANCH  19  20
ENDBRANCH  18  19
ENDBRANCH  14  15
ENDBRANCH  12  13
TORSDOF 6
ENDMDL
MODEL 3
REMARK VINA RESULT:      -7.5      2.322     13.024
REMARK  Name = C:\Users\Docking\Desktop\test protocol\1iep_ligandH.pdb
REMARK  8 active torsions:
REMARK  status: ('A' for Active; 'I' for Inactive)
REMARK    1  A    between atoms: _5  and  _11
REMARK    2  A    between atoms: _19  and  _21
REMARK    3  A    between atoms: _22  and  _66
REMARK    4  A    between atoms: _27  and  _30
REMARK    5  A    between atoms: _32  and  _33
REMARK    6  A    between atoms: _38  and  _43
REMARK    7  A    between atoms: _43  and  _46
REMARK    8  A    between atoms: _53  and  _55
REMARK                            x       y       z     vdW  Elec       q    Type
REMARK                         _______ _______ _______ _____ _____    ______ ____
ROOT
ATOM     10  C   UNL     1      65.519 -11.209  44.913  0.00  0.00    +0.038 A 
ATOM     11  C   UNL     1      65.856 -12.017  43.798  0.00  0.00    +0.047 A 
ATOM     12  C   UNL     1      67.089 -12.789  43.773  0.00  0.00    +0.035 A 
ATOM     32  C   UNL     1      67.954 -12.716  44.903  0.00  0.00    +0.024 A 
ATOM     33  C   UNL     1      67.628 -11.898  46.045  0.00  0.00    +0.007 A 
ATOM     34  C   UNL     1      66.414 -11.133  46.074  0.00  0.00    -0.029 A 
ATOM     35  C   UNL     1      66.118 -10.268  47.322  0.00  0.00    +0.045 C 
ENDROOT
BRANCH  10   9
ATOM      4  C   UNL     1      63.038  -7.146  44.295  0.00  0.00    +0.077 A 
ATOM      5  C   UNL     1      64.229  -6.389  44.036  0.00  0.00    +0.048 A 
ATOM      6  C   UNL     1      65.460  -7.081  44.078  0.00  0.00    +0.116 A 
ATOM      7  N   UNL     1      65.487  -8.430  44.359  0.00  0.00    -0.223 NA
ATOM      8  C   UNL     1      64.320  -9.130  44.606  0.00  0.00    +0.220 A 
ATOM      9  N   UNL     1      64.323 -10.488  44.883  0.00  0.00    -0.283 N 
ATOM     36  H   UNL     1      63.441 -10.967  45.067  0.00  0.00    +0.155 HD
ATOM     37  N   UNL     1      63.132  -8.492  44.573  0.00  0.00    -0.214 NA
BRANCH   4   3
ATOM      1  C   UNL     1      59.903  -5.003  43.361  0.00  0.00    +0.020 A 
ATOM      2  C   UNL     1      61.244  -5.538  43.330  0.00  0.00    +0.013 A 
ATOM      3  C   UNL     1      61.662  -6.558  44.284  0.00  0.00    +0.019 A 
ATOM     38  C   UNL     1      60.690  -7.019  45.263  0.00  0.00    +0.120 A 
ATOM     39  N   UNL     1      59.405  -6.484  45.270  0.00  0.00    -0.263 NA
ATOM     40  C   UNL     1      58.992  -5.501  44.358  0.00  0.00    +0.111 A 
ENDBRANCH   4   3
ENDBRANCH  10   9
BRANCH  12  13
ATOM     13  N   UNL     1      67.488 -13.621  42.665  0.00  0.00    -0.281 N 
ATOM     14  C   UNL     1      68.151 -13.241  41.510  0.00  0.00    +0.248 C 
ATOM     30  O   UNL     1      68.315 -12.083  41.157  0.00  0.00    -0.270 OA
ATOM     31  H   UNL     1      67.252 -14.611  42.742  0.00  0.00    +0.155 HD
BRANCH  14  15
ATOM     15  C   UNL     1      68.701 -14.301  40.611  0.00  0.00    +0.037 A 
ATOM     16  C   UNL     1      69.329 -13.962  39.332  0.00  0.00    +0.013 A 
ATOM     17  C   UNL     1      69.836 -15.005  38.476  0.00  0.00    +0.005 A 
ATOM     18  C   UNL     1      69.717 -16.399  38.897  0.00  0.00    -0.033 A 
ATOM     28  C   UNL     1      69.093 -16.707  40.174  0.00  0.00    +0.005 A 
ATOM     29  C   UNL     1      68.595 -15.687  41.015  0.00  0.00    +0.013 A 
BRANCH  18  19
ATOM     19  C   UNL     1      70.210 -17.578  38.038  0.00  0.00    +0.119 C 
BRANCH  19  20
ATOM     20  N   UNL     1      71.605 -18.057  38.271  0.00  0.00    -0.302 NA
ATOM     21  C   UNL     1      71.985 -18.017  39.754  0.00  0.00    +0.066 C 
ATOM     22  C   UNL     1      73.440 -18.544  39.983  0.00  0.00    -0.064 C 
ATOM     23  N   UNL     1      74.417 -17.712  39.150  0.00  0.00    +0.379 N 
ATOM     24  C   UNL     1      75.791 -18.167  39.408  0.00  0.00    -0.096 C 
ATOM     25  H   UNL     1      74.340 -16.655  39.496  0.00  0.00    -0.082 HD
ATOM     26  C   UNL     1      74.044 -17.744  37.675  0.00  0.00    -0.064 C 
ATOM     27  C   UNL     1      72.587 -17.247  37.462  0.00  0.00    +0.066 C 
ENDBRANCH  19  20
ENDBRANCH  18  19
ENDBRANCH  14  15
ENDBRANCH  12  13
TORSDOF 6
ENDMDL
MODEL 4
REMARK VINA RESULT:      -7.3     31.022     35.026
REMARK  Name = C:\Users\Docking\Desktop\test protocol\1iep_ligandH.pdb
REMARK  8 active torsions:
REMARK  status: ('A' for Active; 'I' for Inactive)
REMARK    1  A    between atoms: _5  and  _11
REMARK    2  A    between atoms: _19  and  _21
REMARK    3  A    between atoms: _22  and  _66
REMARK    4  A    between atoms: _27  and  _30
REMARK    5  A    between atoms: _32  and  _33
REMARK    6  A    between atoms: _38  and  _43
REMARK    7  A    between atoms: _43  and  _46
REMARK    8  A    between atoms: _53  and  _55
REMARK                            x       y       z     vdW  Elec       q    Type
REMARK                         _______ _______ _______ _____ _____    ______ ____
ROOT
ATOM     10  C   UNL     1      33.160 -12.985  32.572  0.00  0.00    +0.038 A 
ATOM     11  C   UNL     1      32.972 -11.674  32.064  0.00  0.00    +0.047 A 
ATOM     12  C   UNL     1      31.734 -11.295  31.401  0.00  0.00    +0.035 A 
ATOM     32  C   UNL     1      30.707 -12.276  31.275  0.00  0.00    +0.024 A 
ATOM     33  C   UNL     1      30.882 -13.613  31.785  0.00  0.00    +0.007 A 
ATOM     34  C   UNL     1      32.102 -13.993  32.438  0.00  0.00    -0.029 A 
ATOM     35  C   UNL     1      32.237 -15.443  32.959  0.00  0.00    +0.045 C 
ENDROOT
BRANCH  10   9
ATOM      4  C   UNL     1      37.704 -14.529  32.480  0.00  0.00    +0.077 A 
ATOM      5  C   UNL     1      37.657 -14.765  31.066  0.00  0.00    +0.048 A 
ATOM      6  C   UNL     1      36.443 -14.482  30.401  0.00  0.00    +0.116 A 
ATOM      7  N   UNL     1      35.363 -14.000  31.107  0.00  0.00    -0.223 NA
ATOM      8  C   UNL     1      35.440 -13.786  32.471  0.00  0.00    +0.220 A 
ATOM      9  N   UNL     1      34.369 -13.294  33.200  0.00  0.00    -0.283 N 
ATOM     36  H   UNL     1      34.464 -13.157  34.206  0.00  0.00    +0.155 HD
ATOM     37  N   UNL     1      36.588 -14.049  33.130  0.00  0.00    -0.214 NA
BRANCH   4   3
ATOM      1  C   UNL     1      41.182 -14.130  34.224  0.00  0.00    +0.020 A 
ATOM      2  C   UNL     1      40.035 -13.844  33.394  0.00  0.00    +0.013 A 
ATOM      3  C   UNL     1      38.916 -14.776  33.323  0.00  0.00    +0.019 A 
ATOM     38  C   UNL     1      38.990 -15.996  34.112  0.00  0.00    +0.120 A 
ATOM     39  N   UNL     1      40.109 -16.246  34.901  0.00  0.00    -0.263 NA
ATOM     40  C   UNL     1      41.192 -15.357  34.975  0.00  0.00    +0.111 A 
ENDBRANCH   4   3
ENDBRANCH  10   9
BRANCH  12  13
ATOM     13  N   UNL     1      31.488  -9.982  30.858  0.00  0.00    -0.281 N 
ATOM     14  C   UNL     1      31.993  -9.436  29.689  0.00  0.00    +0.248 C 
ATOM     30  O   UNL     1      32.906  -9.921  29.037  0.00  0.00    -0.270 OA
ATOM     31  H   UNL     1      30.867  -9.382  31.401  0.00  0.00    +0.155 HD
BRANCH  14  15
ATOM     15  C   UNL     1      31.407  -8.160  29.176  0.00  0.00    +0.037 A 
ATOM     16  C   UNL     1      31.022  -7.081  30.089  0.00  0.00    +0.013 A 
ATOM     17  C   UNL     1      30.443  -5.866  29.570  0.00  0.00    +0.005 A 
ATOM     18  C   UNL     1      30.249  -5.725  28.129  0.00  0.00    -0.033 A 
ATOM     28  C   UNL     1      30.645  -6.809  27.246  0.00  0.00    +0.005 A 
ATOM     29  C   UNL     1      31.211  -8.001  27.751  0.00  0.00    +0.013 A 
BRANCH  18  19
ATOM     19  C   UNL     1      29.620  -4.473  27.489  0.00  0.00    +0.119 C 
BRANCH  19  20
ATOM     20  N   UNL     1      30.267  -3.937  26.255  0.00  0.00    -0.302 NA
ATOM     21  C   UNL     1      31.700  -3.463  26.517  0.00  0.00    +0.066 C 
ATOM     22  C   UNL     1      32.370  -2.927  25.211  0.00  0.00    -0.064 C 
ATOM     23  N   UNL     1      31.521  -1.792  24.634  0.00  0.00    +0.379 N 
ATOM     24  C   UNL     1      32.179  -1.247  23.438  0.00  0.00    -0.096 C 
ATOM     25  H   UNL     1      31.479  -0.980  25.397  0.00  0.00    -0.082 HD
ATOM     26  C   UNL     1      30.095  -2.254  24.373  0.00  0.00    -0.064 C 
ATOM     27  C   UNL     1      29.448  -2.813  25.671  0.00  0.00    +0.066 C 
ENDBRANCH  19  20
ENDBRANCH  18  19
ENDBRANCH  14  15
ENDBRANCH  12  13
TORSDOF 6
ENDMDL
MODEL 5
REMARK VINA RESULT:      -7.0     33.477     37.534
REMARK  Name = C:\Users\Docking\Desktop\test protocol\1iep_ligandH.pdb
REMARK  8 active torsions:
REMARK  status: ('A' for Active; 'I' for Inactive)
REMARK    1  A    between atoms: _5  and  _11
REMARK    2  A    between atoms: _19  and  _21
REMARK    3  A    between atoms: _22  and  _66
REMARK    4  A    between atoms: _27  and  _30
REMARK    5  A    between atoms: _32  and  _33
REMARK    6  A    between atoms: _38  and  _43
REMARK    7  A    between atoms: _43  and  _46
REMARK    8  A    between atoms: _53  and  _55
REMARK                            x       y       z     vdW  Elec       q    Type
REMARK                         _______ _______ _______ _____ _____    ______ ____
ROOT
ATOM     10  C   UNL     1      31.317  -5.400  27.723  0.00  0.00    +0.038 A 
ATOM     11  C   UNL     1      31.867  -6.471  28.471  0.00  0.00    +0.047 A 
ATOM     12  C   UNL     1      31.055  -7.228  29.411  0.00  0.00    +0.035 A 
ATOM     32  C   UNL     1      29.684  -6.868  29.562  0.00  0.00    +0.024 A 
ATOM     33  C   UNL     1      29.108  -5.781  28.810  0.00  0.00    +0.007 A 
ATOM     34  C   UNL     1      29.905  -5.029  27.883  0.00  0.00    -0.029 A 
ATOM     35  C   UNL     1      29.237  -3.870  27.109  0.00  0.00    +0.045 C 
ENDROOT
BRANCH  10   9
ATOM      4  C   UNL     1      33.500  -4.914  23.476  0.00  0.00    +0.077 A 
ATOM      5  C   UNL     1      32.973  -6.158  22.996  0.00  0.00    +0.048 A 
ATOM      6  C   UNL     1      32.150  -6.897  23.876  0.00  0.00    +0.116 A 
ATOM      7  N   UNL     1      31.881  -6.417  25.139  0.00  0.00    -0.223 NA
ATOM      8  C   UNL     1      32.406  -5.213  25.571  0.00  0.00    +0.220 A 
ATOM      9  N   UNL     1      32.142  -4.707  26.835  0.00  0.00    -0.283 N 
ATOM     36  H   UNL     1      32.555  -3.818  27.118  0.00  0.00    +0.155 HD
ATOM     37  N   UNL     1      33.196  -4.489  24.751  0.00  0.00    -0.214 NA
BRANCH   4   3
ATOM      1  C   UNL     1      36.453  -3.560  21.297  0.00  0.00    +0.020 A 
ATOM      2  C   UNL     1      35.638  -4.465  22.074  0.00  0.00    +0.013 A 
ATOM      3  C   UNL     1      34.382  -4.018  22.664  0.00  0.00    +0.019 A 
ATOM     38  C   UNL     1      33.977  -2.637  22.446  0.00  0.00    +0.120 A 
ATOM     39  N   UNL     1      34.783  -1.788  21.695  0.00  0.00    -0.263 NA
ATOM     40  C   UNL     1      35.994  -2.207  21.124  0.00  0.00    +0.111 A 
ENDBRANCH   4   3
ENDBRANCH  10   9
BRANCH  12  13
ATOM     13  N   UNL     1      31.561  -8.321  30.204  0.00  0.00    -0.281 N 
ATOM     14  C   UNL     1      31.497  -9.676  29.926  0.00  0.00    +0.248 C 
ATOM     30  O   UNL     1      30.802 -10.170  29.051  0.00  0.00    -0.270 OA
ATOM     31  H   UNL     1      32.023  -8.064  31.077  0.00  0.00    +0.155 HD
BRANCH  14  15
ATOM     15  C   UNL     1      32.312 -10.622  30.748  0.00  0.00    +0.037 A 
ATOM     16  C   UNL     1      32.265 -10.590  32.212  0.00  0.00    +0.013 A 
ATOM     17  C   UNL     1      33.075 -11.502  32.982  0.00  0.00    +0.005 A 
ATOM     18  C   UNL     1      33.937 -12.455  32.287  0.00  0.00    -0.033 A 
ATOM     28  C   UNL     1      33.960 -12.468  30.834  0.00  0.00    +0.005 A 
ATOM     29  C   UNL     1      33.169 -11.575  30.076  0.00  0.00    +0.013 A 
BRANCH  18  19
ATOM     19  C   UNL     1      34.850 -13.450  33.027  0.00  0.00    +0.119 C 
BRANCH  19  20
ATOM     20  N   UNL     1      34.200 -14.640  33.652  0.00  0.00    -0.302 NA
ATOM     21  C   UNL     1      33.042 -15.173  32.804  0.00  0.00    +0.066 C 
ATOM     22  C   UNL     1      32.387 -16.432  33.461  0.00  0.00    -0.064 C 
ATOM     23  N   UNL     1      31.908 -16.077  34.870  0.00  0.00    +0.379 N 
ATOM     24  C   UNL     1      31.240 -17.242  35.469  0.00  0.00    -0.096 C 
ATOM     25  H   UNL     1      31.151 -15.265  34.775  0.00  0.00    -0.082 HD
ATOM     26  C   UNL     1      33.053 -15.543  35.719  0.00  0.00    -0.064 C 
ATOM     27  C   UNL     1      33.715 -14.311  35.043  0.00  0.00    +0.066 C 
ENDBRANCH  19  20
ENDBRANCH  18  19
ENDBRANCH  14  15
ENDBRANCH  12  13
TORSDOF 6
ENDMDL
