MODEL 1
REMARK VINA RESULT:      -8.2      0.000      0.000
REMARK  Name = C:\Users\Docking\Desktop\test protocol\1iep_ligandH.pdb
REMARK  8 active torsions:
REMARK  status: ('A' for Active; 'I' for Inactive)
REMARK    1  A    between atoms: _5  and  _11
REMARK    2  A    between atoms: _19  and  _21
REMARK    3  A    between atoms: _22  and  _66
REMARK    4  A    between atoms: _27  and  _30
REMARK    5  A    between atoms: _32  and  _33
REMARK    6  A    between atoms: _38  and  _43
REMARK    7  A    between atoms: _43  and  _46
REMARK    8  A    between atoms: _53  and  _55
REMARK                            x       y       z     vdW  Elec       q    Type
REMARK                         _______ _______ _______ _____ _____    ______ ____
ROOT
ATOM     10  C   UNL     1      -9.990 -23.362  16.344  0.00  0.00    +0.038 A 
ATOM     11  C   UNL     1      -9.885 -22.195  15.545  0.00  0.00    +0.047 A 
ATOM     12  C   UNL     1      -9.429 -20.935  16.111  0.00  0.00    +0.035 A 
ATOM     32  C   UNL     1      -9.085 -20.900  17.494  0.00  0.00    +0.024 A 
ATOM     33  C   UNL     1      -9.188 -22.077  18.321  0.00  0.00    +0.007 A 
ATOM     34  C   UNL     1      -9.640 -23.322  17.769  0.00  0.00    -0.029 A 
ATOM     35  C   UNL     1      -9.736 -24.551  18.703  0.00  0.00    +0.045 C 
ENDROOT
BRANCH  10   9
ATOM      4  C   UNL     1     -13.434 -26.530  15.274  0.00  0.00    +0.077 A 
ATOM      5  C   UNL     1     -14.428 -25.778  15.984  0.00  0.00    +0.048 A 
ATOM      6  C   UNL     1     -14.011 -24.586  16.617  0.00  0.00    +0.116 A 
ATOM      7  N   UNL     1     -12.695 -24.184  16.539  0.00  0.00    -0.223 NA
ATOM      8  C   UNL     1     -11.761 -24.934  15.847  0.00  0.00    +0.220 A 
ATOM      9  N   UNL     1     -10.434 -24.545  15.748  0.00  0.00    -0.283 N 
ATOM     36  H   UNL     1      -9.774 -25.129  15.235  0.00  0.00    +0.155 HD
ATOM     37  N   UNL     1     -12.134 -26.077  15.235  0.00  0.00    -0.214 NA
BRANCH   4   3
ATOM      1  C   UNL     1     -14.783 -30.091  14.380  0.00  0.00    +0.020 A 
ATOM      2  C   UNL     1     -14.537 -28.875  15.120  0.00  0.00    +0.013 A 
ATOM      3  C   UNL     1     -13.721 -27.809  14.551  0.00  0.00    +0.019 A 
ATOM     38  C   UNL     1     -13.165 -28.007  13.221  0.00  0.00    +0.120 A 
ATOM     39  N   UNL     1     -13.419 -29.189  12.532  0.00  0.00    -0.263 NA
ATOM     40  C   UNL     1     -14.201 -30.222  13.070  0.00  0.00    +0.111 A 
ENDBRANCH   4   3
ENDBRANCH  10   9
BRANCH  12  13
ATOM     13  N   UNL     1      -9.309 -19.715  15.352  0.00  0.00    -0.281 N 
ATOM     14  C   UNL     1      -8.175 -18.945  15.150  0.00  0.00    +0.248 C 
ATOM     30  O   UNL     1      -7.132 -19.075  15.773  0.00  0.00    -0.270 OA
ATOM     31  H   UNL     1     -10.164 -19.378  14.909  0.00  0.00    +0.155 HD
BRANCH  14  15
ATOM     15  C   UNL     1      -8.210 -17.865  14.118  0.00  0.00    +0.037 A 
ATOM     16  C   UNL     1      -6.990 -17.164  13.710  0.00  0.00    +0.013 A 
ATOM     17  C   UNL     1      -7.054 -16.114  12.724  0.00  0.00    +0.005 A 
ATOM     18  C   UNL     1      -8.344 -15.760  12.138  0.00  0.00    -0.033 A 
ATOM     28  C   UNL     1      -9.538 -16.476  12.556  0.00  0.00    +0.005 A 
ATOM     29  C   UNL     1      -9.479 -17.504  13.523  0.00  0.00    +0.013 A 
BRANCH  18  19
ATOM     19  C   UNL     1      -8.510 -14.639  11.094  0.00  0.00    +0.119 C 
BRANCH  19  20
ATOM     20  N   UNL     1      -7.338 -13.744  10.861  0.00  0.00    -0.302 NA
ATOM     21  C   UNL     1      -7.200 -12.681  11.956  0.00  0.00    +0.066 C 
ATOM     22  C   UNL     1      -5.956 -11.767  11.708  0.00  0.00    -0.064 C 
ATOM     23  N   UNL     1      -6.073 -11.114  10.330  0.00  0.00    +0.379 N 
ATOM     24  C   UNL     1      -4.934 -10.209  10.118  0.00  0.00    -0.096 C 
ATOM     25  H   UNL     1      -7.001 -10.496  10.327  0.00  0.00    -0.082 HD
ATOM     26  C   UNL     1      -6.213 -12.163   9.237  0.00  0.00    -0.064 C 
ATOM     27  C   UNL     1      -7.435 -13.084   9.508  0.00  0.00    +0.066 C 
ENDBRANCH  19  20
ENDBRANCH  18  19
ENDBRANCH  14  15
ENDBRANCH  12  13
TORSDOF 6
ENDMDL
MODEL 2
REMARK VINA RESULT:      -8.0      9.628     14.674
REMARK  Name = C:\Users\Docking\Desktop\test protocol\1iep_ligandH.pdb
REMARK  8 active torsions:
REMARK  status: ('A' for Active; 'I' for Inactive)
REMARK    1  A    between atoms: _5  and  _11
REMARK    2  A    between atoms: _19  and  _21
REMARK    3  A    between atoms: _22  and  _66
REMARK    4  A    between atoms: _27  and  _30
REMARK    5  A    between atoms: _32  and  _33
REMARK    6  A    between atoms: _38  and  _43
REMARK    7  A    between atoms: _43  and  _46
REMARK    8  A    between atoms: _53  and  _55
REMARK                            x       y       z     vdW  Elec       q    Type
REMARK                         _______ _______ _______ _____ _____    ______ ____
ROOT
ATOM     10  C   UNL     1      -9.149 -14.103   8.528  0.00  0.00    +0.038 A 
ATOM     11  C   UNL     1      -9.449 -13.379   7.346  0.00  0.00    +0.047 A 
ATOM     12  C   UNL     1     -10.325 -13.933   6.326  0.00  0.00    +0.035 A 
ATOM     32  C   UNL     1     -10.882 -15.227   6.544  0.00  0.00    +0.024 A 
ATOM     33  C   UNL     1     -10.587 -15.977   7.739  0.00  0.00    +0.007 A 
ATOM     34  C   UNL     1      -9.721 -15.437   8.748  0.00  0.00    -0.029 A 
ATOM     35  C   UNL     1      -9.434 -16.288  10.006  0.00  0.00    +0.045 C 
ENDROOT
BRANCH  10   9
ATOM      4  C   UNL     1      -4.838 -13.517  10.555  0.00  0.00    +0.077 A 
ATOM      5  C   UNL     1      -4.228 -14.468   9.671  0.00  0.00    +0.048 A 
ATOM      6  C   UNL     1      -5.060 -15.091   8.713  0.00  0.00    +0.116 A 
ATOM      7  N   UNL     1      -6.400 -14.778   8.653  0.00  0.00    -0.223 NA
ATOM      8  C   UNL     1      -6.957 -13.858   9.522  0.00  0.00    +0.220 A 
ATOM      9  N   UNL     1      -8.302 -13.522   9.474  0.00  0.00    -0.283 N 
ATOM     36  H   UNL     1      -8.676 -12.844  10.138  0.00  0.00    +0.155 HD
ATOM     37  N   UNL     1      -6.184 -13.250  10.446  0.00  0.00    -0.214 NA
BRANCH   4   3
ATOM      1  C   UNL     1      -2.064 -11.544  12.481  0.00  0.00    +0.020 A 
ATOM      2  C   UNL     1      -2.742 -12.256  11.422  0.00  0.00    +0.013 A 
ATOM      3  C   UNL     1      -4.090 -12.773  11.617  0.00  0.00    +0.019 A 
ATOM     38  C   UNL     1      -4.730 -12.551  12.905  0.00  0.00    +0.120 A 
ATOM     39  N   UNL     1      -4.052 -11.863  13.907  0.00  0.00    -0.263 NA
ATOM     40  C   UNL     1      -2.753 -11.362  13.731  0.00  0.00    +0.111 A 
ENDBRANCH   4   3
ENDBRANCH  10   9
BRANCH  12  13
ATOM     13  N   UNL     1     -10.659 -13.248   5.102  0.00  0.00    -0.281 N 
ATOM     14  C   UNL     1     -11.403 -12.089   4.950  0.00  0.00    +0.248 C 
ATOM     30  O   UNL     1     -12.077 -11.580   5.833  0.00  0.00    -0.270 OA
ATOM     31  H   UNL     1     -10.304 -13.669   4.243  0.00  0.00    +0.155 HD
BRANCH  14  15
ATOM     15  C   UNL     1     -11.410 -11.404   3.622  0.00  0.00    +0.037 A 
ATOM     16  C   UNL     1     -11.042  -9.992   3.493  0.00  0.00    +0.013 A 
ATOM     17  C   UNL     1     -11.073  -9.351   2.202  0.00  0.00    +0.005 A 
ATOM     18  C   UNL     1     -11.473 -10.124   1.028  0.00  0.00    -0.033 A 
ATOM     28  C   UNL     1     -11.828 -11.525   1.184  0.00  0.00    +0.005 A 
ATOM     29  C   UNL     1     -11.799 -12.156   2.448  0.00  0.00    +0.013 A 
BRANCH  18  19
ATOM     19  C   UNL     1     -11.556  -9.517  -0.385  0.00  0.00    +0.119 C 
BRANCH  19  20
ATOM     20  N   UNL     1     -10.267  -9.190  -1.065  0.00  0.00    -0.302 NA
ATOM     21  C   UNL     1      -9.797  -7.767  -0.753  0.00  0.00    +0.066 C 
ATOM     22  C   UNL     1      -8.437  -7.450  -1.455  0.00  0.00    -0.064 C 
ATOM     23  N   UNL     1      -8.584  -7.653  -2.964  0.00  0.00    +0.379 N 
ATOM     24  C   UNL     1      -7.323  -7.300  -3.632  0.00  0.00    -0.096 C 
ATOM     25  H   UNL     1      -9.368  -6.947  -3.325  0.00  0.00    -0.082 HD
ATOM     26  C   UNL     1      -9.053  -9.066  -3.282  0.00  0.00    -0.064 C 
ATOM     27  C   UNL     1     -10.391  -9.381  -2.557  0.00  0.00    +0.066 C 
ENDBRANCH  19  20
ENDBRANCH  18  19
ENDBRANCH  14  15
ENDBRANCH  12  13
TORSDOF 6
ENDMDL
MODEL 3
REMARK VINA RESULT:      -8.0      1.608      2.155
REMARK  Name = C:\Users\Docking\Desktop\test protocol\1iep_ligandH.pdb
REMARK  8 active torsions:
REMARK  status: ('A' for Active; 'I' for Inactive)
REMARK    1  A    between atoms: _5  and  _11
REMARK    2  A    between atoms: _19  and  _21
REMARK    3  A    between atoms: _22  and  _66
REMARK    4  A    between atoms: _27  and  _30
REMARK    5  A    between atoms: _32  and  _33
REMARK    6  A    between atoms: _38  and  _43
REMARK    7  A    between atoms: _43  and  _46
REMARK    8  A    between atoms: _53  and  _55
REMARK                            x       y       z     vdW  Elec       q    Type
REMARK                         _______ _______ _______ _____ _____    ______ ____
ROOT
ATOM     10  C   UNL     1     -10.358 -23.547  16.283  0.00  0.00    +0.038 A 
ATOM     11  C   UNL     1     -10.326 -22.402  15.447  0.00  0.00    +0.047 A 
ATOM     12  C   UNL     1      -9.919 -21.104  15.963  0.00  0.00    +0.035 A 
ATOM     32  C   UNL     1      -9.549 -21.009  17.336  0.00  0.00    +0.024 A 
ATOM     33  C   UNL     1      -9.577 -22.162  18.201  0.00  0.00    +0.007 A 
ATOM     34  C   UNL     1      -9.979 -23.445  17.698  0.00  0.00    -0.029 A 
ATOM     35  C   UNL     1      -9.996 -24.645  18.672  0.00  0.00    +0.045 C 
ENDROOT
BRANCH  10   9
ATOM      4  C   UNL     1     -13.697 -26.843  15.268  0.00  0.00    +0.077 A 
ATOM      5  C   UNL     1     -14.729 -26.079  15.908  0.00  0.00    +0.048 A 
ATOM      6  C   UNL     1     -14.358 -24.847  16.492  0.00  0.00    +0.116 A 
ATOM      7  N   UNL     1     -13.049 -24.420  16.434  0.00  0.00    -0.223 NA
ATOM      8  C   UNL     1     -12.078 -25.182  15.812  0.00  0.00    +0.220 A 
ATOM      9  N   UNL     1     -10.757 -24.768  15.735  0.00  0.00    -0.283 N 
ATOM     36  H   UNL     1     -10.068 -25.362  15.274  0.00  0.00    +0.155 HD
ATOM     37  N   UNL     1     -12.406 -26.363  15.248  0.00  0.00    -0.214 NA
BRANCH   4   3
ATOM      1  C   UNL     1     -14.944 -30.472  14.512  0.00  0.00    +0.020 A 
ATOM      2  C   UNL     1     -14.748 -29.215  15.196  0.00  0.00    +0.013 A 
ATOM      3  C   UNL     1     -13.932 -28.163  14.603  0.00  0.00    +0.019 A 
ATOM     38  C   UNL     1     -13.325 -28.417  13.305  0.00  0.00    +0.120 A 
ATOM     39  N   UNL     1     -13.530 -29.638  12.670  0.00  0.00    -0.263 NA
ATOM     40  C   UNL     1     -14.312 -30.658  13.233  0.00  0.00    +0.111 A 
ENDBRANCH   4   3
ENDBRANCH  10   9
BRANCH  12  13
ATOM     13  N   UNL     1      -9.875 -19.905  15.163  0.00  0.00    -0.281 N 
ATOM     14  C   UNL     1     -10.873 -18.960  14.990  0.00  0.00    +0.248 C 
ATOM     30  O   UNL     1     -12.037 -19.113  15.329  0.00  0.00    -0.270 OA
ATOM     31  H   UNL     1      -9.002 -19.732  14.664  0.00  0.00    +0.155 HD
BRANCH  14  15
ATOM     15  C   UNL     1     -10.532 -17.662  14.331  0.00  0.00    +0.037 A 
ATOM     16  C   UNL     1     -11.419 -17.060  13.333  0.00  0.00    +0.013 A 
ATOM     17  C   UNL     1     -11.058 -15.816  12.701  0.00  0.00    +0.005 A 
ATOM     18  C   UNL     1      -9.802 -15.165  13.067  0.00  0.00    -0.033 A 
ATOM     28  C   UNL     1      -8.943 -15.782  14.064  0.00  0.00    +0.005 A 
ATOM     29  C   UNL     1      -9.293 -17.002  14.685  0.00  0.00    +0.013 A 
BRANCH  18  19
ATOM     19  C   UNL     1      -9.326 -13.847  12.428  0.00  0.00    +0.119 C 
BRANCH  19  20
ATOM     20  N   UNL     1      -8.366 -13.947  11.289  0.00  0.00    -0.302 NA
ATOM     21  C   UNL     1      -8.373 -15.339  10.651  0.00  0.00    +0.066 C 
ATOM     22  C   UNL     1      -7.379 -15.419   9.447  0.00  0.00    -0.064 C 
ATOM     23  N   UNL     1      -5.973 -15.049   9.924  0.00  0.00    +0.379 N 
ATOM     24  C   UNL     1      -5.026 -15.180   8.807  0.00  0.00    -0.096 C 
ATOM     25  H   UNL     1      -5.678 -15.786  10.707  0.00  0.00    -0.082 HD
ATOM     26  C   UNL     1      -5.958 -13.667  10.562  0.00  0.00    -0.064 C 
ATOM     27  C   UNL     1      -6.970 -13.589  11.738  0.00  0.00    +0.066 C 
ENDBRANCH  19  20
ENDBRANCH  18  19
ENDBRANCH  14  15
ENDBRANCH  12  13
TORSDOF 6
ENDMDL
MODEL 4
REMARK VINA RESULT:      -7.8      1.622      2.310
REMARK  Name = C:\Users\Docking\Desktop\test protocol\1iep_ligandH.pdb
REMARK  8 active torsions:
REMARK  status: ('A' for Active; 'I' for Inactive)
REMARK    1  A    between atoms: _5  and  _11
REMARK    2  A    between atoms: _19  and  _21
REMARK    3  A    between atoms: _22  and  _66
REMARK    4  A    between atoms: _27  and  _30
REMARK    5  A    between atoms: _32  and  _33
REMARK    6  A    between atoms: _38  and  _43
REMARK    7  A    between atoms: _43  and  _46
REMARK    8  A    between atoms: _53  and  _55
REMARK                            x       y       z     vdW  Elec       q    Type
REMARK                         _______ _______ _______ _____ _____    ______ ____
ROOT
ATOM     10  C   UNL     1     -10.058 -23.368  16.646  0.00  0.00    +0.038 A 
ATOM     11  C   UNL     1     -10.047 -22.141  15.936  0.00  0.00    +0.047 A 
ATOM     12  C   UNL     1      -9.615 -20.907  16.574  0.00  0.00    +0.035 A 
ATOM     32  C   UNL     1      -9.197 -20.960  17.935  0.00  0.00    +0.024 A 
ATOM     33  C   UNL     1      -9.203 -22.200  18.672  0.00  0.00    +0.007 A 
ATOM     34  C   UNL     1      -9.631 -23.419  18.049  0.00  0.00    -0.029 A 
ATOM     35  C   UNL     1      -9.622 -24.718  18.889  0.00  0.00    +0.045 C 
ENDROOT
BRANCH  10   9
ATOM      4  C   UNL     1     -13.460 -26.500  15.357  0.00  0.00    +0.077 A 
ATOM      5  C   UNL     1     -14.472 -25.791  16.086  0.00  0.00    +0.048 A 
ATOM      6  C   UNL     1     -14.074 -24.629  16.785  0.00  0.00    +0.116 A 
ATOM      7  N   UNL     1     -12.760 -24.216  16.750  0.00  0.00    -0.223 NA
ATOM      8  C   UNL     1     -11.808 -24.924  16.039  0.00  0.00    +0.220 A 
ATOM      9  N   UNL     1     -10.482 -24.523  15.984  0.00  0.00    -0.283 N 
ATOM     36  H   UNL     1      -9.810 -25.077  15.454  0.00  0.00    +0.155 HD
ATOM     37  N   UNL     1     -12.162 -26.038  15.364  0.00  0.00    -0.214 NA
BRANCH   4   3
ATOM      1  C   UNL     1     -14.777 -30.015  14.257  0.00  0.00    +0.020 A 
ATOM      2  C   UNL     1     -14.553 -28.836  15.061  0.00  0.00    +0.013 A 
ATOM      3  C   UNL     1     -13.724 -27.743  14.566  0.00  0.00    +0.019 A 
ATOM     38  C   UNL     1     -13.134 -27.876  13.243  0.00  0.00    +0.120 A 
ATOM     39  N   UNL     1     -13.366 -29.024  12.492  0.00  0.00    -0.263 NA
ATOM     40  C   UNL     1     -14.160 -30.082  12.958  0.00  0.00    +0.111 A 
ENDBRANCH   4   3
ENDBRANCH  10   9
BRANCH  12  13
ATOM     13  N   UNL     1      -9.590 -19.629  15.906  0.00  0.00    -0.281 N 
ATOM     14  C   UNL     1      -8.609 -19.125  15.068  0.00  0.00    +0.248 C 
ATOM     30  O   UNL     1      -7.497 -19.613  14.934  0.00  0.00    -0.270 OA
ATOM     31  H   UNL     1     -10.393 -19.022  16.071  0.00  0.00    +0.155 HD
BRANCH  14  15
ATOM     15  C   UNL     1      -8.901 -17.892  14.274  0.00  0.00    +0.037 A 
ATOM     16  C   UNL     1     -10.264 -17.370  14.155  0.00  0.00    +0.013 A 
ATOM     17  C   UNL     1     -10.520 -16.189  13.370  0.00  0.00    +0.005 A 
ATOM     18  C   UNL     1      -9.409 -15.521  12.698  0.00  0.00    -0.033 A 
ATOM     28  C   UNL     1      -8.065 -16.057  12.837  0.00  0.00    +0.005 A 
ATOM     29  C   UNL     1      -7.810 -17.215  13.605  0.00  0.00    +0.013 A 
BRANCH  18  19
ATOM     19  C   UNL     1      -9.592 -14.267  11.822  0.00  0.00    +0.119 C 
BRANCH  19  20
ATOM     20  N   UNL     1      -9.634 -14.467  10.342  0.00  0.00    -0.302 NA
ATOM     21  C   UNL     1      -8.485 -13.745   9.633  0.00  0.00    +0.066 C 
ATOM     22  C   UNL     1      -8.530 -13.983   8.088  0.00  0.00    -0.064 C 
ATOM     23  N   UNL     1      -9.881 -13.518   7.543  0.00  0.00    +0.379 N 
ATOM     24  C   UNL     1      -9.905 -13.687   6.083  0.00  0.00    -0.096 C 
ATOM     25  H   UNL     1      -9.976 -12.428   7.759  0.00  0.00    -0.082 HD
ATOM     26  C   UNL     1     -11.030 -14.229   8.245  0.00  0.00    -0.064 C 
ATOM     27  C   UNL     1     -10.958 -14.010   9.782  0.00  0.00    +0.066 C 
ENDBRANCH  19  20
ENDBRANCH  18  19
ENDBRANCH  14  15
ENDBRANCH  12  13
TORSDOF 6
ENDMDL
MODEL 5
REMARK VINA RESULT:      -7.7      9.713     12.241
REMARK  Name = C:\Users\Docking\Desktop\test protocol\1iep_ligandH.pdb
REMARK  8 active torsions:
REMARK  status: ('A' for Active; 'I' for Inactive)
REMARK    1  A    between atoms: _5  and  _11
REMARK    2  A    between atoms: _19  and  _21
REMARK    3  A    between atoms: _22  and  _66
REMARK    4  A    between atoms: _27  and  _30
REMARK    5  A    between atoms: _32  and  _33
REMARK    6  A    between atoms: _38  and  _43
REMARK    7  A    between atoms: _43  and  _46
REMARK    8  A    between atoms: _53  and  _55
REMARK                            x       y       z     vdW  Elec       q    Type
REMARK                         _______ _______ _______ _____ _____    ______ ____
ROOT
ATOM     10  C   UNL     1      -7.509 -14.347   9.664  0.00  0.00    +0.038 A 
ATOM     11  C   UNL     1      -6.742 -13.209  10.021  0.00  0.00    +0.047 A 
ATOM     12  C   UNL     1      -5.289 -13.229   9.951  0.00  0.00    +0.035 A 
ATOM     32  C   UNL     1      -4.650 -14.425   9.509  0.00  0.00    +0.024 A 
ATOM     33  C   UNL     1      -5.415 -15.591   9.144  0.00  0.00    +0.007 A 
ATOM     34  C   UNL     1      -6.848 -15.578   9.213  0.00  0.00    -0.029 A 
ATOM     35  C   UNL     1      -7.617 -16.859   8.815  0.00  0.00    +0.045 C 
ENDROOT
BRANCH  10   9
ATOM      4  C   UNL     1     -11.845 -13.732   7.698  0.00  0.00    +0.077 A 
ATOM      5  C   UNL     1     -11.288 -13.515   6.394  0.00  0.00    +0.048 A 
ATOM      6  C   UNL     1      -9.881 -13.563   6.273  0.00  0.00    +0.116 A 
ATOM      7  N   UNL     1      -9.099 -13.811   7.380  0.00  0.00    -0.223 NA
ATOM      8  C   UNL     1      -9.668 -14.014   8.624  0.00  0.00    +0.220 A 
ATOM      9  N   UNL     1      -8.901 -14.272   9.750  0.00  0.00    -0.283 N 
ATOM     36  H   UNL     1      -9.359 -14.409  10.651  0.00  0.00    +0.155 HD
ATOM     37  N   UNL     1     -11.009 -13.971   8.766  0.00  0.00    -0.214 NA
BRANCH   4   3
ATOM      1  C   UNL     1     -15.613 -12.689   7.827  0.00  0.00    +0.020 A 
ATOM      2  C   UNL     1     -14.201 -12.657   7.522  0.00  0.00    +0.013 A 
ATOM      3  C   UNL     1     -13.314 -13.716   7.987  0.00  0.00    +0.019 A 
ATOM     38  C   UNL     1     -13.892 -14.802   8.764  0.00  0.00    +0.120 A 
ATOM     39  N   UNL     1     -15.255 -14.805   9.044  0.00  0.00    -0.263 NA
ATOM     40  C   UNL     1     -16.118 -13.791   8.603  0.00  0.00    +0.111 A 
ENDBRANCH   4   3
ENDBRANCH  10   9
BRANCH  12  13
ATOM     13  N   UNL     1      -4.456 -12.108  10.308  0.00  0.00    -0.281 N 
ATOM     14  C   UNL     1      -4.232 -11.581  11.570  0.00  0.00    +0.248 C 
ATOM     30  O   UNL     1      -4.885 -11.865  12.563  0.00  0.00    -0.270 OA
ATOM     31  H   UNL     1      -3.974 -11.645   9.537  0.00  0.00    +0.155 HD
BRANCH  14  15
ATOM     15  C   UNL     1      -3.133 -10.585  11.752  0.00  0.00    +0.037 A 
ATOM     16  C   UNL     1      -1.774 -11.009  12.101  0.00  0.00    +0.013 A 
ATOM     17  C   UNL     1      -0.736 -10.026  12.287  0.00  0.00    +0.005 A 
ATOM     18  C   UNL     1      -1.053  -8.609  12.123  0.00  0.00    -0.033 A 
ATOM     28  C   UNL     1      -2.408  -8.218  11.772  0.00  0.00    +0.005 A 
ATOM     29  C   UNL     1      -3.428  -9.178  11.589  0.00  0.00    +0.013 A 
BRANCH  18  19
ATOM     19  C   UNL     1      -0.013  -7.491  12.324  0.00  0.00    +0.119 C 
BRANCH  19  20
ATOM     20  N   UNL     1       0.474  -6.783  11.102  0.00  0.00    -0.302 NA
ATOM     21  C   UNL     1      -0.347  -5.526  10.802  0.00  0.00    +0.066 C 
ATOM     22  C   UNL     1       0.190  -4.785   9.534  0.00  0.00    -0.064 C 
ATOM     23  N   UNL     1       0.170  -5.743   8.341  0.00  0.00    +0.379 N 
ATOM     24  C   UNL     1       0.620  -5.032   7.134  0.00  0.00    -0.096 C 
ATOM     25  H   UNL     1      -0.887  -6.055   8.175  0.00  0.00    -0.082 HD
ATOM     26  C   UNL     1       0.982  -6.997   8.632  0.00  0.00    -0.064 C 
ATOM     27  C   UNL     1       0.459  -7.709   9.911  0.00  0.00    +0.066 C 
ENDBRANCH  19  20
ENDBRANCH  18  19
ENDBRANCH  14  15
ENDBRANCH  12  13
TORSDOF 6
ENDMDL
