MODEL 1
REMARK VINA RESULT:     -11.1      0.000      0.000
REMARK  Name = C:\Users\Docking\Desktop\test protocol\1iep_ligandH.pdb
REMARK  8 active torsions:
REMARK  status: ('A' for Active; 'I' for Inactive)
REMARK    1  A    between atoms: _5  and  _11
REMARK    2  A    between atoms: _19  and  _21
REMARK    3  A    between atoms: _22  and  _66
REMARK    4  A    between atoms: _27  and  _30
REMARK    5  A    between atoms: _32  and  _33
REMARK    6  A    between atoms: _38  and  _43
REMARK    7  A    between atoms: _43  and  _46
REMARK    8  A    between atoms: _53  and  _55
REMARK                            x       y       z     vdW  Elec       q    Type
REMARK                         _______ _______ _______ _____ _____    ______ ____
ROOT
ATOM     10  C   UNL     1     110.948  21.250  -9.946  0.00  0.00    +0.038 A 
ATOM     11  C   UNL     1     109.640  21.321 -10.490  0.00  0.00    +0.047 A 
ATOM     12  C   UNL     1     108.753  22.431 -10.178  0.00  0.00    +0.035 A 
ATOM     32  C   UNL     1     109.232  23.454  -9.309  0.00  0.00    +0.024 A 
ATOM     33  C   UNL     1     110.558  23.398  -8.745  0.00  0.00    +0.007 A 
ATOM     34  C   UNL     1     111.436  22.304  -9.048  0.00  0.00    -0.029 A 
ATOM     35  C   UNL     1     112.845  22.292  -8.410  0.00  0.00    +0.045 C 
ENDROOT
BRANCH  10   9
ATOM      4  C   UNL     1     112.605  16.813  -9.170  0.00  0.00    +0.077 A 
ATOM      5  C   UNL     1     111.812  16.661  -7.984  0.00  0.00    +0.048 A 
ATOM      6  C   UNL     1     110.996  17.750  -7.604  0.00  0.00    +0.116 A 
ATOM      7  N   UNL     1     110.983  18.901  -8.361  0.00  0.00    -0.223 NA
ATOM      8  C   UNL     1     111.761  19.016  -9.499  0.00  0.00    +0.220 A 
ATOM      9  N   UNL     1     111.757  20.162 -10.279  0.00  0.00    -0.283 N 
ATOM     36  H   UNL     1     112.351  20.210 -11.107  0.00  0.00    +0.155 HD
ATOM     37  N   UNL     1     112.549  17.991  -9.882  0.00  0.00    -0.214 NA
BRANCH   4   3
ATOM      1  C   UNL     1     114.998  13.729  -9.419  0.00  0.00    +0.020 A 
ATOM      2  C   UNL     1     114.127  14.734  -8.855  0.00  0.00    +0.013 A 
ATOM      3  C   UNL     1     113.515  15.750  -9.702  0.00  0.00    +0.019 A 
ATOM     38  C   UNL     1     113.806  15.720 -11.127  0.00  0.00    +0.120 A 
ATOM     39  N   UNL     1     114.650  14.741 -11.642  0.00  0.00    -0.263 NA
ATOM     40  C   UNL     1     115.246  13.759 -10.836  0.00  0.00    +0.111 A 
ENDBRANCH   4   3
ENDBRANCH  10   9
BRANCH  12  13
ATOM     13  N   UNL     1     107.413  22.552 -10.695  0.00  0.00    -0.281 N 
ATOM     14  C   UNL     1     106.259  22.880 -10.002  0.00  0.00    +0.248 C 
ATOM     30  O   UNL     1     106.170  22.911  -8.783  0.00  0.00    -0.270 OA
ATOM     31  H   UNL     1     107.301  22.373 -11.693  0.00  0.00    +0.155 HD
BRANCH  14  15
ATOM     15  C   UNL     1     105.022  23.207 -10.773  0.00  0.00    +0.037 A 
ATOM     16  C   UNL     1     104.015  22.183 -11.065  0.00  0.00    +0.013 A 
ATOM     17  C   UNL     1     102.839  22.521 -11.826  0.00  0.00    +0.005 A 
ATOM     18  C   UNL     1     102.662  23.892 -12.299  0.00  0.00    -0.033 A 
ATOM     28  C   UNL     1     103.673  24.889 -11.991  0.00  0.00    +0.005 A 
ATOM     29  C   UNL     1     104.828  24.561 -11.246  0.00  0.00    +0.013 A 
BRANCH  18  19
ATOM     19  C   UNL     1     101.448  24.338 -13.136  0.00  0.00    +0.119 C 
BRANCH  19  20
ATOM     20  N   UNL     1     101.610  24.358 -14.620  0.00  0.00    -0.302 NA
ATOM     21  C   UNL     1     102.103  25.717 -15.126  0.00  0.00    +0.066 C 
ATOM     22  C   UNL     1     102.289  25.713 -16.678  0.00  0.00    -0.064 C 
ATOM     23  N   UNL     1     100.967  25.334 -17.346  0.00  0.00    +0.379 N 
ATOM     24  C   UNL     1     101.123  25.386 -18.807  0.00  0.00    -0.096 C 
ATOM     25  H   UNL     1     100.210  26.101 -17.059  0.00  0.00    -0.082 HD
ATOM     26  C   UNL     1     100.468  23.985 -16.847  0.00  0.00    -0.064 C 
ATOM     27  C   UNL     1     100.315  23.990 -15.301  0.00  0.00    +0.066 C 
ENDBRANCH  19  20
ENDBRANCH  18  19
ENDBRANCH  14  15
ENDBRANCH  12  13
TORSDOF 6
ENDMDL
MODEL 2
REMARK VINA RESULT:     -10.8      2.336      2.769
REMARK  Name = C:\Users\Docking\Desktop\test protocol\1iep_ligandH.pdb
REMARK  8 active torsions:
REMARK  status: ('A' for Active; 'I' for Inactive)
REMARK    1  A    between atoms: _5  and  _11
REMARK    2  A    between atoms: _19  and  _21
REMARK    3  A    between atoms: _22  and  _66
REMARK    4  A    between atoms: _27  and  _30
REMARK    5  A    between atoms: _32  and  _33
REMARK    6  A    between atoms: _38  and  _43
REMARK    7  A    between atoms: _43  and  _46
REMARK    8  A    between atoms: _53  and  _55
REMARK                            x       y       z     vdW  Elec       q    Type
REMARK                         _______ _______ _______ _____ _____    ______ ____
ROOT
ATOM     10  C   UNL     1     111.303  20.992  -9.826  0.00  0.00    +0.038 A 
ATOM     11  C   UNL     1     109.909  21.035 -10.086  0.00  0.00    +0.047 A 
ATOM     12  C   UNL     1     109.091  22.144  -9.619  0.00  0.00    +0.035 A 
ATOM     32  C   UNL     1     109.726  23.193  -8.892  0.00  0.00    +0.024 A 
ATOM     33  C   UNL     1     111.141  23.164  -8.618  0.00  0.00    +0.007 A 
ATOM     34  C   UNL     1     111.953  22.072  -9.074  0.00  0.00    -0.029 A 
ATOM     35  C   UNL     1     113.464  22.090  -8.746  0.00  0.00    +0.045 C 
ENDROOT
BRANCH  10   9
ATOM      4  C   UNL     1     113.019  16.531  -9.385  0.00  0.00    +0.077 A 
ATOM      5  C   UNL     1     112.418  16.364  -8.093  0.00  0.00    +0.048 A 
ATOM      6  C   UNL     1     111.681  17.452  -7.575  0.00  0.00    +0.116 A 
ATOM      7  N   UNL     1     111.561  18.616  -8.303  0.00  0.00    -0.223 NA
ATOM      8  C   UNL     1     112.155  18.745  -9.545  0.00  0.00    +0.220 A 
ATOM      9  N   UNL     1     112.040  19.903 -10.298  0.00  0.00    -0.283 N 
ATOM     36  H   UNL     1     112.499  19.962 -11.206  0.00  0.00    +0.155 HD
ATOM     37  N   UNL     1     112.865  17.721 -10.061  0.00  0.00    -0.214 NA
BRANCH   4   3
ATOM      1  C   UNL     1     114.719  14.320 -12.128  0.00  0.00    +0.020 A 
ATOM      2  C   UNL     1     113.926  15.363 -11.518  0.00  0.00    +0.013 A 
ATOM      3  C   UNL     1     113.825  15.471 -10.068  0.00  0.00    +0.019 A 
ATOM     38  C   UNL     1     114.545  14.500  -9.257  0.00  0.00    +0.120 A 
ATOM     39  N   UNL     1     115.299  13.506  -9.872  0.00  0.00    -0.263 NA
ATOM     40  C   UNL     1     115.402  13.391 -11.267  0.00  0.00    +0.111 A 
ENDBRANCH   4   3
ENDBRANCH  10   9
BRANCH  12  13
ATOM     13  N   UNL     1     107.670  22.239  -9.846  0.00  0.00    -0.281 N 
ATOM     14  C   UNL     1     106.669  22.425  -8.907  0.00  0.00    +0.248 C 
ATOM     30  O   UNL     1     106.826  22.324  -7.699  0.00  0.00    -0.270 OA
ATOM     31  H   UNL     1     107.366  22.159 -10.816  0.00  0.00    +0.155 HD
BRANCH  14  15
ATOM     15  C   UNL     1     105.290  22.757  -9.379  0.00  0.00    +0.037 A 
ATOM     16  C   UNL     1     104.795  22.284 -10.674  0.00  0.00    +0.013 A 
ATOM     17  C   UNL     1     103.467  22.633 -11.113  0.00  0.00    +0.005 A 
ATOM     18  C   UNL     1     102.623  23.458 -10.253  0.00  0.00    -0.033 A 
ATOM     28  C   UNL     1     103.137  23.909  -8.970  0.00  0.00    +0.005 A 
ATOM     29  C   UNL     1     104.438  23.571  -8.538  0.00  0.00    +0.013 A 
BRANCH  18  19
ATOM     19  C   UNL     1     101.201  23.896 -10.649  0.00  0.00    +0.119 C 
BRANCH  19  20
ATOM     20  N   UNL     1     100.970  25.356 -10.865  0.00  0.00    -0.302 NA
ATOM     21  C   UNL     1      99.480  25.691 -10.981  0.00  0.00    +0.066 C 
ATOM     22  C   UNL     1      99.256  27.225 -11.185  0.00  0.00    -0.064 C 
ATOM     23  N   UNL     1     100.014  27.688 -12.430  0.00  0.00    +0.379 N 
ATOM     24  C   UNL     1      99.759  29.118 -12.657  0.00  0.00    -0.096 C 
ATOM     25  H   UNL     1      99.604  27.128 -13.303  0.00  0.00    -0.082 HD
ATOM     26  C   UNL     1     101.496  27.356 -12.324  0.00  0.00    -0.064 C 
ATOM     27  C   UNL     1     101.706  25.834 -12.093  0.00  0.00    +0.066 C 
ENDBRANCH  19  20
ENDBRANCH  18  19
ENDBRANCH  14  15
ENDBRANCH  12  13
TORSDOF 6
ENDMDL
MODEL 3
REMARK VINA RESULT:     -10.6      3.715      6.191
REMARK  Name = C:\Users\Docking\Desktop\test protocol\1iep_ligandH.pdb
REMARK  8 active torsions:
REMARK  status: ('A' for Active; 'I' for Inactive)
REMARK    1  A    between atoms: _5  and  _11
REMARK    2  A    between atoms: _19  and  _21
REMARK    3  A    between atoms: _22  and  _66
REMARK    4  A    between atoms: _27  and  _30
REMARK    5  A    between atoms: _32  and  _33
REMARK    6  A    between atoms: _38  and  _43
REMARK    7  A    between atoms: _43  and  _46
REMARK    8  A    between atoms: _53  and  _55
REMARK                            x       y       z     vdW  Elec       q    Type
REMARK                         _______ _______ _______ _____ _____    ______ ____
ROOT
ATOM     10  C   UNL     1     105.835  23.825  -9.721  0.00  0.00    +0.038 A 
ATOM     11  C   UNL     1     105.277  24.019 -11.011  0.00  0.00    +0.047 A 
ATOM     12  C   UNL     1     103.855  23.832 -11.251  0.00  0.00    +0.035 A 
ATOM     32  C   UNL     1     103.028  23.450 -10.155  0.00  0.00    +0.024 A 
ATOM     33  C   UNL     1     103.578  23.248  -8.837  0.00  0.00    +0.007 A 
ATOM     34  C   UNL     1     104.981  23.429  -8.594  0.00  0.00    -0.029 A 
ATOM     35  C   UNL     1     105.517  23.192  -7.163  0.00  0.00    +0.045 C 
ENDROOT
BRANCH  10   9
ATOM      4  C   UNL     1     110.304  22.169  -9.156  0.00  0.00    +0.077 A 
ATOM      5  C   UNL     1     109.865  20.803  -9.184  0.00  0.00    +0.048 A 
ATOM      6  C   UNL     1     108.480  20.570  -9.339  0.00  0.00    +0.116 A 
ATOM      7  N   UNL     1     107.608  21.631  -9.456  0.00  0.00    -0.223 NA
ATOM      8  C   UNL     1     108.064  22.936  -9.423  0.00  0.00    +0.220 A 
ATOM      9  N   UNL     1     107.207  24.018  -9.546  0.00  0.00    -0.283 N 
ATOM     36  H   UNL     1     107.582  24.966  -9.510  0.00  0.00    +0.155 HD
ATOM     37  N   UNL     1     109.382  23.185  -9.275  0.00  0.00    -0.214 NA
BRANCH   4   3
ATOM      1  C   UNL     1     113.540  24.283  -8.556  0.00  0.00    +0.020 A 
ATOM      2  C   UNL     1     112.143  23.942  -8.695  0.00  0.00    +0.013 A 
ATOM      3  C   UNL     1     111.736  22.577  -9.002  0.00  0.00    +0.019 A 
ATOM     38  C   UNL     1     112.776  21.572  -9.164  0.00  0.00    +0.120 A 
ATOM     39  N   UNL     1     114.114  21.930  -9.027  0.00  0.00    -0.263 NA
ATOM     40  C   UNL     1     114.517  23.242  -8.733  0.00  0.00    +0.111 A 
ENDBRANCH   4   3
ENDBRANCH  10   9
BRANCH  12  13
ATOM     13  N   UNL     1     103.233  24.007 -12.541  0.00  0.00    -0.281 N 
ATOM     14  C   UNL     1     102.552  25.116 -13.015  0.00  0.00    +0.248 C 
ATOM     30  O   UNL     1     102.188  26.052 -12.320  0.00  0.00    -0.270 OA
ATOM     31  H   UNL     1     103.304  23.216 -13.182  0.00  0.00    +0.155 HD
BRANCH  14  15
ATOM     15  C   UNL     1     102.215  25.189 -14.469  0.00  0.00    +0.037 A 
ATOM     16  C   UNL     1     102.839  26.183 -15.345  0.00  0.00    +0.013 A 
ATOM     17  C   UNL     1     102.483  26.243 -16.741  0.00  0.00    +0.005 A 
ATOM     18  C   UNL     1     101.497  25.303 -17.269  0.00  0.00    -0.033 A 
ATOM     28  C   UNL     1     100.897  24.323 -16.379  0.00  0.00    +0.005 A 
ATOM     29  C   UNL     1     101.243  24.263 -15.010  0.00  0.00    +0.013 A 
BRANCH  18  19
ATOM     19  C   UNL     1     101.042  25.308 -18.740  0.00  0.00    +0.119 C 
BRANCH  19  20
ATOM     20  N   UNL     1     100.325  26.524 -19.230  0.00  0.00    -0.302 NA
ATOM     21  C   UNL     1      99.160  26.912 -18.315  0.00  0.00    +0.066 C 
ATOM     22  C   UNL     1      98.436  28.198 -18.830  0.00  0.00    -0.064 C 
ATOM     23  N   UNL     1      97.947  27.967 -20.260  0.00  0.00    +0.379 N 
ATOM     24  C   UNL     1      97.215  29.153 -20.727  0.00  0.00    -0.096 C 
ATOM     25  H   UNL     1      97.230  27.113 -20.239  0.00  0.00    -0.082 HD
ATOM     26  C   UNL     1      99.099  27.578 -21.177  0.00  0.00    -0.064 C 
ATOM     27  C   UNL     1      99.830  26.316 -20.640  0.00  0.00    +0.066 C 
ENDBRANCH  19  20
ENDBRANCH  18  19
ENDBRANCH  14  15
ENDBRANCH  12  13
TORSDOF 6
ENDMDL
MODEL 4
REMARK VINA RESULT:      -9.9      2.039     13.087
REMARK  Name = C:\Users\Docking\Desktop\test protocol\1iep_ligandH.pdb
REMARK  8 active torsions:
REMARK  status: ('A' for Active; 'I' for Inactive)
REMARK    1  A    between atoms: _5  and  _11
REMARK    2  A    between atoms: _19  and  _21
REMARK    3  A    between atoms: _22  and  _66
REMARK    4  A    between atoms: _27  and  _30
REMARK    5  A    between atoms: _32  and  _33
REMARK    6  A    between atoms: _38  and  _43
REMARK    7  A    between atoms: _43  and  _46
REMARK    8  A    between atoms: _53  and  _55
REMARK                            x       y       z     vdW  Elec       q    Type
REMARK                         _______ _______ _______ _____ _____    ______ ____
ROOT
ATOM     10  C   UNL     1     104.179  22.673 -10.374  0.00  0.00    +0.038 A 
ATOM     11  C   UNL     1     105.390  21.996 -10.664  0.00  0.00    +0.047 A 
ATOM     12  C   UNL     1     106.494  21.988  -9.717  0.00  0.00    +0.035 A 
ATOM     32  C   UNL     1     106.329  22.679  -8.481  0.00  0.00    +0.024 A 
ATOM     33  C   UNL     1     105.104  23.374  -8.170  0.00  0.00    +0.007 A 
ATOM     34  C   UNL     1     104.013  23.387  -9.102  0.00  0.00    -0.029 A 
ATOM     35  C   UNL     1     102.726  24.154  -8.718  0.00  0.00    +0.045 C 
ENDROOT
BRANCH  10   9
ATOM      4  C   UNL     1     101.736  24.611 -14.022  0.00  0.00    +0.077 A 
ATOM      5  C   UNL     1     102.559  25.786 -14.027  0.00  0.00    +0.048 A 
ATOM      6  C   UNL     1     103.596  25.855 -13.070  0.00  0.00    +0.116 A 
ATOM      7  N   UNL     1     103.786  24.821 -12.180  0.00  0.00    -0.223 NA
ATOM      8  C   UNL     1     102.973  23.703 -12.201  0.00  0.00    +0.220 A 
ATOM      9  N   UNL     1     103.151  22.648 -11.319  0.00  0.00    -0.283 N 
ATOM     36  H   UNL     1     102.525  21.844 -11.362  0.00  0.00    +0.155 HD
ATOM     37  N   UNL     1     101.975  23.613 -13.104  0.00  0.00    -0.214 NA
BRANCH   4   3
ATOM      1  C   UNL     1      99.670  23.915 -17.270  0.00  0.00    +0.020 A 
ATOM      2  C   UNL     1     100.799  24.123 -16.394  0.00  0.00    +0.013 A 
ATOM      3  C   UNL     1     100.602  24.389 -14.974  0.00  0.00    +0.019 A 
ATOM     38  C   UNL     1      99.238  24.436 -14.469  0.00  0.00    +0.120 A 
ATOM     39  N   UNL     1      98.169  24.233 -15.338  0.00  0.00    -0.263 NA
ATOM     40  C   UNL     1      98.347  23.979 -16.706  0.00  0.00    +0.111 A 
ENDBRANCH   4   3
ENDBRANCH  10   9
BRANCH  12  13
ATOM     13  N   UNL     1     107.751  21.324  -9.961  0.00  0.00    -0.281 N 
ATOM     14  C   UNL     1     108.599  20.741  -9.034  0.00  0.00    +0.248 C 
ATOM     30  O   UNL     1     108.509  20.889  -7.825  0.00  0.00    -0.270 OA
ATOM     31  H   UNL     1     108.052  21.280 -10.934  0.00  0.00    +0.155 HD
BRANCH  14  15
ATOM     15  C   UNL     1     109.719  19.879  -9.523  0.00  0.00    +0.037 A 
ATOM     16  C   UNL     1     109.501  18.470  -9.861  0.00  0.00    +0.013 A 
ATOM     17  C   UNL     1     110.602  17.657 -10.313  0.00  0.00    +0.005 A 
ATOM     18  C   UNL     1     111.931  18.252 -10.432  0.00  0.00    -0.033 A 
ATOM     28  C   UNL     1     112.117  19.653 -10.095  0.00  0.00    +0.005 A 
ATOM     29  C   UNL     1     111.041  20.453  -9.650  0.00  0.00    +0.013 A 
BRANCH  18  19
ATOM     19  C   UNL     1     113.167  17.454 -10.886  0.00  0.00    +0.119 C 
BRANCH  19  20
ATOM     20  N   UNL     1     113.342  16.083 -10.321  0.00  0.00    -0.302 NA
ATOM     21  C   UNL     1     113.415  16.097  -8.791  0.00  0.00    +0.066 C 
ATOM     22  C   UNL     1     113.575  14.652  -8.215  0.00  0.00    -0.064 C 
ATOM     23  N   UNL     1     114.826  14.004  -8.811  0.00  0.00    +0.379 N 
ATOM     24  C   UNL     1     115.011  12.668  -8.228  0.00  0.00    -0.096 C 
ATOM     25  H   UNL     1     115.702  14.627  -8.516  0.00  0.00    -0.082 HD
ATOM     26  C   UNL     1     114.762  13.988 -10.332  0.00  0.00    -0.064 C 
ATOM     27  C   UNL     1     114.574  15.425 -10.893  0.00  0.00    +0.066 C 
ENDBRANCH  19  20
ENDBRANCH  18  19
ENDBRANCH  14  15
ENDBRANCH  12  13
TORSDOF 6
ENDMDL
MODEL 5
REMARK VINA RESULT:      -9.8      1.938      3.490
REMARK  Name = C:\Users\Docking\Desktop\test protocol\1iep_ligandH.pdb
REMARK  8 active torsions:
REMARK  status: ('A' for Active; 'I' for Inactive)
REMARK    1  A    between atoms: _5  and  _11
REMARK    2  A    between atoms: _19  and  _21
REMARK    3  A    between atoms: _22  and  _66
REMARK    4  A    between atoms: _27  and  _30
REMARK    5  A    between atoms: _32  and  _33
REMARK    6  A    between atoms: _38  and  _43
REMARK    7  A    between atoms: _43  and  _46
REMARK    8  A    between atoms: _53  and  _55
REMARK                            x       y       z     vdW  Elec       q    Type
REMARK                         _______ _______ _______ _____ _____    ______ ____
ROOT
ATOM     10  C   UNL     1     107.139  21.553  -9.153  0.00  0.00    +0.038 A 
ATOM     11  C   UNL     1     106.434  21.981 -10.306  0.00  0.00    +0.047 A 
ATOM     12  C   UNL     1     105.559  23.142 -10.266  0.00  0.00    +0.035 A 
ATOM     32  C   UNL     1     105.428  23.846  -9.033  0.00  0.00    +0.024 A 
ATOM     33  C   UNL     1     106.136  23.425  -7.851  0.00  0.00    +0.007 A 
ATOM     34  C   UNL     1     106.999  22.278  -7.884  0.00  0.00    -0.029 A 
ATOM     35  C   UNL     1     107.729  21.868  -6.584  0.00  0.00    +0.045 C 
ENDROOT
BRANCH  10   9
ATOM      4  C   UNL     1     111.468  19.495  -9.415  0.00  0.00    +0.077 A 
ATOM      5  C   UNL     1     112.138  20.763  -9.386  0.00  0.00    +0.048 A 
ATOM      6  C   UNL     1     111.332  21.922  -9.310  0.00  0.00    +0.116 A 
ATOM      7  N   UNL     1     109.959  21.808  -9.267  0.00  0.00    -0.223 NA
ATOM      8  C   UNL     1     109.345  20.570  -9.299  0.00  0.00    +0.220 A 
ATOM      9  N   UNL     1     107.966  20.431  -9.248  0.00  0.00    -0.283 N 
ATOM     36  H   UNL     1     107.551  19.501  -9.281  0.00  0.00    +0.155 HD
ATOM     37  N   UNL     1     110.092  19.449  -9.372  0.00  0.00    -0.214 NA
BRANCH   4   3
ATOM      1  C   UNL     1     113.221  16.138  -8.438  0.00  0.00    +0.020 A 
ATOM      2  C   UNL     1     112.532  17.401  -8.310  0.00  0.00    +0.013 A 
ATOM      3  C   UNL     1     112.181  18.181  -9.490  0.00  0.00    +0.019 A 
ATOM     38  C   UNL     1     112.545  17.651 -10.796  0.00  0.00    +0.120 A 
ATOM     39  N   UNL     1     113.209  16.432 -10.888  0.00  0.00    -0.263 NA
ATOM     40  C   UNL     1     113.553  15.673  -9.759  0.00  0.00    +0.111 A 
ENDBRANCH   4   3
ENDBRANCH  10   9
BRANCH  12  13
ATOM     13  N   UNL     1     104.811  23.619 -11.403  0.00  0.00    -0.281 N 
ATOM     14  C   UNL     1     103.541  23.241 -11.805  0.00  0.00    +0.248 C 
ATOM     30  O   UNL     1     102.936  22.273 -11.367  0.00  0.00    -0.270 OA
ATOM     31  H   UNL     1     105.275  24.320 -11.981  0.00  0.00    +0.155 HD
BRANCH  14  15
ATOM     15  C   UNL     1     102.847  24.045 -12.857  0.00  0.00    +0.037 A 
ATOM     16  C   UNL     1     101.792  23.461 -13.688  0.00  0.00    +0.013 A 
ATOM     17  C   UNL     1     101.151  24.254 -14.707  0.00  0.00    +0.005 A 
ATOM     18  C   UNL     1     101.564  25.643 -14.899  0.00  0.00    -0.033 A 
ATOM     28  C   UNL     1     102.610  26.198 -14.057  0.00  0.00    +0.005 A 
ATOM     29  C   UNL     1     103.241  25.423 -13.058  0.00  0.00    +0.013 A 
BRANCH  18  19
ATOM     19  C   UNL     1     100.950  26.556 -15.976  0.00  0.00    +0.119 C 
BRANCH  19  20
ATOM     20  N   UNL     1     100.349  25.895 -17.172  0.00  0.00    -0.302 NA
ATOM     21  C   UNL     1     101.047  26.311 -18.470  0.00  0.00    +0.066 C 
ATOM     22  C   UNL     1     100.420  25.592 -19.709  0.00  0.00    -0.064 C 
ATOM     23  N   UNL     1      98.924  25.906 -19.774  0.00  0.00    +0.379 N 
ATOM     24  C   UNL     1      98.343  25.279 -20.970  0.00  0.00    -0.096 C 
ATOM     25  H   UNL     1      98.815  27.010 -19.884  0.00  0.00    -0.082 HD
ATOM     26  C   UNL     1      98.223  25.498 -18.486  0.00  0.00    -0.064 C 
ATOM     27  C   UNL     1      98.872  26.195 -17.258  0.00  0.00    +0.066 C 
ENDBRANCH  19  20
ENDBRANCH  18  19
ENDBRANCH  14  15
ENDBRANCH  12  13
TORSDOF 6
ENDMDL
