MODEL 1
REMARK VINA RESULT:      -9.9      0.000      0.000
REMARK  Name = C:\Users\Docking\Desktop\test protocol\1iep_ligandH.pdb
REMARK  8 active torsions:
REMARK  status: ('A' for Active; 'I' for Inactive)
REMARK    1  A    between atoms: _5  and  _11
REMARK    2  A    between atoms: _19  and  _21
REMARK    3  A    between atoms: _22  and  _66
REMARK    4  A    between atoms: _27  and  _30
REMARK    5  A    between atoms: _32  and  _33
REMARK    6  A    between atoms: _38  and  _43
REMARK    7  A    between atoms: _43  and  _46
REMARK    8  A    between atoms: _53  and  _55
REMARK                            x       y       z     vdW  Elec       q    Type
REMARK                         _______ _______ _______ _____ _____    ______ ____
ROOT
ATOM     10  C   UNL     1     102.211  23.599 -11.016  0.00  0.00    +0.038 A 
ATOM     11  C   UNL     1     103.594  23.286 -10.998  0.00  0.00    +0.047 A 
ATOM     12  C   UNL     1     104.336  23.227  -9.748  0.00  0.00    +0.035 A 
ATOM     32  C   UNL     1     103.637  23.491  -8.535  0.00  0.00    +0.024 A 
ATOM     33  C   UNL     1     102.231  23.812  -8.535  0.00  0.00    +0.007 A 
ATOM     34  C   UNL     1     101.494  23.873  -9.765  0.00  0.00    -0.029 A 
ATOM     35  C   UNL     1      99.991  24.228  -9.706  0.00  0.00    +0.045 C 
ENDROOT
BRANCH  10   9
ATOM      4  C   UNL     1     101.411  25.547 -15.329  0.00  0.00    +0.077 A 
ATOM      5  C   UNL     1     102.377  26.584 -15.105  0.00  0.00    +0.048 A 
ATOM      6  C   UNL     1     103.052  26.585 -13.864  0.00  0.00    +0.116 A 
ATOM      7  N   UNL     1     102.775  25.616 -12.925  0.00  0.00    -0.223 NA
ATOM      8  C   UNL     1     101.837  24.631 -13.172  0.00  0.00    +0.220 A 
ATOM      9  N   UNL     1     101.548  23.641 -12.245  0.00  0.00    -0.283 N 
ATOM     36  H   UNL     1     100.844  22.937 -12.462  0.00  0.00    +0.155 HD
ATOM     37  N   UNL     1     101.177  24.609 -14.349  0.00  0.00    -0.214 NA
BRANCH   4   3
ATOM      1  C   UNL     1     100.423  25.191 -19.097  0.00  0.00    +0.020 A 
ATOM      2  C   UNL     1     101.235  25.323 -17.909  0.00  0.00    +0.013 A 
ATOM      3  C   UNL     1     100.618  25.411 -16.592  0.00  0.00    +0.019 A 
ATOM     38  C   UNL     1      99.166  25.361 -16.510  0.00  0.00    +0.120 A 
ATOM     39  N   UNL     1      98.410  25.235 -17.671  0.00  0.00    -0.263 NA
ATOM     40  C   UNL     1      98.992  25.152 -18.945  0.00  0.00    +0.111 A 
ENDBRANCH   4   3
ENDBRANCH  10   9
BRANCH  12  13
ATOM     13  N   UNL     1     105.743  22.922  -9.668  0.00  0.00    -0.281 N 
ATOM     14  C   UNL     1     106.780  23.772  -9.320  0.00  0.00    +0.248 C 
ATOM     30  O   UNL     1     106.678  24.987  -9.231  0.00  0.00    -0.270 OA
ATOM     31  H   UNL     1     106.007  21.964  -9.896  0.00  0.00    +0.155 HD
BRANCH  14  15
ATOM     15  C   UNL     1     108.129  23.191  -9.046  0.00  0.00    +0.037 A 
ATOM     16  C   UNL     1     109.345  23.799  -9.594  0.00  0.00    +0.013 A 
ATOM     17  C   UNL     1     110.632  23.207  -9.328  0.00  0.00    +0.005 A 
ATOM     18  C   UNL     1     110.710  22.001  -8.507  0.00  0.00    -0.033 A 
ATOM     28  C   UNL     1     109.489  21.422  -7.972  0.00  0.00    +0.005 A 
ATOM     29  C   UNL     1     108.226  21.998  -8.232  0.00  0.00    +0.013 A 
BRANCH  18  19
ATOM     19  C   UNL     1     112.039  21.290  -8.190  0.00  0.00    +0.119 C 
BRANCH  19  20
ATOM     20  N   UNL     1     112.282  19.969  -8.843  0.00  0.00    -0.302 NA
ATOM     21  C   UNL     1     111.457  19.801 -10.122  0.00  0.00    +0.066 C 
ATOM     22  C   UNL     1     111.739  18.423 -10.804  0.00  0.00    -0.064 C 
ATOM     23  N   UNL     1     111.439  17.296  -9.814  0.00  0.00    +0.379 N 
ATOM     24  C   UNL     1     111.648  15.997 -10.470  0.00  0.00    -0.096 C 
ATOM     25  H   UNL     1     110.361  17.366  -9.538  0.00  0.00    -0.082 HD
ATOM     26  C   UNL     1     112.254  17.457  -8.538  0.00  0.00    -0.064 C 
ATOM     27  C   UNL     1     111.988  18.842  -7.884  0.00  0.00    +0.066 C 
ENDBRANCH  19  20
ENDBRANCH  18  19
ENDBRANCH  14  15
ENDBRANCH  12  13
TORSDOF 6
ENDMDL
MODEL 2
REMARK VINA RESULT:      -9.5      6.078     10.869
REMARK  Name = C:\Users\Docking\Desktop\test protocol\1iep_ligandH.pdb
REMARK  8 active torsions:
REMARK  status: ('A' for Active; 'I' for Inactive)
REMARK    1  A    between atoms: _5  and  _11
REMARK    2  A    between atoms: _19  and  _21
REMARK    3  A    between atoms: _22  and  _66
REMARK    4  A    between atoms: _27  and  _30
REMARK    5  A    between atoms: _32  and  _33
REMARK    6  A    between atoms: _38  and  _43
REMARK    7  A    between atoms: _43  and  _46
REMARK    8  A    between atoms: _53  and  _55
REMARK                            x       y       z     vdW  Elec       q    Type
REMARK                         _______ _______ _______ _____ _____    ______ ____
ROOT
ATOM     10  C   UNL     1     103.004  24.305  -9.402  0.00  0.00    +0.038 A 
ATOM     11  C   UNL     1     102.287  23.353  -8.633  0.00  0.00    +0.047 A 
ATOM     12  C   UNL     1     100.850  23.190  -8.787  0.00  0.00    +0.035 A 
ATOM     32  C   UNL     1     100.174  24.013  -9.736  0.00  0.00    +0.024 A 
ATOM     33  C   UNL     1     100.888  24.986 -10.524  0.00  0.00    +0.007 A 
ATOM     34  C   UNL     1     102.305  25.153 -10.375  0.00  0.00    -0.029 A 
ATOM     35  C   UNL     1     103.017  26.217 -11.243  0.00  0.00    +0.045 C 
ENDROOT
BRANCH  10   9
ATOM      4  C   UNL     1     107.471  22.570  -9.676  0.00  0.00    +0.077 A 
ATOM      5  C   UNL     1     107.016  21.321 -10.215  0.00  0.00    +0.048 A 
ATOM      6  C   UNL     1     105.624  21.162 -10.400  0.00  0.00    +0.116 A 
ATOM      7  N   UNL     1     104.761  22.184 -10.068  0.00  0.00    -0.223 NA
ATOM      8  C   UNL     1     105.233  23.375  -9.548  0.00  0.00    +0.220 A 
ATOM      9  N   UNL     1     104.383  24.419  -9.213  0.00  0.00    -0.283 N 
ATOM     36  H   UNL     1     104.770  25.279  -8.826  0.00  0.00    +0.155 HD
ATOM     37  N   UNL     1     106.557  23.550  -9.360  0.00  0.00    -0.214 NA
BRANCH   4   3
ATOM      1  C   UNL     1     110.787  24.492  -8.897  0.00  0.00    +0.020 A 
ATOM      2  C   UNL     1     109.385  24.236  -9.131  0.00  0.00    +0.013 A 
ATOM      3  C   UNL     1     108.912  22.890  -9.426  0.00  0.00    +0.019 A 
ATOM     38  C   UNL     1     109.891  21.815  -9.475  0.00  0.00    +0.120 A 
ATOM     39  N   UNL     1     111.236  22.091  -9.246  0.00  0.00    -0.263 NA
ATOM     40  C   UNL     1     111.703  23.383  -8.964  0.00  0.00    +0.111 A 
ENDBRANCH   4   3
ENDBRANCH  10   9
BRANCH  12  13
ATOM     13  N   UNL     1     100.067  22.246  -8.029  0.00  0.00    -0.281 N 
ATOM     14  C   UNL     1      99.552  21.032  -8.453  0.00  0.00    +0.248 C 
ATOM     30  O   UNL     1      99.505  20.670  -9.620  0.00  0.00    -0.270 OA
ATOM     31  H   UNL     1      99.868  22.504  -7.062  0.00  0.00    +0.155 HD
BRANCH  14  15
ATOM     15  C   UNL     1      98.995  20.089  -7.436  0.00  0.00    +0.037 A 
ATOM     16  C   UNL     1      97.703  20.342  -6.793  0.00  0.00    +0.013 A 
ATOM     17  C   UNL     1      97.197  19.425  -5.802  0.00  0.00    +0.005 A 
ATOM     18  C   UNL     1      97.983  18.245  -5.450  0.00  0.00    -0.033 A 
ATOM     28  C   UNL     1      99.259  18.016  -6.108  0.00  0.00    +0.005 A 
ATOM     29  C   UNL     1      99.759  18.913  -7.079  0.00  0.00    +0.013 A 
BRANCH  18  19
ATOM     19  C   UNL     1      97.530  17.224  -4.390  0.00  0.00    +0.119 C 
BRANCH  19  20
ATOM     20  N   UNL     1      98.594  16.584  -3.559  0.00  0.00    -0.302 NA
ATOM     21  C   UNL     1      98.173  15.202  -3.052  0.00  0.00    +0.066 C 
ATOM     22  C   UNL     1      99.306  14.538  -2.203  0.00  0.00    -0.064 C 
ATOM     23  N   UNL     1      99.669  15.456  -1.035  0.00  0.00    +0.379 N 
ATOM     24  C   UNL     1     100.693  14.808  -0.202  0.00  0.00    -0.096 C 
ATOM     25  H   UNL     1      98.755  15.584  -0.409  0.00  0.00    -0.082 HD
ATOM     26  C   UNL     1     100.086  16.833  -1.530  0.00  0.00    -0.064 C 
ATOM     27  C   UNL     1      98.965  17.472  -2.396  0.00  0.00    +0.066 C 
ENDBRANCH  19  20
ENDBRANCH  18  19
ENDBRANCH  14  15
ENDBRANCH  12  13
TORSDOF 6
ENDMDL
MODEL 3
REMARK VINA RESULT:      -9.4      5.309     10.878
REMARK  Name = C:\Users\Docking\Desktop\test protocol\1iep_ligandH.pdb
REMARK  8 active torsions:
REMARK  status: ('A' for Active; 'I' for Inactive)
REMARK    1  A    between atoms: _5  and  _11
REMARK    2  A    between atoms: _19  and  _21
REMARK    3  A    between atoms: _22  and  _66
REMARK    4  A    between atoms: _27  and  _30
REMARK    5  A    between atoms: _32  and  _33
REMARK    6  A    between atoms: _38  and  _43
REMARK    7  A    between atoms: _43  and  _46
REMARK    8  A    between atoms: _53  and  _55
REMARK                            x       y       z     vdW  Elec       q    Type
REMARK                         _______ _______ _______ _____ _____    ______ ____
ROOT
ATOM     10  C   UNL     1     104.475  24.377 -10.388  0.00  0.00    +0.038 A 
ATOM     11  C   UNL     1     103.673  23.443  -9.684  0.00  0.00    +0.047 A 
ATOM     12  C   UNL     1     102.269  23.255 -10.015  0.00  0.00    +0.035 A 
ATOM     32  C   UNL     1     101.714  24.034 -11.071  0.00  0.00    +0.024 A 
ATOM     33  C   UNL     1     102.514  24.989 -11.797  0.00  0.00    +0.007 A 
ATOM     34  C   UNL     1     103.899  25.180 -11.473  0.00  0.00    -0.029 A 
ATOM     35  C   UNL     1     104.707  26.223 -12.281  0.00  0.00    +0.045 C 
ENDROOT
BRANCH  10   9
ATOM      4  C   UNL     1     108.816  22.557  -9.452  0.00  0.00    +0.077 A 
ATOM      5  C   UNL     1     108.366  21.213  -9.672  0.00  0.00    +0.048 A 
ATOM      6  C   UNL     1     107.008  21.033 -10.017  0.00  0.00    +0.116 A 
ATOM      7  N   UNL     1     106.172  22.122 -10.132  0.00  0.00    -0.223 NA
ATOM      8  C   UNL     1     106.638  23.405  -9.911  0.00  0.00    +0.220 A 
ATOM      9  N   UNL     1     105.817  24.516 -10.028  0.00  0.00    -0.283 N 
ATOM     36  H   UNL     1     106.197  25.445  -9.850  0.00  0.00    +0.155 HD
ATOM     37  N   UNL     1     107.930  23.604  -9.578  0.00  0.00    -0.214 NA
BRANCH   4   3
ATOM      1  C   UNL     1     112.604  22.304  -8.507  0.00  0.00    +0.020 A 
ATOM      2  C   UNL     1     111.259  21.910  -8.860  0.00  0.00    +0.013 A 
ATOM      3  C   UNL     1     110.224  22.911  -9.084  0.00  0.00    +0.019 A 
ATOM     38  C   UNL     1     110.584  24.313  -8.941  0.00  0.00    +0.120 A 
ATOM     39  N   UNL     1     111.887  24.663  -8.598  0.00  0.00    -0.263 NA
ATOM     40  C   UNL     1     112.891  23.709  -8.379  0.00  0.00    +0.111 A 
ENDBRANCH   4   3
ENDBRANCH  10   9
BRANCH  12  13
ATOM     13  N   UNL     1     101.404  22.327  -9.329  0.00  0.00    -0.281 N 
ATOM     14  C   UNL     1     100.746  21.228  -9.856  0.00  0.00    +0.248 C 
ATOM     30  O   UNL     1     100.632  20.998 -11.051  0.00  0.00    -0.270 OA
ATOM     31  H   UNL     1     101.259  22.503  -8.335  0.00  0.00    +0.155 HD
BRANCH  14  15
ATOM     15  C   UNL     1     100.112  20.250  -8.921  0.00  0.00    +0.037 A 
ATOM     16  C   UNL     1     100.333  18.808  -9.063  0.00  0.00    +0.013 A 
ATOM     17  C   UNL     1      99.695  17.886  -8.158  0.00  0.00    +0.005 A 
ATOM     18  C   UNL     1      98.830  18.403  -7.100  0.00  0.00    -0.033 A 
ATOM     28  C   UNL     1      98.632  19.838  -6.978  0.00  0.00    +0.005 A 
ATOM     29  C   UNL     1      99.255  20.745  -7.864  0.00  0.00    +0.013 A 
BRANCH  18  19
ATOM     19  C   UNL     1      98.092  17.490  -6.103  0.00  0.00    +0.119 C 
BRANCH  19  20
ATOM     20  N   UNL     1      98.344  17.721  -4.649  0.00  0.00    -0.302 NA
ATOM     21  C   UNL     1      99.823  17.996  -4.359  0.00  0.00    +0.066 C 
ATOM     22  C   UNL     1     100.065  18.258  -2.837  0.00  0.00    -0.064 C 
ATOM     23  N   UNL     1      99.570  17.056  -2.031  0.00  0.00    +0.379 N 
ATOM     24  C   UNL     1      99.849  17.274  -0.604  0.00  0.00    -0.096 C 
ATOM     25  H   UNL     1     100.155  16.166  -2.358  0.00  0.00    -0.082 HD
ATOM     26  C   UNL     1      98.101  16.774  -2.315  0.00  0.00    -0.064 C 
ATOM     27  C   UNL     1      97.867  16.545  -3.834  0.00  0.00    +0.066 C 
ENDBRANCH  19  20
ENDBRANCH  18  19
ENDBRANCH  14  15
ENDBRANCH  12  13
TORSDOF 6
ENDMDL
MODEL 4
REMARK VINA RESULT:      -8.4      7.487     14.241
REMARK  Name = C:\Users\Docking\Desktop\test protocol\1iep_ligandH.pdb
REMARK  8 active torsions:
REMARK  status: ('A' for Active; 'I' for Inactive)
REMARK    1  A    between atoms: _5  and  _11
REMARK    2  A    between atoms: _19  and  _21
REMARK    3  A    between atoms: _22  and  _66
REMARK    4  A    between atoms: _27  and  _30
REMARK    5  A    between atoms: _32  and  _33
REMARK    6  A    between atoms: _38  and  _43
REMARK    7  A    between atoms: _43  and  _46
REMARK    8  A    between atoms: _53  and  _55
REMARK                            x       y       z     vdW  Elec       q    Type
REMARK                         _______ _______ _______ _____ _____    ______ ____
ROOT
ATOM     10  C   UNL     1     101.804  27.109 -12.891  0.00  0.00    +0.038 A 
ATOM     11  C   UNL     1     101.153  28.226 -12.307  0.00  0.00    +0.047 A 
ATOM     12  C   UNL     1      99.947  28.786 -12.896  0.00  0.00    +0.035 A 
ATOM     32  C   UNL     1      99.429  28.182 -14.079  0.00  0.00    +0.024 A 
ATOM     33  C   UNL     1     100.079  27.047 -14.687  0.00  0.00    +0.007 A 
ATOM     34  C   UNL     1     101.271  26.492 -14.112  0.00  0.00    -0.029 A 
ATOM     35  C   UNL     1     101.929  25.279 -14.809  0.00  0.00    +0.045 C 
ENDROOT
BRANCH  10   9
ATOM      4  C   UNL     1     104.032  24.414  -9.603  0.00  0.00    +0.077 A 
ATOM      5  C   UNL     1     102.790  23.981  -9.031  0.00  0.00    +0.048 A 
ATOM      6  C   UNL     1     101.601  24.480  -9.607  0.00  0.00    +0.116 A 
ATOM      7  N   UNL     1     101.661  25.348 -10.677  0.00  0.00    -0.223 NA
ATOM      8  C   UNL     1     102.875  25.747 -11.203  0.00  0.00    +0.220 A 
ATOM      9  N   UNL     1     102.959  26.612 -12.283  0.00  0.00    -0.283 N 
ATOM     36  H   UNL     1     103.874  26.889 -12.638  0.00  0.00    +0.155 HD
ATOM     37  N   UNL     1     104.026  25.285 -10.670  0.00  0.00    -0.214 NA
BRANCH   4   3
ATOM      1  C   UNL     1     106.875  22.417  -7.806  0.00  0.00    +0.020 A 
ATOM      2  C   UNL     1     105.558  22.802  -8.258  0.00  0.00    +0.013 A 
ATOM      3  C   UNL     1     105.374  23.972  -9.107  0.00  0.00    +0.019 A 
ATOM     38  C   UNL     1     106.553  24.736  -9.486  0.00  0.00    +0.120 A 
ATOM     39  N   UNL     1     107.809  24.343  -9.034  0.00  0.00    -0.263 NA
ATOM     40  C   UNL     1     107.998  23.220  -8.215  0.00  0.00    +0.111 A 
ENDBRANCH   4   3
ENDBRANCH  10   9
BRANCH  12  13
ATOM     13  N   UNL     1      99.246  29.923 -12.353  0.00  0.00    -0.281 N 
ATOM     14  C   UNL     1      98.277  29.934 -11.363  0.00  0.00    +0.248 C 
ATOM     30  O   UNL     1      97.709  28.937 -10.942  0.00  0.00    -0.270 OA
ATOM     31  H   UNL     1      99.496  30.831 -12.746  0.00  0.00    +0.155 HD
BRANCH  14  15
ATOM     15  C   UNL     1      97.870  31.241 -10.764  0.00  0.00    +0.037 A 
ATOM     16  C   UNL     1      96.610  31.381 -10.030  0.00  0.00    +0.013 A 
ATOM     17  C   UNL     1      96.234  32.658  -9.477  0.00  0.00    +0.005 A 
ATOM     18  C   UNL     1      97.120  33.806  -9.656  0.00  0.00    -0.033 A 
ATOM     28  C   UNL     1      98.367  33.637 -10.384  0.00  0.00    +0.005 A 
ATOM     29  C   UNL     1      98.739  32.387 -10.929  0.00  0.00    +0.013 A 
BRANCH  18  19
ATOM     19  C   UNL     1      96.789  35.210  -9.118  0.00  0.00    +0.119 C 
BRANCH  19  20
ATOM     20  N   UNL     1      97.840  36.261  -9.258  0.00  0.00    -0.302 NA
ATOM     21  C   UNL     1      98.647  36.441  -7.969  0.00  0.00    +0.066 C 
ATOM     22  C   UNL     1      99.758  37.528  -8.139  0.00  0.00    -0.064 C 
ATOM     23  N   UNL     1      99.113  38.849  -8.563  0.00  0.00    +0.379 N 
ATOM     24  C   UNL     1     100.148  39.889  -8.668  0.00  0.00    -0.096 C 
ATOM     25  H   UNL     1      98.407  39.155  -7.756  0.00  0.00    -0.082 HD
ATOM     26  C   UNL     1      98.306  38.679  -9.842  0.00  0.00    -0.064 C 
ATOM     27  C   UNL     1      97.225  37.576  -9.672  0.00  0.00    +0.066 C 
ENDBRANCH  19  20
ENDBRANCH  18  19
ENDBRANCH  14  15
ENDBRANCH  12  13
TORSDOF 6
ENDMDL
MODEL 5
REMARK VINA RESULT:      -8.2      7.296     14.287
REMARK  Name = C:\Users\Docking\Desktop\test protocol\1iep_ligandH.pdb
REMARK  8 active torsions:
REMARK  status: ('A' for Active; 'I' for Inactive)
REMARK    1  A    between atoms: _5  and  _11
REMARK    2  A    between atoms: _19  and  _21
REMARK    3  A    between atoms: _22  and  _66
REMARK    4  A    between atoms: _27  and  _30
REMARK    5  A    between atoms: _32  and  _33
REMARK    6  A    between atoms: _38  and  _43
REMARK    7  A    between atoms: _43  and  _46
REMARK    8  A    between atoms: _53  and  _55
REMARK                            x       y       z     vdW  Elec       q    Type
REMARK                         _______ _______ _______ _____ _____    ______ ____
ROOT
ATOM     10  C   UNL     1     102.297  26.018 -11.762  0.00  0.00    +0.038 A 
ATOM     11  C   UNL     1     101.744  27.242 -11.307  0.00  0.00    +0.047 A 
ATOM     12  C   UNL     1     100.354  27.582 -11.567  0.00  0.00    +0.035 A 
ATOM     32  C   UNL     1      99.555  26.650 -12.292  0.00  0.00    +0.024 A 
ATOM     33  C   UNL     1     100.101  25.402 -12.762  0.00  0.00    +0.007 A 
ATOM     34  C   UNL     1     101.472  25.062 -12.511  0.00  0.00    -0.029 A 
ATOM     35  C   UNL     1     102.006  23.712 -13.045  0.00  0.00    +0.045 C 
ENDROOT
BRANCH  10   9
ATOM      4  C   UNL     1     105.738  23.982  -9.105  0.00  0.00    +0.077 A 
ATOM      5  C   UNL     1     104.785  23.445  -8.177  0.00  0.00    +0.048 A 
ATOM      6  C   UNL     1     103.420  23.721  -8.415  0.00  0.00    +0.116 A 
ATOM      7  N   UNL     1     103.047  24.479  -9.504  0.00  0.00    -0.223 NA
ATOM      8  C   UNL     1     103.991  24.984 -10.379  0.00  0.00    +0.220 A 
ATOM      9  N   UNL     1     103.638  25.742 -11.484  0.00  0.00    -0.283 N 
ATOM     36  H   UNL     1     104.365  26.102 -12.102  0.00  0.00    +0.155 HD
ATOM     37  N   UNL     1     105.301  24.735 -10.172  0.00  0.00    -0.214 NA
BRANCH   4   3
ATOM      1  C   UNL     1     109.609  24.461  -9.400  0.00  0.00    +0.020 A 
ATOM      2  C   UNL     1     108.192  24.708  -9.538  0.00  0.00    +0.013 A 
ATOM      3  C   UNL     1     107.216  23.775  -8.991  0.00  0.00    +0.019 A 
ATOM     38  C   UNL     1     107.710  22.591  -8.303  0.00  0.00    +0.120 A 
ATOM     39  N   UNL     1     109.081  22.379  -8.186  0.00  0.00    -0.263 NA
ATOM     40  C   UNL     1     110.029  23.270  -8.710  0.00  0.00    +0.111 A 
ENDBRANCH   4   3
ENDBRANCH  10   9
BRANCH  12  13
ATOM     13  N   UNL     1      99.740  28.814 -11.137  0.00  0.00    -0.281 N 
ATOM     14  C   UNL     1      99.069  29.746 -11.912  0.00  0.00    +0.248 C 
ATOM     30  O   UNL     1      99.081  29.767 -13.133  0.00  0.00    -0.270 OA
ATOM     31  H   UNL     1      99.807  29.023 -10.141  0.00  0.00    +0.155 HD
BRANCH  14  15
ATOM     15  C   UNL     1      98.283  30.819 -11.230  0.00  0.00    +0.037 A 
ATOM     16  C   UNL     1      98.730  32.214 -11.244  0.00  0.00    +0.013 A 
ATOM     17  C   UNL     1      97.962  33.227 -10.564  0.00  0.00    +0.005 A 
ATOM     18  C   UNL     1      96.737  32.848  -9.865  0.00  0.00    -0.033 A 
ATOM     28  C   UNL     1      96.313  31.457  -9.871  0.00  0.00    +0.005 A 
ATOM     29  C   UNL     1      97.064  30.462 -10.536  0.00  0.00    +0.013 A 
BRANCH  18  19
ATOM     19  C   UNL     1      95.866  33.858  -9.095  0.00  0.00    +0.119 C 
BRANCH  19  20
ATOM     20  N   UNL     1      96.567  34.994  -8.425  0.00  0.00    -0.302 NA
ATOM     21  C   UNL     1      95.988  35.289  -7.039  0.00  0.00    +0.066 C 
ATOM     22  C   UNL     1      96.748  36.465  -6.343  0.00  0.00    -0.064 C 
ATOM     23  N   UNL     1      96.682  37.708  -7.233  0.00  0.00    +0.379 N 
ATOM     24  C   UNL     1      97.345  38.832  -6.556  0.00  0.00    -0.096 C 
ATOM     25  H   UNL     1      95.607  37.976  -7.360  0.00  0.00    -0.082 HD
ATOM     26  C   UNL     1      97.253  37.423  -8.615  0.00  0.00    -0.064 C 
ATOM     27  C   UNL     1      96.510  36.233  -9.285  0.00  0.00    +0.066 C 
ENDBRANCH  19  20
ENDBRANCH  18  19
ENDBRANCH  14  15
ENDBRANCH  12  13
TORSDOF 6
ENDMDL
