MODEL 1
REMARK VINA RESULT:      -8.2      0.000      0.000
REMARK  Name = C:\Users\Docking\Desktop\test protocol\1iep_ligandH.pdb
REMARK  8 active torsions:
REMARK  status: ('A' for Active; 'I' for Inactive)
REMARK    1  A    between atoms: _5  and  _11
REMARK    2  A    between atoms: _19  and  _21
REMARK    3  A    between atoms: _22  and  _66
REMARK    4  A    between atoms: _27  and  _30
REMARK    5  A    between atoms: _32  and  _33
REMARK    6  A    between atoms: _38  and  _43
REMARK    7  A    between atoms: _43  and  _46
REMARK    8  A    between atoms: _53  and  _55
REMARK                            x       y       z     vdW  Elec       q    Type
REMARK                         _______ _______ _______ _____ _____    ______ ____
ROOT
ATOM     10  C   UNL     1     -11.383 -21.959  25.185  0.00  0.00    +0.038 A 
ATOM     11  C   UNL     1     -12.207 -20.811  25.298  0.00  0.00    +0.047 A 
ATOM     12  C   UNL     1     -12.125 -19.937  26.458  0.00  0.00    +0.035 A 
ATOM     32  C   UNL     1     -11.190 -20.262  27.484  0.00  0.00    +0.024 A 
ATOM     33  C   UNL     1     -10.346 -21.426  27.386  0.00  0.00    +0.007 A 
ATOM     34  C   UNL     1     -10.424 -22.293  26.245  0.00  0.00    -0.029 A 
ATOM     35  C   UNL     1      -9.499 -23.531  26.197  0.00  0.00    +0.045 C 
ENDROOT
BRANCH  10   9
ATOM      4  C   UNL     1     -13.303 -25.655  22.800  0.00  0.00    +0.077 A 
ATOM      5  C   UNL     1     -14.117 -26.032  23.920  0.00  0.00    +0.048 A 
ATOM      6  C   UNL     1     -14.006 -25.253  25.093  0.00  0.00    +0.116 A 
ATOM      7  N   UNL     1     -13.143 -24.179  25.133  0.00  0.00    -0.223 NA
ATOM      8  C   UNL     1     -12.372 -23.844  24.035  0.00  0.00    +0.220 A 
ATOM      9  N   UNL     1     -11.503 -22.763  24.049  0.00  0.00    -0.283 N 
ATOM     36  H   UNL     1     -10.946 -22.553  23.222  0.00  0.00    +0.155 HD
ATOM     37  N   UNL     1     -12.458 -24.573  22.903  0.00  0.00    -0.214 NA
BRANCH   4   3
ATOM      1  C   UNL     1     -14.045 -28.259  19.976  0.00  0.00    +0.020 A 
ATOM      2  C   UNL     1     -14.071 -27.600  21.262  0.00  0.00    +0.013 A 
ATOM      3  C   UNL     1     -13.311 -26.378  21.488  0.00  0.00    +0.019 A 
ATOM     38  C   UNL     1     -12.529 -25.843  20.384  0.00  0.00    +0.120 A 
ATOM     39  N   UNL     1     -12.521 -26.499  19.157  0.00  0.00    -0.263 NA
ATOM     40  C   UNL     1     -13.247 -27.678  18.928  0.00  0.00    +0.111 A 
ENDBRANCH   4   3
ENDBRANCH  10   9
BRANCH  12  13
ATOM     13  N   UNL     1     -12.942 -18.761  26.631  0.00  0.00    -0.281 N 
ATOM     14  C   UNL     1     -13.154 -17.731  25.729  0.00  0.00    +0.248 C 
ATOM     30  O   UNL     1     -12.500 -17.558  24.712  0.00  0.00    -0.270 OA
ATOM     31  H   UNL     1     -13.422 -18.678  27.527  0.00  0.00    +0.155 HD
BRANCH  14  15
ATOM     15  C   UNL     1     -14.240 -16.742  26.005  0.00  0.00    +0.037 A 
ATOM     16  C   UNL     1     -15.559 -17.173  26.475  0.00  0.00    +0.013 A 
ATOM     17  C   UNL     1     -16.594 -16.199  26.717  0.00  0.00    +0.005 A 
ATOM     18  C   UNL     1     -16.313 -14.784  26.491  0.00  0.00    -0.033 A 
ATOM     28  C   UNL     1     -14.994 -14.383  26.030  0.00  0.00    +0.005 A 
ATOM     29  C   UNL     1     -13.977 -15.335  25.791  0.00  0.00    +0.013 A 
BRANCH  18  19
ATOM     19  C   UNL     1     -17.364 -13.678  26.703  0.00  0.00    +0.119 C 
BRANCH  19  20
ATOM     20  N   UNL     1     -16.860 -12.301  26.987  0.00  0.00    -0.302 NA
ATOM     21  C   UNL     1     -16.624 -12.072  28.483  0.00  0.00    +0.066 C 
ATOM     22  C   UNL     1     -16.076 -10.634  28.759  0.00  0.00    -0.064 C 
ATOM     23  N   UNL     1     -17.057  -9.602  28.201  0.00  0.00    +0.379 N 
ATOM     24  C   UNL     1     -16.573  -8.248  28.510  0.00  0.00    -0.096 C 
ATOM     25  H   UNL     1     -18.030  -9.741  28.726  0.00  0.00    -0.082 HD
ATOM     26  C   UNL     1     -17.299  -9.824  26.714  0.00  0.00    -0.064 C 
ATOM     27  C   UNL     1     -17.815 -11.265  26.448  0.00  0.00    +0.066 C 
ENDBRANCH  19  20
ENDBRANCH  18  19
ENDBRANCH  14  15
ENDBRANCH  12  13
TORSDOF 6
ENDMDL
MODEL 2
REMARK VINA RESULT:      -7.8      1.803      2.202
REMARK  Name = C:\Users\Docking\Desktop\test protocol\1iep_ligandH.pdb
REMARK  8 active torsions:
REMARK  status: ('A' for Active; 'I' for Inactive)
REMARK    1  A    between atoms: _5  and  _11
REMARK    2  A    between atoms: _19  and  _21
REMARK    3  A    between atoms: _22  and  _66
REMARK    4  A    between atoms: _27  and  _30
REMARK    5  A    between atoms: _32  and  _33
REMARK    6  A    between atoms: _38  and  _43
REMARK    7  A    between atoms: _43  and  _46
REMARK    8  A    between atoms: _53  and  _55
REMARK                            x       y       z     vdW  Elec       q    Type
REMARK                         _______ _______ _______ _____ _____    ______ ____
ROOT
ATOM     10  C   UNL     1     -11.440 -21.788  25.194  0.00  0.00    +0.038 A 
ATOM     11  C   UNL     1     -12.132 -20.557  25.062  0.00  0.00    +0.047 A 
ATOM     12  C   UNL     1     -12.017 -19.517  26.073  0.00  0.00    +0.035 A 
ATOM     32  C   UNL     1     -11.187 -19.764  27.205  0.00  0.00    +0.024 A 
ATOM     33  C   UNL     1     -10.478 -21.010  27.356  0.00  0.00    +0.007 A 
ATOM     34  C   UNL     1     -10.589 -22.040  26.363  0.00  0.00    -0.029 A 
ATOM     35  C   UNL     1      -9.811 -23.359  26.580  0.00  0.00    +0.045 C 
ENDROOT
BRANCH  10   9
ATOM      4  C   UNL     1     -13.709 -25.527  23.216  0.00  0.00    +0.077 A 
ATOM      5  C   UNL     1     -14.668 -25.583  24.281  0.00  0.00    +0.048 A 
ATOM      6  C   UNL     1     -14.539 -24.637  25.322  0.00  0.00    +0.116 A 
ATOM      7  N   UNL     1     -13.522 -23.708  25.290  0.00  0.00    -0.223 NA
ATOM      8  C   UNL     1     -12.612 -23.682  24.249  0.00  0.00    +0.220 A 
ATOM      9  N   UNL     1     -11.586 -22.751  24.193  0.00  0.00    -0.283 N 
ATOM     36  H   UNL     1     -10.931 -22.769  23.412  0.00  0.00    +0.155 HD
ATOM     37  N   UNL     1     -12.713 -24.576  23.244  0.00  0.00    -0.214 NA
BRANCH   4   3
ATOM      1  C   UNL     1     -14.816 -28.170  20.554  0.00  0.00    +0.020 A 
ATOM      2  C   UNL     1     -14.861 -27.289  21.698  0.00  0.00    +0.013 A 
ATOM      3  C   UNL     1     -13.715 -26.457  22.043  0.00  0.00    +0.019 A 
ATOM     38  C   UNL     1     -12.530 -26.540  21.203  0.00  0.00    +0.120 A 
ATOM     39  N   UNL     1     -12.515 -27.399  20.108  0.00  0.00    -0.263 NA
ATOM     40  C   UNL     1     -13.611 -28.206  19.768  0.00  0.00    +0.111 A 
ENDBRANCH   4   3
ENDBRANCH  10   9
BRANCH  12  13
ATOM     13  N   UNL     1     -12.702 -18.250  25.997  0.00  0.00    -0.281 N 
ATOM     14  C   UNL     1     -12.943 -17.479  24.872  0.00  0.00    +0.248 C 
ATOM     30  O   UNL     1     -12.417 -17.660  23.784  0.00  0.00    -0.270 OA
ATOM     31  H   UNL     1     -13.051 -17.877  26.879  0.00  0.00    +0.155 HD
BRANCH  14  15
ATOM     15  C   UNL     1     -13.896 -16.332  24.973  0.00  0.00    +0.037 A 
ATOM     16  C   UNL     1     -13.792 -15.351  26.057  0.00  0.00    +0.013 A 
ATOM     17  C   UNL     1     -14.735 -14.264  26.141  0.00  0.00    +0.005 A 
ATOM     18  C   UNL     1     -15.790 -14.151  25.137  0.00  0.00    -0.033 A 
ATOM     28  C   UNL     1     -15.867 -15.135  24.070  0.00  0.00    +0.005 A 
ATOM     29  C   UNL     1     -14.945 -16.203  23.985  0.00  0.00    +0.013 A 
BRANCH  18  19
ATOM     19  C   UNL     1     -16.851 -13.036  25.161  0.00  0.00    +0.119 C 
BRANCH  19  20
ATOM     20  N   UNL     1     -16.509 -11.751  24.482  0.00  0.00    -0.302 NA
ATOM     21  C   UNL     1     -17.051 -10.537  25.242  0.00  0.00    +0.066 C 
ATOM     22  C   UNL     1     -16.664  -9.200  24.529  0.00  0.00    -0.064 C 
ATOM     23  N   UNL     1     -17.190  -9.220  23.093  0.00  0.00    +0.379 N 
ATOM     24  C   UNL     1     -16.879  -7.941  22.439  0.00  0.00    -0.096 C 
ATOM     25  H   UNL     1     -18.300  -9.314  23.141  0.00  0.00    -0.082 HD
ATOM     26  C   UNL     1     -16.658 -10.425  22.331  0.00  0.00    -0.064 C 
ATOM     27  C   UNL     1     -17.023 -11.747  23.063  0.00  0.00    +0.066 C 
ENDBRANCH  19  20
ENDBRANCH  18  19
ENDBRANCH  14  15
ENDBRANCH  12  13
TORSDOF 6
ENDMDL
MODEL 3
REMARK VINA RESULT:      -7.8      6.059     12.769
REMARK  Name = C:\Users\Docking\Desktop\test protocol\1iep_ligandH.pdb
REMARK  8 active torsions:
REMARK  status: ('A' for Active; 'I' for Inactive)
REMARK    1  A    between atoms: _5  and  _11
REMARK    2  A    between atoms: _19  and  _21
REMARK    3  A    between atoms: _22  and  _66
REMARK    4  A    between atoms: _27  and  _30
REMARK    5  A    between atoms: _32  and  _33
REMARK    6  A    between atoms: _38  and  _43
REMARK    7  A    between atoms: _43  and  _46
REMARK    8  A    between atoms: _53  and  _55
REMARK                            x       y       z     vdW  Elec       q    Type
REMARK                         _______ _______ _______ _____ _____    ______ ____
ROOT
ATOM     10  C   UNL     1     -13.001 -18.094  24.918  0.00  0.00    +0.038 A 
ATOM     11  C   UNL     1     -13.291 -18.009  23.532  0.00  0.00    +0.047 A 
ATOM     12  C   UNL     1     -13.115 -19.156  22.655  0.00  0.00    +0.035 A 
ATOM     32  C   UNL     1     -12.646 -20.376  23.224  0.00  0.00    +0.024 A 
ATOM     33  C   UNL     1     -12.345 -20.480  24.630  0.00  0.00    +0.007 A 
ATOM     34  C   UNL     1     -12.514 -19.351  25.500  0.00  0.00    -0.029 A 
ATOM     35  C   UNL     1     -12.170 -19.517  26.998  0.00  0.00    +0.045 C 
ENDROOT
BRANCH  10   9
ATOM      4  C   UNL     1     -15.192 -13.945  25.929  0.00  0.00    +0.077 A 
ATOM      5  C   UNL     1     -16.017 -14.028  24.758  0.00  0.00    +0.048 A 
ATOM      6  C   UNL     1     -15.841 -15.150  23.918  0.00  0.00    +0.116 A 
ATOM      7  N   UNL     1     -14.908 -16.112  24.235  0.00  0.00    -0.223 NA
ATOM      8  C   UNL     1     -14.127 -16.002  25.371  0.00  0.00    +0.220 A 
ATOM      9  N   UNL     1     -13.187 -16.962  25.714  0.00  0.00    -0.283 N 
ATOM     36  H   UNL     1     -12.626 -16.840  26.556  0.00  0.00    +0.155 HD
ATOM     37  N   UNL     1     -14.275 -14.939  26.189  0.00  0.00    -0.214 NA
BRANCH   4   3
ATOM      1  C   UNL     1     -14.285 -10.817  28.096  0.00  0.00    +0.020 A 
ATOM      2  C   UNL     1     -14.166 -11.886  27.130  0.00  0.00    +0.013 A 
ATOM      3  C   UNL     1     -15.263 -12.822  26.916  0.00  0.00    +0.019 A 
ATOM     38  C   UNL     1     -16.476 -12.648  27.700  0.00  0.00    +0.120 A 
ATOM     39  N   UNL     1     -16.561 -11.610  28.624  0.00  0.00    -0.263 NA
ATOM     40  C   UNL     1     -15.512 -10.705  28.840  0.00  0.00    +0.111 A 
ENDBRANCH   4   3
ENDBRANCH  10   9
BRANCH  12  13
ATOM     13  N   UNL     1     -13.386 -19.127  21.239  0.00  0.00    -0.281 N 
ATOM     14  C   UNL     1     -12.537 -18.732  20.218  0.00  0.00    +0.248 C 
ATOM     30  O   UNL     1     -11.483 -18.137  20.387  0.00  0.00    -0.270 OA
ATOM     31  H   UNL     1     -14.315 -19.436  20.955  0.00  0.00    +0.155 HD
BRANCH  14  15
ATOM     15  C   UNL     1     -12.922 -19.026  18.804  0.00  0.00    +0.037 A 
ATOM     16  C   UNL     1     -12.417 -18.214  17.694  0.00  0.00    +0.013 A 
ATOM     17  C   UNL     1     -12.818 -18.510  16.341  0.00  0.00    +0.005 A 
ATOM     18  C   UNL     1     -13.728 -19.625  16.091  0.00  0.00    -0.033 A 
ATOM     28  C   UNL     1     -14.209 -20.417  17.210  0.00  0.00    +0.005 A 
ATOM     29  C   UNL     1     -13.820 -20.130  18.538  0.00  0.00    +0.013 A 
BRANCH  18  19
ATOM     19  C   UNL     1     -14.224 -19.999  14.682  0.00  0.00    +0.119 C 
BRANCH  19  20
ATOM     20  N   UNL     1     -13.405 -19.535  13.523  0.00  0.00    -0.302 NA
ATOM     21  C   UNL     1     -14.270 -18.920  12.418  0.00  0.00    +0.066 C 
ATOM     22  C   UNL     1     -13.395 -18.420  11.223  0.00  0.00    -0.064 C 
ATOM     23  N   UNL     1     -12.567 -19.585  10.678  0.00  0.00    +0.379 N 
ATOM     24  C   UNL     1     -11.787 -19.131   9.517  0.00  0.00    -0.096 C 
ATOM     25  H   UNL     1     -13.278 -20.367  10.323  0.00  0.00    -0.082 HD
ATOM     26  C   UNL     1     -11.707 -20.204  11.770  0.00  0.00    -0.064 C 
ATOM     27  C   UNL     1     -12.583 -20.671  12.965  0.00  0.00    +0.066 C 
ENDBRANCH  19  20
ENDBRANCH  18  19
ENDBRANCH  14  15
ENDBRANCH  12  13
TORSDOF 6
ENDMDL
MODEL 4
REMARK VINA RESULT:      -7.6      7.053     12.173
REMARK  Name = C:\Users\Docking\Desktop\test protocol\1iep_ligandH.pdb
REMARK  8 active torsions:
REMARK  status: ('A' for Active; 'I' for Inactive)
REMARK    1  A    between atoms: _5  and  _11
REMARK    2  A    between atoms: _19  and  _21
REMARK    3  A    between atoms: _22  and  _66
REMARK    4  A    between atoms: _27  and  _30
REMARK    5  A    between atoms: _32  and  _33
REMARK    6  A    between atoms: _38  and  _43
REMARK    7  A    between atoms: _43  and  _46
REMARK    8  A    between atoms: _53  and  _55
REMARK                            x       y       z     vdW  Elec       q    Type
REMARK                         _______ _______ _______ _____ _____    ______ ____
ROOT
ATOM     10  C   UNL     1     -15.373 -10.594  26.189  0.00  0.00    +0.038 A 
ATOM     11  C   UNL     1     -15.532  -9.988  24.917  0.00  0.00    +0.047 A 
ATOM     12  C   UNL     1     -16.182  -8.694  24.776  0.00  0.00    +0.035 A 
ATOM     32  C   UNL     1     -16.655  -8.044  25.952  0.00  0.00    +0.024 A 
ATOM     33  C   UNL     1     -16.503  -8.646  27.253  0.00  0.00    +0.007 A 
ATOM     34  C   UNL     1     -15.865  -9.924  27.398  0.00  0.00    -0.029 A 
ATOM     35  C   UNL     1     -15.735 -10.525  28.817  0.00  0.00    +0.045 C 
ENDROOT
BRANCH  10   9
ATOM      4  C   UNL     1     -15.380 -15.377  25.787  0.00  0.00    +0.077 A 
ATOM      5  C   UNL     1     -16.766 -15.403  25.418  0.00  0.00    +0.048 A 
ATOM      6  C   UNL     1     -17.443 -14.165  25.350  0.00  0.00    +0.116 A 
ATOM      7  N   UNL     1     -16.773 -12.994  25.632  0.00  0.00    -0.223 NA
ATOM      8  C   UNL     1     -15.437 -13.004  25.986  0.00  0.00    +0.220 A 
ATOM      9  N   UNL     1     -14.742 -11.837  26.266  0.00  0.00    -0.283 N 
ATOM     36  H   UNL     1     -13.758 -11.888  26.531  0.00  0.00    +0.155 HD
ATOM     37  N   UNL     1     -14.769 -14.174  26.060  0.00  0.00    -0.214 NA
BRANCH   4   3
ATOM      1  C   UNL     1     -12.346 -17.842  25.634  0.00  0.00    +0.020 A 
ATOM      2  C   UNL     1     -13.125 -16.631  25.505  0.00  0.00    +0.013 A 
ATOM      3  C   UNL     1     -14.528 -16.603  25.899  0.00  0.00    +0.019 A 
ATOM     38  C   UNL     1     -15.117 -17.825  26.425  0.00  0.00    +0.120 A 
ATOM     39  N   UNL     1     -14.343 -18.976  26.536  0.00  0.00    -0.263 NA
ATOM     40  C   UNL     1     -12.993 -19.016  26.159  0.00  0.00    +0.111 A 
ENDBRANCH   4   3
ENDBRANCH  10   9
BRANCH  12  13
ATOM     13  N   UNL     1     -16.379  -8.033  23.509  0.00  0.00    -0.281 N 
ATOM     14  C   UNL     1     -16.359  -8.595  22.243  0.00  0.00    +0.248 C 
ATOM     30  O   UNL     1     -15.955  -9.721  21.993  0.00  0.00    -0.270 OA
ATOM     31  H   UNL     1     -16.554  -7.029  23.551  0.00  0.00    +0.155 HD
BRANCH  14  15
ATOM     15  C   UNL     1     -16.845  -7.784  21.086  0.00  0.00    +0.037 A 
ATOM     16  C   UNL     1     -18.226  -7.894  20.607  0.00  0.00    +0.013 A 
ATOM     17  C   UNL     1     -18.664  -7.113  19.478  0.00  0.00    +0.005 A 
ATOM     18  C   UNL     1     -17.720  -6.214  18.819  0.00  0.00    -0.033 A 
ATOM     28  C   UNL     1     -16.358  -6.120  19.318  0.00  0.00    +0.005 A 
ATOM     29  C   UNL     1     -15.924  -6.885  20.424  0.00  0.00    +0.013 A 
BRANCH  18  19
ATOM     19  C   UNL     1     -18.095  -5.358  17.595  0.00  0.00    +0.119 C 
BRANCH  19  20
ATOM     20  N   UNL     1     -17.391  -5.656  16.312  0.00  0.00    -0.302 NA
ATOM     21  C   UNL     1     -17.840  -4.726  15.181  0.00  0.00    +0.066 C 
ATOM     22  C   UNL     1     -17.077  -5.036  13.852  0.00  0.00    -0.064 C 
ATOM     23  N   UNL     1     -17.300  -6.500  13.469  0.00  0.00    +0.379 N 
ATOM     24  C   UNL     1     -16.632  -6.780  12.190  0.00  0.00    -0.096 C 
ATOM     25  H   UNL     1     -18.395  -6.647  13.319  0.00  0.00    -0.082 HD
ATOM     26  C   UNL     1     -16.859  -7.432  14.589  0.00  0.00    -0.064 C 
ATOM     27  C   UNL     1     -17.601  -7.096  15.913  0.00  0.00    +0.066 C 
ENDBRANCH  19  20
ENDBRANCH  18  19
ENDBRANCH  14  15
ENDBRANCH  12  13
TORSDOF 6
ENDMDL
MODEL 5
REMARK VINA RESULT:      -7.6      4.827     14.575
REMARK  Name = C:\Users\Docking\Desktop\test protocol\1iep_ligandH.pdb
REMARK  8 active torsions:
REMARK  status: ('A' for Active; 'I' for Inactive)
REMARK    1  A    between atoms: _5  and  _11
REMARK    2  A    between atoms: _19  and  _21
REMARK    3  A    between atoms: _22  and  _66
REMARK    4  A    between atoms: _27  and  _30
REMARK    5  A    between atoms: _32  and  _33
REMARK    6  A    between atoms: _38  and  _43
REMARK    7  A    between atoms: _43  and  _46
REMARK    8  A    between atoms: _53  and  _55
REMARK                            x       y       z     vdW  Elec       q    Type
REMARK                         _______ _______ _______ _____ _____    ______ ____
ROOT
ATOM     10  C   UNL     1     -15.867  -9.300  26.336  0.00  0.00    +0.038 A 
ATOM     11  C   UNL     1     -15.431 -10.550  25.827  0.00  0.00    +0.047 A 
ATOM     12  C   UNL     1     -15.190 -11.679  26.712  0.00  0.00    +0.035 A 
ATOM     32  C   UNL     1     -15.405 -11.501  28.109  0.00  0.00    +0.024 A 
ATOM     33  C   UNL     1     -15.847 -10.236  28.643  0.00  0.00    +0.007 A 
ATOM     34  C   UNL     1     -16.084  -9.118  27.776  0.00  0.00    -0.029 A 
ATOM     35  C   UNL     1     -16.550  -7.784  28.404  0.00  0.00    +0.045 C 
ENDROOT
BRANCH  10   9
ATOM      4  C   UNL     1     -18.610  -6.889  23.221  0.00  0.00    +0.077 A 
ATOM      5  C   UNL     1     -19.695  -7.816  23.369  0.00  0.00    +0.048 A 
ATOM      6  C   UNL     1     -19.504  -8.903  24.250  0.00  0.00    +0.116 A 
ATOM      7  N   UNL     1     -18.313  -9.043  24.929  0.00  0.00    -0.223 NA
ATOM      8  C   UNL     1     -17.286  -8.132  24.762  0.00  0.00    +0.220 A 
ATOM      9  N   UNL     1     -16.083  -8.249  25.441  0.00  0.00    -0.283 N 
ATOM     36  H   UNL     1     -15.347  -7.560  25.285  0.00  0.00    +0.155 HD
ATOM     37  N   UNL     1     -17.443  -7.086  23.925  0.00  0.00    -0.214 NA
BRANCH   4   3
ATOM      1  C   UNL     1     -17.681  -4.164  20.573  0.00  0.00    +0.020 A 
ATOM      2  C   UNL     1     -17.582  -5.334  21.414  0.00  0.00    +0.013 A 
ATOM      3  C   UNL     1     -18.661  -5.688  22.329  0.00  0.00    +0.019 A 
ATOM     38  C   UNL     1     -19.835  -4.829  22.369  0.00  0.00    +0.120 A 
ATOM     39  N   UNL     1     -19.901  -3.707  21.548  0.00  0.00    -0.263 NA
ATOM     40  C   UNL     1     -18.869  -3.356  20.665  0.00  0.00    +0.111 A 
ENDBRANCH   4   3
ENDBRANCH  10   9
BRANCH  12  13
ATOM     13  N   UNL     1     -14.740 -12.970  26.254  0.00  0.00    -0.281 N 
ATOM     14  C   UNL     1     -15.504 -14.097  25.998  0.00  0.00    +0.248 C 
ATOM     30  O   UNL     1     -16.672 -14.230  26.331  0.00  0.00    -0.270 OA
ATOM     31  H   UNL     1     -13.736 -13.065  26.100  0.00  0.00    +0.155 HD
BRANCH  14  15
ATOM     15  C   UNL     1     -14.875 -15.249  25.283  0.00  0.00    +0.037 A 
ATOM     16  C   UNL     1     -13.666 -15.896  25.799  0.00  0.00    +0.013 A 
ATOM     17  C   UNL     1     -13.070 -16.994  25.080  0.00  0.00    +0.005 A 
ATOM     18  C   UNL     1     -13.684 -17.453  23.836  0.00  0.00    -0.033 A 
ATOM     28  C   UNL     1     -14.886 -16.796  23.349  0.00  0.00    +0.005 A 
ATOM     29  C   UNL     1     -15.473 -15.719  24.051  0.00  0.00    +0.013 A 
BRANCH  18  19
ATOM     19  C   UNL     1     -13.104 -18.603  22.992  0.00  0.00    +0.119 C 
BRANCH  19  20
ATOM     20  N   UNL     1     -13.438 -18.619  21.536  0.00  0.00    -0.302 NA
ATOM     21  C   UNL     1     -14.186 -19.892  21.132  0.00  0.00    +0.066 C 
ATOM     22  C   UNL     1     -14.546 -19.881  19.610  0.00  0.00    -0.064 C 
ATOM     23  N   UNL     1     -13.267 -19.720  18.787  0.00  0.00    +0.379 N 
ATOM     24  C   UNL     1     -13.596 -19.767  17.355  0.00  0.00    -0.096 C 
ATOM     25  H   UNL     1     -12.608 -20.590  19.012  0.00  0.00    -0.082 HD
ATOM     26  C   UNL     1     -12.516 -18.457  19.185  0.00  0.00    -0.064 C 
ATOM     27  C   UNL     1     -12.188 -18.465  20.704  0.00  0.00    +0.066 C 
ENDBRANCH  19  20
ENDBRANCH  18  19
ENDBRANCH  14  15
ENDBRANCH  12  13
TORSDOF 6
ENDMDL
