MODEL 1
REMARK VINA RESULT:      -7.9      0.000      0.000
REMARK  Name = C:\Users\Docking\Desktop\test protocol\1iep_ligandH.pdb
REMARK  8 active torsions:
REMARK  status: ('A' for Active; 'I' for Inactive)
REMARK    1  A    between atoms: _5  and  _11
REMARK    2  A    between atoms: _19  and  _21
REMARK    3  A    between atoms: _22  and  _66
REMARK    4  A    between atoms: _27  and  _30
REMARK    5  A    between atoms: _32  and  _33
REMARK    6  A    between atoms: _38  and  _43
REMARK    7  A    between atoms: _43  and  _46
REMARK    8  A    between atoms: _53  and  _55
REMARK                            x       y       z     vdW  Elec       q    Type
REMARK                         _______ _______ _______ _____ _____    ______ ____
ROOT
ATOM     10  C   UNL     1      60.327  70.917 105.363  0.00  0.00    +0.038 A 
ATOM     11  C   UNL     1      61.291  70.575 104.381  0.00  0.00    +0.047 A 
ATOM     12  C   UNL     1      60.902  70.309 103.005  0.00  0.00    +0.035 A 
ATOM     32  C   UNL     1      59.521  70.404 102.663  0.00  0.00    +0.024 A 
ATOM     33  C   UNL     1      58.528  70.750 103.650  0.00  0.00    +0.007 A 
ATOM     34  C   UNL     1      58.906  71.010 105.009  0.00  0.00    -0.029 A 
ATOM     35  C   UNL     1      57.798  71.371 106.026  0.00  0.00    +0.045 C 
ENDROOT
BRANCH  10   9
ATOM      4  C   UNL     1      61.631  73.884 108.904  0.00  0.00    +0.077 A 
ATOM      5  C   UNL     1      61.468  75.042 108.073  0.00  0.00    +0.048 A 
ATOM      6  C   UNL     1      61.054  74.831 106.739  0.00  0.00    +0.116 A 
ATOM      7  N   UNL     1      60.823  73.552 106.280  0.00  0.00    -0.223 NA
ATOM      8  C   UNL     1      60.991  72.457 107.107  0.00  0.00    +0.220 A 
ATOM      9  N   UNL     1      60.757  71.162 106.669  0.00  0.00    -0.283 N 
ATOM     36  H   UNL     1      60.900  70.380 107.308  0.00  0.00    +0.155 HD
ATOM     37  N   UNL     1      61.388  72.632 108.385  0.00  0.00    -0.214 NA
BRANCH   4   3
ATOM      1  C   UNL     1      62.216  75.093 112.578  0.00  0.00    +0.020 A 
ATOM      2  C   UNL     1      61.780  75.085 111.200  0.00  0.00    +0.013 A 
ATOM      3  C   UNL     1      62.060  73.945 110.337  0.00  0.00    +0.019 A 
ATOM     38  C   UNL     1      62.789  72.819 110.903  0.00  0.00    +0.120 A 
ATOM     39  N   UNL     1      63.198  72.856 112.232  0.00  0.00    -0.263 NA
ATOM     40  C   UNL     1      62.935  73.948 113.072  0.00  0.00    +0.111 A 
ENDBRANCH   4   3
ENDBRANCH  10   9
BRANCH  12  13
ATOM     13  N   UNL     1      61.835  69.949 101.966  0.00  0.00    -0.281 N 
ATOM     14  C   UNL     1      62.016  68.708 101.377  0.00  0.00    +0.248 C 
ATOM     30  O   UNL     1      61.548  67.664 101.806  0.00  0.00    -0.270 OA
ATOM     31  H   UNL     1      62.434  70.700 101.623  0.00  0.00    +0.155 HD
BRANCH  14  15
ATOM     15  C   UNL     1      62.850  68.611 100.141  0.00  0.00    +0.037 A 
ATOM     16  C   UNL     1      62.443  67.769  99.013  0.00  0.00    +0.013 A 
ATOM     17  C   UNL     1      63.274  67.680  97.839  0.00  0.00    +0.005 A 
ATOM     18  C   UNL     1      64.523  68.437  97.787  0.00  0.00    -0.033 A 
ATOM     28  C   UNL     1      64.900  69.269  98.917  0.00  0.00    +0.005 A 
ATOM     29  C   UNL     1      64.088  69.358 100.070  0.00  0.00    +0.013 A 
BRANCH  18  19
ATOM     19  C   UNL     1      65.482  68.386  96.583  0.00  0.00    +0.119 C 
BRANCH  19  20
ATOM     20  N   UNL     1      65.323  67.247  95.630  0.00  0.00    -0.302 NA
ATOM     21  C   UNL     1      66.585  66.384  95.550  0.00  0.00    +0.066 C 
ATOM     22  C   UNL     1      66.393  65.184  94.566  0.00  0.00    -0.064 C 
ATOM     23  N   UNL     1      66.014  65.719  93.183  0.00  0.00    +0.379 N 
ATOM     24  C   UNL     1      65.889  64.597  92.241  0.00  0.00    -0.096 C 
ATOM     25  H   UNL     1      66.850  66.366  92.830  0.00  0.00    -0.082 HD
ATOM     26  C   UNL     1      64.761  66.581  93.254  0.00  0.00    -0.064 C 
ATOM     27  C   UNL     1      64.952  67.752  94.257  0.00  0.00    +0.066 C 
ENDBRANCH  19  20
ENDBRANCH  18  19
ENDBRANCH  14  15
ENDBRANCH  12  13
TORSDOF 6
ENDMDL
MODEL 2
REMARK VINA RESULT:      -7.4     21.313     23.075
REMARK  Name = C:\Users\Docking\Desktop\test protocol\1iep_ligandH.pdb
REMARK  8 active torsions:
REMARK  status: ('A' for Active; 'I' for Inactive)
REMARK    1  A    between atoms: _5  and  _11
REMARK    2  A    between atoms: _19  and  _21
REMARK    3  A    between atoms: _22  and  _66
REMARK    4  A    between atoms: _27  and  _30
REMARK    5  A    between atoms: _32  and  _33
REMARK    6  A    between atoms: _38  and  _43
REMARK    7  A    between atoms: _43  and  _46
REMARK    8  A    between atoms: _53  and  _55
REMARK                            x       y       z     vdW  Elec       q    Type
REMARK                         _______ _______ _______ _____ _____    ______ ____
ROOT
ATOM     10  C   UNL     1      61.077  46.086 103.706  0.00  0.00    +0.038 A 
ATOM     11  C   UNL     1      60.267  46.933 102.907  0.00  0.00    +0.047 A 
ATOM     12  C   UNL     1      60.314  46.869 101.455  0.00  0.00    +0.035 A 
ATOM     32  C   UNL     1      61.195  45.927 100.848  0.00  0.00    +0.024 A 
ATOM     33  C   UNL     1      62.026  45.059 101.644  0.00  0.00    +0.007 A 
ATOM     34  C   UNL     1      61.987  45.119 103.077  0.00  0.00    -0.029 A 
ATOM     35  C   UNL     1      62.905  44.169 103.881  0.00  0.00    +0.045 C 
ENDROOT
BRANCH  10   9
ATOM      4  C   UNL     1      62.590  47.811 107.921  0.00  0.00    +0.077 A 
ATOM      5  C   UNL     1      63.657  48.547 107.304  0.00  0.00    +0.048 A 
ATOM      6  C   UNL     1      63.786  48.448 105.901  0.00  0.00    +0.116 A 
ATOM      7  N   UNL     1      62.908  47.670 105.178  0.00  0.00    -0.223 NA
ATOM      8  C   UNL     1      61.891  46.972 105.804  0.00  0.00    +0.220 A 
ATOM      9  N   UNL     1      60.992  46.190 105.096  0.00  0.00    -0.283 N 
ATOM     36  H   UNL     1      60.261  45.685 105.595  0.00  0.00    +0.155 HD
ATOM     37  N   UNL     1      61.748  47.049 107.143  0.00  0.00    -0.214 NA
BRANCH   4   3
ATOM      1  C   UNL     1      62.831  48.541 111.756  0.00  0.00    +0.020 A 
ATOM      2  C   UNL     1      63.132  48.569 110.344  0.00  0.00    +0.013 A 
ATOM      3  C   UNL     1      62.322  47.817 109.394  0.00  0.00    +0.019 A 
ATOM     38  C   UNL     1      61.204  47.041 109.910  0.00  0.00    +0.120 A 
ATOM     39  N   UNL     1      60.939  47.032 111.276  0.00  0.00    -0.263 NA
ATOM     40  C   UNL     1      61.712  47.750 112.199  0.00  0.00    +0.111 A 
ENDBRANCH   4   3
ENDBRANCH  10   9
BRANCH  12  13
ATOM     13  N   UNL     1      59.521  47.709 100.592  0.00  0.00    -0.281 N 
ATOM     14  C   UNL     1      58.162  47.625 100.335  0.00  0.00    +0.248 C 
ATOM     30  O   UNL     1      57.458  46.675 100.645  0.00  0.00    -0.270 OA
ATOM     31  H   UNL     1      60.022  48.458 100.113  0.00  0.00    +0.155 HD
BRANCH  14  15
ATOM     15  C   UNL     1      57.492  48.752  99.618  0.00  0.00    +0.037 A 
ATOM     16  C   UNL     1      58.250  49.663  98.758  0.00  0.00    +0.013 A 
ATOM     17  C   UNL     1      57.582  50.753  98.091  0.00  0.00    +0.005 A 
ATOM     18  C   UNL     1      56.145  50.935  98.281  0.00  0.00    -0.033 A 
ATOM     28  C   UNL     1      55.416  50.013  99.137  0.00  0.00    +0.005 A 
ATOM     29  C   UNL     1      56.068  48.945  99.792  0.00  0.00    +0.013 A 
BRANCH  18  19
ATOM     19  C   UNL     1      55.353  52.083  97.626  0.00  0.00    +0.119 C 
BRANCH  19  20
ATOM     20  N   UNL     1      54.925  51.895  96.208  0.00  0.00    -0.302 NA
ATOM     21  C   UNL     1      56.098  52.029  95.232  0.00  0.00    +0.066 C 
ATOM     22  C   UNL     1      55.636  51.807  93.754  0.00  0.00    -0.064 C 
ATOM     23  N   UNL     1      54.531  52.808  93.413  0.00  0.00    +0.379 N 
ATOM     24  C   UNL     1      54.135  52.641  92.007  0.00  0.00    -0.096 C 
ATOM     25  H   UNL     1      54.956  53.832  93.526  0.00  0.00    -0.082 HD
ATOM     26  C   UNL     1      53.362  52.684  94.380  0.00  0.00    -0.064 C 
ATOM     27  C   UNL     1      53.837  52.876  95.848  0.00  0.00    +0.066 C 
ENDBRANCH  19  20
ENDBRANCH  18  19
ENDBRANCH  14  15
ENDBRANCH  12  13
TORSDOF 6
ENDMDL
MODEL 3
REMARK VINA RESULT:      -7.4      2.606      3.602
REMARK  Name = C:\Users\Docking\Desktop\test protocol\1iep_ligandH.pdb
REMARK  8 active torsions:
REMARK  status: ('A' for Active; 'I' for Inactive)
REMARK    1  A    between atoms: _5  and  _11
REMARK    2  A    between atoms: _19  and  _21
REMARK    3  A    between atoms: _22  and  _66
REMARK    4  A    between atoms: _27  and  _30
REMARK    5  A    between atoms: _32  and  _33
REMARK    6  A    between atoms: _38  and  _43
REMARK    7  A    between atoms: _43  and  _46
REMARK    8  A    between atoms: _53  and  _55
REMARK                            x       y       z     vdW  Elec       q    Type
REMARK                         _______ _______ _______ _____ _____    ______ ____
ROOT
ATOM     10  C   UNL     1      61.345  71.747 105.366  0.00  0.00    +0.038 A 
ATOM     11  C   UNL     1      61.885  71.380 104.107  0.00  0.00    +0.047 A 
ATOM     12  C   UNL     1      62.261  70.004 103.822  0.00  0.00    +0.035 A 
ATOM     32  C   UNL     1      62.071  69.026 104.842  0.00  0.00    +0.024 A 
ATOM     33  C   UNL     1      61.523  69.382 106.127  0.00  0.00    +0.007 A 
ATOM     34  C   UNL     1      61.153  70.738 106.415  0.00  0.00    -0.029 A 
ATOM     35  C   UNL     1      60.577  71.064 107.813  0.00  0.00    +0.045 C 
ENDROOT
BRANCH  10   9
ATOM      4  C   UNL     1      62.428  76.236 106.676  0.00  0.00    +0.077 A 
ATOM      5  C   UNL     1      63.786  75.884 106.974  0.00  0.00    +0.048 A 
ATOM      6  C   UNL     1      64.164  74.536 106.783  0.00  0.00    +0.116 A 
ATOM      7  N   UNL     1      63.244  73.617 106.328  0.00  0.00    -0.223 NA
ATOM      8  C   UNL     1      61.941  73.989 106.052  0.00  0.00    +0.220 A 
ATOM      9  N   UNL     1      61.001  73.083 105.586  0.00  0.00    -0.283 N 
ATOM     36  H   UNL     1      60.048  73.395 105.401  0.00  0.00    +0.155 HD
ATOM     37  N   UNL     1      61.555  75.270 106.227  0.00  0.00    -0.214 NA
BRANCH   4   3
ATOM      1  C   UNL     1      61.270  79.894 105.915  0.00  0.00    +0.020 A 
ATOM      2  C   UNL     1      61.812  78.569 105.719  0.00  0.00    +0.013 A 
ATOM      3  C   UNL     1      61.877  77.620 106.824  0.00  0.00    +0.019 A 
ATOM     38  C   UNL     1      61.383  78.047 108.124  0.00  0.00    +0.120 A 
ATOM     39  N   UNL     1      60.868  79.330 108.283  0.00  0.00    -0.263 NA
ATOM     40  C   UNL     1      60.802  80.252 107.228  0.00  0.00    +0.111 A 
ENDBRANCH   4   3
ENDBRANCH  10   9
BRANCH  12  13
ATOM     13  N   UNL     1      62.822  69.574 102.565  0.00  0.00    -0.281 N 
ATOM     14  C   UNL     1      62.303  68.651 101.672  0.00  0.00    +0.248 C 
ATOM     30  O   UNL     1      61.377  67.894 101.922  0.00  0.00    -0.270 OA
ATOM     31  H   UNL     1      63.710  70.001 102.302  0.00  0.00    +0.155 HD
BRANCH  14  15
ATOM     15  C   UNL     1      62.908  68.544 100.310  0.00  0.00    +0.037 A 
ATOM     16  C   UNL     1      64.103  69.311  99.948  0.00  0.00    +0.013 A 
ATOM     17  C   UNL     1      64.657  69.203  98.621  0.00  0.00    +0.005 A 
ATOM     18  C   UNL     1      64.017  68.322  97.647  0.00  0.00    -0.033 A 
ATOM     28  C   UNL     1      62.836  67.569  98.035  0.00  0.00    +0.005 A 
ATOM     29  C   UNL     1      62.289  67.673  99.334  0.00  0.00    +0.013 A 
BRANCH  18  19
ATOM     19  C   UNL     1      64.527  68.160  96.203  0.00  0.00    +0.119 C 
BRANCH  19  20
ATOM     20  N   UNL     1      65.455  67.023  95.929  0.00  0.00    -0.302 NA
ATOM     21  C   UNL     1      66.923  67.424  96.105  0.00  0.00    +0.066 C 
ATOM     22  C   UNL     1      67.879  66.217  95.836  0.00  0.00    -0.064 C 
ATOM     23  N   UNL     1      67.630  65.677  94.427  0.00  0.00    +0.379 N 
ATOM     24  C   UNL     1      68.568  64.579  94.149  0.00  0.00    -0.096 C 
ATOM     25  H   UNL     1      67.850  66.499  93.706  0.00  0.00    -0.082 HD
ATOM     26  C   UNL     1      66.173  65.278  94.242  0.00  0.00    -0.064 C 
ATOM     27  C   UNL     1      65.230  66.477  94.540  0.00  0.00    +0.066 C 
ENDBRANCH  19  20
ENDBRANCH  18  19
ENDBRANCH  14  15
ENDBRANCH  12  13
TORSDOF 6
ENDMDL
MODEL 4
REMARK VINA RESULT:      -7.3     32.020     36.741
REMARK  Name = C:\Users\Docking\Desktop\test protocol\1iep_ligandH.pdb
REMARK  8 active torsions:
REMARK  status: ('A' for Active; 'I' for Inactive)
REMARK    1  A    between atoms: _5  and  _11
REMARK    2  A    between atoms: _19  and  _21
REMARK    3  A    between atoms: _22  and  _66
REMARK    4  A    between atoms: _27  and  _30
REMARK    5  A    between atoms: _32  and  _33
REMARK    6  A    between atoms: _38  and  _43
REMARK    7  A    between atoms: _43  and  _46
REMARK    8  A    between atoms: _53  and  _55
REMARK                            x       y       z     vdW  Elec       q    Type
REMARK                         _______ _______ _______ _____ _____    ______ ____
ROOT
ATOM     10  C   UNL     1      27.362  60.270 113.921  0.00  0.00    +0.038 A 
ATOM     11  C   UNL     1      27.858  61.417 113.250  0.00  0.00    +0.047 A 
ATOM     12  C   UNL     1      27.599  62.756 113.756  0.00  0.00    +0.035 A 
ATOM     32  C   UNL     1      26.834  62.890 114.951  0.00  0.00    +0.024 A 
ATOM     33  C   UNL     1      26.320  61.736 115.645  0.00  0.00    +0.007 A 
ATOM     34  C   UNL     1      26.570  60.413 115.149  0.00  0.00    -0.029 A 
ATOM     35  C   UNL     1      25.990  59.211 115.931  0.00  0.00    +0.045 C 
ENDROOT
BRANCH  10   9
ATOM      4  C   UNL     1      30.160  56.399 113.455  0.00  0.00    +0.077 A 
ATOM      5  C   UNL     1      31.164  56.947 114.320  0.00  0.00    +0.048 A 
ATOM      6  C   UNL     1      30.926  58.232 114.858  0.00  0.00    +0.116 A 
ATOM      7  N   UNL     1      29.765  58.908 114.548  0.00  0.00    -0.223 NA
ATOM      8  C   UNL     1      28.818  58.350 113.710  0.00  0.00    +0.220 A 
ATOM      9  N   UNL     1      27.640  59.009 113.391  0.00  0.00    -0.283 N 
ATOM     36  H   UNL     1      26.970  58.567 112.763  0.00  0.00    +0.155 HD
ATOM     37  N   UNL     1      29.023  57.126 113.181  0.00  0.00    -0.214 NA
BRANCH   4   3
ATOM      1  C   UNL     1      31.047  52.653 112.759  0.00  0.00    +0.020 A 
ATOM      2  C   UNL     1      30.975  53.934 113.423  0.00  0.00    +0.013 A 
ATOM      3  C   UNL     1      30.265  55.051 112.811  0.00  0.00    +0.019 A 
ATOM     38  C   UNL     1      29.634  54.836 111.518  0.00  0.00    +0.120 A 
ATOM     39  N   UNL     1      29.721  53.592 110.902  0.00  0.00    -0.263 NA
ATOM     40  C   UNL     1      30.402  52.510 111.480  0.00  0.00    +0.111 A 
ENDBRANCH   4   3
ENDBRANCH  10   9
BRANCH  12  13
ATOM     13  N   UNL     1      28.071  63.957 113.113  0.00  0.00    -0.281 N 
ATOM     14  C   UNL     1      29.037  64.842 113.563  0.00  0.00    +0.248 C 
ATOM     30  O   UNL     1      29.494  64.847 114.697  0.00  0.00    -0.270 OA
ATOM     31  H   UNL     1      27.639  64.184 112.217  0.00  0.00    +0.155 HD
BRANCH  14  15
ATOM     15  C   UNL     1      29.561  65.879 112.623  0.00  0.00    +0.037 A 
ATOM     16  C   UNL     1      30.943  66.359 112.716  0.00  0.00    +0.013 A 
ATOM     17  C   UNL     1      31.418  67.373 111.807  0.00  0.00    +0.005 A 
ATOM     18  C   UNL     1      30.510  67.912 110.797  0.00  0.00    -0.033 A 
ATOM     28  C   UNL     1      29.147  67.413 110.725  0.00  0.00    +0.005 A 
ATOM     29  C   UNL     1      28.677  66.421 111.614  0.00  0.00    +0.013 A 
BRANCH  18  19
ATOM     19  C   UNL     1      30.926  69.010 109.801  0.00  0.00    +0.119 C 
BRANCH  19  20
ATOM     20  N   UNL     1      31.272  70.349 110.364  0.00  0.00    -0.302 NA
ATOM     21  C   UNL     1      30.025  71.159 110.730  0.00  0.00    +0.066 C 
ATOM     22  C   UNL     1      30.407  72.547 111.339  0.00  0.00    -0.064 C 
ATOM     23  N   UNL     1      31.279  73.315 110.344  0.00  0.00    +0.379 N 
ATOM     24  C   UNL     1      31.591  74.644 110.889  0.00  0.00    -0.096 C 
ATOM     25  H   UNL     1      30.680  73.462 109.415  0.00  0.00    -0.082 HD
ATOM     26  C   UNL     1      32.519  72.516 109.972  0.00  0.00    -0.064 C 
ATOM     27  C   UNL     1      32.130  71.126 109.396  0.00  0.00    +0.066 C 
ENDBRANCH  19  20
ENDBRANCH  18  19
ENDBRANCH  14  15
ENDBRANCH  12  13
TORSDOF 6
ENDMDL
MODEL 5
REMARK VINA RESULT:      -7.3     40.838     43.832
REMARK  Name = C:\Users\Docking\Desktop\test protocol\1iep_ligandH.pdb
REMARK  8 active torsions:
REMARK  status: ('A' for Active; 'I' for Inactive)
REMARK    1  A    between atoms: _5  and  _11
REMARK    2  A    between atoms: _19  and  _21
REMARK    3  A    between atoms: _22  and  _66
REMARK    4  A    between atoms: _27  and  _30
REMARK    5  A    between atoms: _32  and  _33
REMARK    6  A    between atoms: _38  and  _43
REMARK    7  A    between atoms: _43  and  _46
REMARK    8  A    between atoms: _53  and  _55
REMARK                            x       y       z     vdW  Elec       q    Type
REMARK                         _______ _______ _______ _____ _____    ______ ____
ROOT
ATOM     10  C   UNL     1      32.405  42.815 103.090  0.00  0.00    +0.038 A 
ATOM     11  C   UNL     1      31.338  43.712 103.351  0.00  0.00    +0.047 A 
ATOM     12  C   UNL     1      31.022  44.132 104.708  0.00  0.00    +0.035 A 
ATOM     32  C   UNL     1      31.817  43.621 105.775  0.00  0.00    +0.024 A 
ATOM     33  C   UNL     1      32.904  42.707 105.528  0.00  0.00    +0.007 A 
ATOM     34  C   UNL     1      33.218  42.287 104.192  0.00  0.00    -0.029 A 
ATOM     35  C   UNL     1      34.392  41.301 103.987  0.00  0.00    +0.045 C 
ENDROOT
BRANCH  10   9
ATOM      4  C   UNL     1      31.669  40.025  99.255  0.00  0.00    +0.077 A 
ATOM      5  C   UNL     1      30.708  39.219  99.951  0.00  0.00    +0.048 A 
ATOM      6  C   UNL     1      30.436  39.552 101.297  0.00  0.00    +0.116 A 
ATOM      7  N   UNL     1      31.083  40.613 101.892  0.00  0.00    -0.223 NA
ATOM      8  C   UNL     1      32.006  41.368 101.193  0.00  0.00    +0.220 A 
ATOM      9  N   UNL     1      32.663  42.445 101.769  0.00  0.00    -0.283 N 
ATOM     36  H   UNL     1      33.343  42.972 101.221  0.00  0.00    +0.155 HD
ATOM     37  N   UNL     1      32.284  41.070  99.906  0.00  0.00    -0.214 NA
BRANCH   4   3
ATOM      1  C   UNL     1      31.734  40.109  95.345  0.00  0.00    +0.020 A 
ATOM      2  C   UNL     1      31.314  40.355  96.705  0.00  0.00    +0.013 A 
ATOM      3  C   UNL     1      32.060  39.801  97.827  0.00  0.00    +0.019 A 
ATOM     38  C   UNL     1      33.237  38.996  97.537  0.00  0.00    +0.120 A 
ATOM     39  N   UNL     1      33.618  38.775  96.217  0.00  0.00    -0.263 NA
ATOM     40  C   UNL     1      32.906  39.302  95.128  0.00  0.00    +0.111 A 
ENDBRANCH   4   3
ENDBRANCH  10   9
BRANCH  12  13
ATOM     13  N   UNL     1      29.946  45.034 105.034  0.00  0.00    -0.281 N 
ATOM     14  C   UNL     1      29.969  46.419 105.044  0.00  0.00    +0.248 C 
ATOM     30  O   UNL     1      30.986  47.094 104.979  0.00  0.00    -0.270 OA
ATOM     31  H   UNL     1      29.060  44.599 105.290  0.00  0.00    +0.155 HD
BRANCH  14  15
ATOM     15  C   UNL     1      28.677  47.162 105.156  0.00  0.00    +0.037 A 
ATOM     16  C   UNL     1      28.058  47.417 106.459  0.00  0.00    +0.013 A 
ATOM     17  C   UNL     1      26.802  48.121 106.538  0.00  0.00    +0.005 A 
ATOM     18  C   UNL     1      26.158  48.577 105.309  0.00  0.00    -0.033 A 
ATOM     28  C   UNL     1      26.798  48.315 104.030  0.00  0.00    +0.005 A 
ATOM     29  C   UNL     1      28.027  47.625 103.948  0.00  0.00    +0.013 A 
BRANCH  18  19
ATOM     19  C   UNL     1      24.808  49.317 105.297  0.00  0.00    +0.119 C 
BRANCH  19  20
ATOM     20  N   UNL     1      24.614  50.403 106.303  0.00  0.00    -0.302 NA
ATOM     21  C   UNL     1      23.556  50.036 107.348  0.00  0.00    +0.066 C 
ATOM     22  C   UNL     1      23.383  51.174 108.406  0.00  0.00    -0.064 C 
ATOM     23  N   UNL     1      23.013  52.477 107.694  0.00  0.00    +0.379 N 
ATOM     24  C   UNL     1      22.792  53.535 108.691  0.00  0.00    -0.096 C 
ATOM     25  H   UNL     1      22.049  52.308 107.161  0.00  0.00    -0.082 HD
ATOM     26  C   UNL     1      24.058  52.847 106.652  0.00  0.00    -0.064 C 
ATOM     27  C   UNL     1      24.244  51.698 105.622  0.00  0.00    +0.066 C 
ENDBRANCH  19  20
ENDBRANCH  18  19
ENDBRANCH  14  15
ENDBRANCH  12  13
TORSDOF 6
ENDMDL
