MODEL 1
REMARK VINA RESULT:     -10.9      0.000      0.000
REMARK  Name = C:\Users\Docking\Desktop\test protocol\1iep_ligandH.pdb
REMARK  8 active torsions:
REMARK  status: ('A' for Active; 'I' for Inactive)
REMARK    1  A    between atoms: _5  and  _11
REMARK    2  A    between atoms: _19  and  _21
REMARK    3  A    between atoms: _22  and  _66
REMARK    4  A    between atoms: _27  and  _30
REMARK    5  A    between atoms: _32  and  _33
REMARK    6  A    between atoms: _38  and  _43
REMARK    7  A    between atoms: _43  and  _46
REMARK    8  A    between atoms: _53  and  _55
REMARK                            x       y       z     vdW  Elec       q    Type
REMARK                         _______ _______ _______ _____ _____    ______ ____
ROOT
ATOM     10  C   UNL     1      14.078  21.178  14.889  0.00  0.00    +0.038 A 
ATOM     11  C   UNL     1      15.181  22.062  15.008  0.00  0.00    +0.047 A 
ATOM     12  C   UNL     1      16.473  21.735  14.424  0.00  0.00    +0.035 A 
ATOM     32  C   UNL     1      16.606  20.501  13.725  0.00  0.00    +0.024 A 
ATOM     33  C   UNL     1      15.496  19.590  13.596  0.00  0.00    +0.007 A 
ATOM     34  C   UNL     1      14.220  19.905  14.172  0.00  0.00    -0.029 A 
ATOM     35  C   UNL     1      13.067  18.888  14.008  0.00  0.00    +0.045 C 
ENDROOT
BRANCH  10   9
ATOM      4  C   UNL     1      11.497  23.323  18.320  0.00  0.00    +0.077 A 
ATOM      5  C   UNL     1      12.673  23.730  19.033  0.00  0.00    +0.048 A 
ATOM      6  C   UNL     1      13.923  23.361  18.487  0.00  0.00    +0.116 A 
ATOM      7  N   UNL     1      13.980  22.639  17.315  0.00  0.00    -0.223 NA
ATOM      8  C   UNL     1      12.827  22.261  16.653  0.00  0.00    +0.220 A 
ATOM      9  N   UNL     1      12.861  21.541  15.469  0.00  0.00    -0.283 N 
ATOM     36  H   UNL     1      11.987  21.275  15.015  0.00  0.00    +0.155 HD
ATOM     37  N   UNL     1      11.621  22.599  17.155  0.00  0.00    -0.214 NA
BRANCH   4   3
ATOM      1  C   UNL     1       7.595  23.464  18.565  0.00  0.00    +0.020 A 
ATOM      2  C   UNL     1       8.918  23.129  18.091  0.00  0.00    +0.013 A 
ATOM      3  C   UNL     1      10.104  23.639  18.769  0.00  0.00    +0.019 A 
ATOM     38  C   UNL     1       9.914  24.491  19.932  0.00  0.00    +0.120 A 
ATOM     39  N   UNL     1       8.628  24.798  20.365  0.00  0.00    -0.263 NA
ATOM     40  C   UNL     1       7.480  24.315  19.720  0.00  0.00    +0.111 A 
ENDBRANCH   4   3
ENDBRANCH  10   9
BRANCH  12  13
ATOM     13  N   UNL     1      17.631  22.590  14.519  0.00  0.00    -0.281 N 
ATOM     14  C   UNL     1      18.279  23.262  13.496  0.00  0.00    +0.248 C 
ATOM     30  O   UNL     1      18.089  23.058  12.306  0.00  0.00    -0.270 OA
ATOM     31  H   UNL     1      18.019  22.715  15.454  0.00  0.00    +0.155 HD
BRANCH  14  15
ATOM     15  C   UNL     1      19.296  24.300  13.845  0.00  0.00    +0.037 A 
ATOM     16  C   UNL     1      20.710  23.953  14.009  0.00  0.00    +0.013 A 
ATOM     17  C   UNL     1      21.668  24.971  14.362  0.00  0.00    +0.005 A 
ATOM     18  C   UNL     1      21.214  26.347  14.552  0.00  0.00    -0.033 A 
ATOM     28  C   UNL     1      19.806  26.664  14.378  0.00  0.00    +0.005 A 
ATOM     29  C   UNL     1      18.865  25.669  14.033  0.00  0.00    +0.013 A 
BRANCH  18  19
ATOM     19  C   UNL     1      22.163  27.493  14.951  0.00  0.00    +0.119 C 
BRANCH  19  20
ATOM     20  N   UNL     1      22.979  27.306  16.187  0.00  0.00    -0.302 NA
ATOM     21  C   UNL     1      24.255  26.504  15.918  0.00  0.00    +0.066 C 
ATOM     22  C   UNL     1      25.108  26.338  17.217  0.00  0.00    -0.064 C 
ATOM     23  N   UNL     1      24.261  25.661  18.297  0.00  0.00    +0.379 N 
ATOM     24  C   UNL     1      25.078  25.451  19.501  0.00  0.00    -0.096 C 
ATOM     25  H   UNL     1      23.961  24.659  17.912  0.00  0.00    -0.082 HD
ATOM     26  C   UNL     1      22.989  26.451  18.569  0.00  0.00    -0.064 C 
ATOM     27  C   UNL     1      22.163  26.636  17.265  0.00  0.00    +0.066 C 
ENDBRANCH  19  20
ENDBRANCH  18  19
ENDBRANCH  14  15
ENDBRANCH  12  13
TORSDOF 6
ENDMDL
MODEL 2
REMARK VINA RESULT:     -10.9      6.294     10.685
REMARK  Name = C:\Users\Docking\Desktop\test protocol\1iep_ligandH.pdb
REMARK  8 active torsions:
REMARK  status: ('A' for Active; 'I' for Inactive)
REMARK    1  A    between atoms: _5  and  _11
REMARK    2  A    between atoms: _19  and  _21
REMARK    3  A    between atoms: _22  and  _66
REMARK    4  A    between atoms: _27  and  _30
REMARK    5  A    between atoms: _32  and  _33
REMARK    6  A    between atoms: _38  and  _43
REMARK    7  A    between atoms: _43  and  _46
REMARK    8  A    between atoms: _53  and  _55
REMARK                            x       y       z     vdW  Elec       q    Type
REMARK                         _______ _______ _______ _____ _____    ______ ____
ROOT
ATOM     10  C   UNL     1      16.051  20.521  14.571  0.00  0.00    +0.038 A 
ATOM     11  C   UNL     1      16.722  19.279  14.430  0.00  0.00    +0.047 A 
ATOM     12  C   UNL     1      16.025  18.098  13.946  0.00  0.00    +0.035 A 
ATOM     32  C   UNL     1      14.645  18.217  13.613  0.00  0.00    +0.024 A 
ATOM     33  C   UNL     1      13.946  19.471  13.751  0.00  0.00    +0.007 A 
ATOM     34  C   UNL     1      14.628  20.639  14.230  0.00  0.00    -0.029 A 
ATOM     35  C   UNL     1      13.828  21.956  14.365  0.00  0.00    +0.045 C 
ENDROOT
BRANCH  10   9
ATOM      4  C   UNL     1      19.059  24.204  13.915  0.00  0.00    +0.077 A 
ATOM      5  C   UNL     1      19.235  23.889  12.527  0.00  0.00    +0.048 A 
ATOM      6  C   UNL     1      18.540  22.767  12.022  0.00  0.00    +0.116 A 
ATOM      7  N   UNL     1      17.731  22.023  12.853  0.00  0.00    -0.223 NA
ATOM      8  C   UNL     1      17.584  22.353  14.188  0.00  0.00    +0.220 A 
ATOM      9  N   UNL     1      16.769  21.623  15.040  0.00  0.00    -0.283 N 
ATOM     36  H   UNL     1      16.694  21.894  16.020  0.00  0.00    +0.155 HD
ATOM     37  N   UNL     1      18.238  23.418  14.694  0.00  0.00    -0.214 NA
BRANCH   4   3
ATOM      1  C   UNL     1      20.826  27.629  14.581  0.00  0.00    +0.020 A 
ATOM      2  C   UNL     1      20.190  26.539  13.877  0.00  0.00    +0.013 A 
ATOM      3  C   UNL     1      19.724  25.360  14.595  0.00  0.00    +0.019 A 
ATOM     38  C   UNL     1      19.916  25.314  16.037  0.00  0.00    +0.120 A 
ATOM     39  N   UNL     1      20.533  26.378  16.688  0.00  0.00    -0.263 NA
ATOM     40  C   UNL     1      20.988  27.518  16.007  0.00  0.00    +0.111 A 
ENDBRANCH   4   3
ENDBRANCH  10   9
BRANCH  12  13
ATOM     13  N   UNL     1      16.652  16.809  13.789  0.00  0.00    -0.281 N 
ATOM     14  C   UNL     1      17.990  16.535  13.556  0.00  0.00    +0.248 C 
ATOM     30  O   UNL     1      18.820  17.372  13.233  0.00  0.00    -0.270 OA
ATOM     31  H   UNL     1      16.035  16.000  13.859  0.00  0.00    +0.155 HD
BRANCH  14  15
ATOM     15  C   UNL     1      18.473  15.127  13.687  0.00  0.00    +0.037 A 
ATOM     16  C   UNL     1      17.913  14.223  14.695  0.00  0.00    +0.013 A 
ATOM     17  C   UNL     1      18.408  12.874  14.812  0.00  0.00    +0.005 A 
ATOM     18  C   UNL     1      19.470  12.421  13.916  0.00  0.00    -0.033 A 
ATOM     28  C   UNL     1      20.003  13.337  12.922  0.00  0.00    +0.005 A 
ATOM     29  C   UNL     1      19.521  14.660  12.805  0.00  0.00    +0.013 A 
BRANCH  18  19
ATOM     19  C   UNL     1      20.074  11.006  13.983  0.00  0.00    +0.119 C 
BRANCH  19  20
ATOM     20  N   UNL     1      21.392  10.857  14.668  0.00  0.00    -0.302 NA
ATOM     21  C   UNL     1      21.439  11.619  15.995  0.00  0.00    +0.066 C 
ATOM     22  C   UNL     1      22.818  11.434  16.709  0.00  0.00    -0.064 C 
ATOM     23  N   UNL     1      23.938  11.898  15.777  0.00  0.00    +0.379 N 
ATOM     24  C   UNL     1      25.231  11.780  16.467  0.00  0.00    -0.096 C 
ATOM     25  H   UNL     1      23.770  12.978  15.558  0.00  0.00    -0.082 HD
ATOM     26  C   UNL     1      23.897  11.147  14.454  0.00  0.00    -0.064 C 
ATOM     27  C   UNL     1      22.513  11.314  13.767  0.00  0.00    +0.066 C 
ENDBRANCH  19  20
ENDBRANCH  18  19
ENDBRANCH  14  15
ENDBRANCH  12  13
TORSDOF 6
ENDMDL
MODEL 3
REMARK VINA RESULT:     -10.8      1.810      2.465
REMARK  Name = C:\Users\Docking\Desktop\test protocol\1iep_ligandH.pdb
REMARK  8 active torsions:
REMARK  status: ('A' for Active; 'I' for Inactive)
REMARK    1  A    between atoms: _5  and  _11
REMARK    2  A    between atoms: _19  and  _21
REMARK    3  A    between atoms: _22  and  _66
REMARK    4  A    between atoms: _27  and  _30
REMARK    5  A    between atoms: _32  and  _33
REMARK    6  A    between atoms: _38  and  _43
REMARK    7  A    between atoms: _43  and  _46
REMARK    8  A    between atoms: _53  and  _55
REMARK                            x       y       z     vdW  Elec       q    Type
REMARK                         _______ _______ _______ _____ _____    ______ ____
ROOT
ATOM     10  C   UNL     1      14.853  22.572  15.284  0.00  0.00    +0.038 A 
ATOM     11  C   UNL     1      16.026  23.287  15.635  0.00  0.00    +0.047 A 
ATOM     12  C   UNL     1      17.333  22.878  15.143  0.00  0.00    +0.035 A 
ATOM     32  C   UNL     1      17.407  21.736  14.293  0.00  0.00    +0.024 A 
ATOM     33  C   UNL     1      16.225  20.997  13.927  0.00  0.00    +0.007 A 
ATOM     34  C   UNL     1      14.934  21.394  14.411  0.00  0.00    -0.029 A 
ATOM     35  C   UNL     1      13.701  20.561  13.992  0.00  0.00    +0.045 C 
ENDROOT
BRANCH  10   9
ATOM      4  C   UNL     1      11.434  22.633  18.652  0.00  0.00    +0.077 A 
ATOM      5  C   UNL     1      12.143  21.693  19.472  0.00  0.00    +0.048 A 
ATOM      6  C   UNL     1      13.380  21.212  18.987  0.00  0.00    +0.116 A 
ATOM      7  N   UNL     1      13.863  21.647  17.772  0.00  0.00    -0.223 NA
ATOM      8  C   UNL     1      13.154  22.553  17.005  0.00  0.00    +0.220 A 
ATOM      9  N   UNL     1      13.625  23.010  15.784  0.00  0.00    -0.283 N 
ATOM     36  H   UNL     1      13.068  23.673  15.245  0.00  0.00    +0.155 HD
ATOM     37  N   UNL     1      11.969  23.026  17.445  0.00  0.00    -0.214 NA
BRANCH   4   3
ATOM      1  C   UNL     1       7.688  23.756  18.585  0.00  0.00    +0.020 A 
ATOM      2  C   UNL     1       8.938  23.159  18.174  0.00  0.00    +0.013 A 
ATOM      3  C   UNL     1      10.116  23.234  19.029  0.00  0.00    +0.019 A 
ATOM     38  C   UNL     1       9.994  23.925  20.303  0.00  0.00    +0.120 A 
ATOM     39  N   UNL     1       8.778  24.491  20.672  0.00  0.00    -0.263 NA
ATOM     40  C   UNL     1       7.638  24.427  19.857  0.00  0.00    +0.111 A 
ENDBRANCH   4   3
ENDBRANCH  10   9
BRANCH  12  13
ATOM     13  N   UNL     1      18.560  23.560  15.472  0.00  0.00    -0.281 N 
ATOM     14  C   UNL     1      19.236  24.506  14.720  0.00  0.00    +0.248 C 
ATOM     30  O   UNL     1      19.000  24.754  13.547  0.00  0.00    -0.270 OA
ATOM     31  H   UNL     1      18.980  23.316  16.369  0.00  0.00    +0.155 HD
BRANCH  14  15
ATOM     15  C   UNL     1      20.345  25.278  15.358  0.00  0.00    +0.037 A 
ATOM     16  C   UNL     1      20.286  25.666  16.770  0.00  0.00    +0.013 A 
ATOM     17  C   UNL     1      21.362  26.426  17.357  0.00  0.00    +0.005 A 
ATOM     18  C   UNL     1      22.507  26.801  16.531  0.00  0.00    -0.033 A 
ATOM     28  C   UNL     1      22.542  26.399  15.135  0.00  0.00    +0.005 A 
ATOM     29  C   UNL     1      21.489  25.656  14.556  0.00  0.00    +0.013 A 
BRANCH  18  19
ATOM     19  C   UNL     1      23.689  27.629  17.068  0.00  0.00    +0.119 C 
BRANCH  19  20
ATOM     20  N   UNL     1      24.963  27.587  16.290  0.00  0.00    -0.302 NA
ATOM     21  C   UNL     1      25.812  26.362  16.644  0.00  0.00    +0.066 C 
ATOM     22  C   UNL     1      27.130  26.321  15.805  0.00  0.00    -0.064 C 
ATOM     23  N   UNL     1      27.919  27.612  16.035  0.00  0.00    +0.379 N 
ATOM     24  C   UNL     1      29.186  27.552  15.293  0.00  0.00    -0.096 C 
ATOM     25  H   UNL     1      28.165  27.668  17.121  0.00  0.00    -0.082 HD
ATOM     26  C   UNL     1      27.081  28.834  15.688  0.00  0.00    -0.064 C 
ATOM     27  C   UNL     1      25.760  28.850  16.507  0.00  0.00    +0.066 C 
ENDBRANCH  19  20
ENDBRANCH  18  19
ENDBRANCH  14  15
ENDBRANCH  12  13
TORSDOF 6
ENDMDL
MODEL 4
REMARK VINA RESULT:     -10.8      4.608      8.244
REMARK  Name = C:\Users\Docking\Desktop\test protocol\1iep_ligandH.pdb
REMARK  8 active torsions:
REMARK  status: ('A' for Active; 'I' for Inactive)
REMARK    1  A    between atoms: _5  and  _11
REMARK    2  A    between atoms: _19  and  _21
REMARK    3  A    between atoms: _22  and  _66
REMARK    4  A    between atoms: _27  and  _30
REMARK    5  A    between atoms: _32  and  _33
REMARK    6  A    between atoms: _38  and  _43
REMARK    7  A    between atoms: _43  and  _46
REMARK    8  A    between atoms: _53  and  _55
REMARK                            x       y       z     vdW  Elec       q    Type
REMARK                         _______ _______ _______ _____ _____    ______ ____
ROOT
ATOM     10  C   UNL     1      15.532  18.115  13.905  0.00  0.00    +0.038 A 
ATOM     11  C   UNL     1      16.428  19.155  14.262  0.00  0.00    +0.047 A 
ATOM     12  C   UNL     1      16.062  20.553  14.098  0.00  0.00    +0.035 A 
ATOM     32  C   UNL     1      14.773  20.856  13.570  0.00  0.00    +0.024 A 
ATOM     33  C   UNL     1      13.850  19.812  13.201  0.00  0.00    +0.007 A 
ATOM     34  C   UNL     1      14.207  18.431  13.358  0.00  0.00    -0.029 A 
ATOM     35  C   UNL     1      13.181  17.352  12.939  0.00  0.00    +0.045 C 
ENDROOT
BRANCH  10   9
ATOM      4  C   UNL     1      18.722  14.560  13.424  0.00  0.00    +0.077 A 
ATOM      5  C   UNL     1      19.652  15.408  12.736  0.00  0.00    +0.048 A 
ATOM      6  C   UNL     1      19.268  16.751  12.519  0.00  0.00    +0.116 A 
ATOM      7  N   UNL     1      18.043  17.201  12.962  0.00  0.00    -0.223 NA
ATOM      8  C   UNL     1      17.169  16.356  13.622  0.00  0.00    +0.220 A 
ATOM      9  N   UNL     1      15.936  16.790  14.083  0.00  0.00    -0.283 N 
ATOM     36  H   UNL     1      15.317  16.134  14.559  0.00  0.00    +0.155 HD
ATOM     37  N   UNL     1      17.512  15.070  13.840  0.00  0.00    -0.214 NA
BRANCH   4   3
ATOM      1  C   UNL     1      20.523  11.148  14.068  0.00  0.00    +0.020 A 
ATOM      2  C   UNL     1      20.324  12.547  13.766  0.00  0.00    +0.013 A 
ATOM      3  C   UNL     1      18.984  13.119  13.732  0.00  0.00    +0.019 A 
ATOM     38  C   UNL     1      17.857  12.241  14.011  0.00  0.00    +0.120 A 
ATOM     39  N   UNL     1      18.079  10.898  14.298  0.00  0.00    -0.263 NA
ATOM     40  C   UNL     1      19.364  10.336  14.332  0.00  0.00    +0.111 A 
ENDBRANCH   4   3
ENDBRANCH  10   9
BRANCH  12  13
ATOM     13  N   UNL     1      16.933  21.651  14.436  0.00  0.00    -0.281 N 
ATOM     14  C   UNL     1      17.895  22.251  13.639  0.00  0.00    +0.248 C 
ATOM     30  O   UNL     1      18.301  21.792  12.582  0.00  0.00    -0.270 OA
ATOM     31  H   UNL     1      16.828  22.033  15.376  0.00  0.00    +0.155 HD
BRANCH  14  15
ATOM     15  C   UNL     1      18.503  23.540  14.089  0.00  0.00    +0.037 A 
ATOM     16  C   UNL     1      18.278  24.055  15.442  0.00  0.00    +0.013 A 
ATOM     17  C   UNL     1      18.863  25.310  15.845  0.00  0.00    +0.005 A 
ATOM     18  C   UNL     1      19.680  26.058  14.892  0.00  0.00    -0.033 A 
ATOM     28  C   UNL     1      19.891  25.521  13.558  0.00  0.00    +0.005 A 
ATOM     29  C   UNL     1      19.318  24.292  13.159  0.00  0.00    +0.013 A 
BRANCH  18  19
ATOM     19  C   UNL     1      20.325  27.415  15.229  0.00  0.00    +0.119 C 
BRANCH  19  20
ATOM     20  N   UNL     1      21.633  27.391  15.948  0.00  0.00    -0.302 NA
ATOM     21  C   UNL     1      22.675  26.539  15.217  0.00  0.00    +0.066 C 
ATOM     22  C   UNL     1      24.044  26.543  15.972  0.00  0.00    -0.064 C 
ATOM     23  N   UNL     1      23.838  26.037  17.400  0.00  0.00    +0.379 N 
ATOM     24  C   UNL     1      25.133  25.984  18.095  0.00  0.00    -0.096 C 
ATOM     25  H   UNL     1      23.445  24.996  17.337  0.00  0.00    -0.082 HD
ATOM     26  C   UNL     1      22.801  26.877  18.134  0.00  0.00    -0.064 C 
ATOM     27  C   UNL     1      21.453  26.890  17.360  0.00  0.00    +0.066 C 
ENDBRANCH  19  20
ENDBRANCH  18  19
ENDBRANCH  14  15
ENDBRANCH  12  13
TORSDOF 6
ENDMDL
MODEL 5
REMARK VINA RESULT:     -10.7      4.211      7.300
REMARK  Name = C:\Users\Docking\Desktop\test protocol\1iep_ligandH.pdb
REMARK  8 active torsions:
REMARK  status: ('A' for Active; 'I' for Inactive)
REMARK    1  A    between atoms: _5  and  _11
REMARK    2  A    between atoms: _19  and  _21
REMARK    3  A    between atoms: _22  and  _66
REMARK    4  A    between atoms: _27  and  _30
REMARK    5  A    between atoms: _32  and  _33
REMARK    6  A    between atoms: _38  and  _43
REMARK    7  A    between atoms: _43  and  _46
REMARK    8  A    between atoms: _53  and  _55
REMARK                            x       y       z     vdW  Elec       q    Type
REMARK                         _______ _______ _______ _____ _____    ______ ____
ROOT
ATOM     10  C   UNL     1       9.261  25.453  19.386  0.00  0.00    +0.038 A 
ATOM     11  C   UNL     1      10.571  25.164  18.924  0.00  0.00    +0.047 A 
ATOM     12  C   UNL     1      11.111  23.815  18.989  0.00  0.00    +0.035 A 
ATOM     32  C   UNL     1      10.289  22.783  19.527  0.00  0.00    +0.024 A 
ATOM     33  C   UNL     1       8.956  23.059  20.002  0.00  0.00    +0.007 A 
ATOM     34  C   UNL     1       8.418  24.388  19.943  0.00  0.00    -0.029 A 
ATOM     35  C   UNL     1       6.985  24.627  20.473  0.00  0.00    +0.045 C 
ENDROOT
BRANCH  10   9
ATOM      4  C   UNL     1       8.414  29.777  21.289  0.00  0.00    +0.077 A 
ATOM      5  C   UNL     1       8.922  29.378  22.569  0.00  0.00    +0.048 A 
ATOM      6  C   UNL     1       9.386  28.050  22.699  0.00  0.00    +0.116 A 
ATOM      7  N   UNL     1       9.340  27.193  21.621  0.00  0.00    -0.223 NA
ATOM      8  C   UNL     1       8.841  27.609  20.400  0.00  0.00    +0.220 A 
ATOM      9  N   UNL     1       8.793  26.766  19.300  0.00  0.00    -0.283 N 
ATOM     36  H   UNL     1       8.411  27.108  18.419  0.00  0.00    +0.155 HD
ATOM     37  N   UNL     1       8.391  28.872  20.251  0.00  0.00    -0.214 NA
BRANCH   4   3
ATOM      1  C   UNL     1       6.416  33.134  21.492  0.00  0.00    +0.020 A 
ATOM      2  C   UNL     1       6.887  31.808  21.820  0.00  0.00    +0.013 A 
ATOM      3  C   UNL     1       7.890  31.148  20.994  0.00  0.00    +0.019 A 
ATOM     38  C   UNL     1       8.401  31.863  19.834  0.00  0.00    +0.120 A 
ATOM     39  N   UNL     1       7.927  33.138  19.541  0.00  0.00    -0.263 NA
ATOM     40  C   UNL     1       6.961  33.783  20.328  0.00  0.00    +0.111 A 
ENDBRANCH   4   3
ENDBRANCH  10   9
BRANCH  12  13
ATOM     13  N   UNL     1      12.437  23.464  18.543  0.00  0.00    -0.281 N 
ATOM     14  C   UNL     1      12.793  22.745  17.414  0.00  0.00    +0.248 C 
ATOM     30  O   UNL     1      12.010  22.107  16.725  0.00  0.00    -0.270 OA
ATOM     31  H   UNL     1      13.206  23.785  19.131  0.00  0.00    +0.155 HD
BRANCH  14  15
ATOM     15  C   UNL     1      14.228  22.718  16.997  0.00  0.00    +0.037 A 
ATOM     16  C   UNL     1      15.307  22.786  17.986  0.00  0.00    +0.013 A 
ATOM     17  C   UNL     1      16.683  22.775  17.556  0.00  0.00    +0.005 A 
ATOM     18  C   UNL     1      16.987  22.694  16.130  0.00  0.00    -0.033 A 
ATOM     28  C   UNL     1      15.897  22.622  15.171  0.00  0.00    +0.005 A 
ATOM     29  C   UNL     1      14.547  22.633  15.588  0.00  0.00    +0.013 A 
BRANCH  18  19
ATOM     19  C   UNL     1      18.426  22.698  15.580  0.00  0.00    +0.119 C 
BRANCH  19  20
ATOM     20  N   UNL     1      19.138  24.010  15.536  0.00  0.00    -0.302 NA
ATOM     21  C   UNL     1      20.275  24.013  14.511  0.00  0.00    +0.066 C 
ATOM     22  C   UNL     1      20.994  25.400  14.463  0.00  0.00    -0.064 C 
ATOM     23  N   UNL     1      21.520  25.748  15.856  0.00  0.00    +0.379 N 
ATOM     24  C   UNL     1      22.247  27.025  15.802  0.00  0.00    -0.096 C 
ATOM     25  H   UNL     1      22.248  24.956  16.150  0.00  0.00    -0.082 HD
ATOM     26  C   UNL     1      20.396  25.745  16.882  0.00  0.00    -0.064 C 
ATOM     27  C   UNL     1      19.669  24.371  16.902  0.00  0.00    +0.066 C 
ENDBRANCH  19  20
ENDBRANCH  18  19
ENDBRANCH  14  15
ENDBRANCH  12  13
TORSDOF 6
ENDMDL
