MODEL 1
REMARK VINA RESULT:      -8.9      0.000      0.000
REMARK  Name = C:\Users\Docking\Desktop\test protocol\1iep_ligandH.pdb
REMARK  8 active torsions:
REMARK  status: ('A' for Active; 'I' for Inactive)
REMARK    1  A    between atoms: _5  and  _11
REMARK    2  A    between atoms: _19  and  _21
REMARK    3  A    between atoms: _22  and  _66
REMARK    4  A    between atoms: _27  and  _30
REMARK    5  A    between atoms: _32  and  _33
REMARK    6  A    between atoms: _38  and  _43
REMARK    7  A    between atoms: _43  and  _46
REMARK    8  A    between atoms: _53  and  _55
REMARK                            x       y       z     vdW  Elec       q    Type
REMARK                         _______ _______ _______ _____ _____    ______ ____
ROOT
ATOM     10  C   UNL     1       7.124 -10.461 -18.005  0.00  0.00    +0.038 A 
ATOM     11  C   UNL     1       7.854 -11.676 -17.982  0.00  0.00    +0.047 A 
ATOM     12  C   UNL     1       9.308 -11.680 -17.950  0.00  0.00    +0.035 A 
ATOM     32  C   UNL     1       9.987 -10.426 -17.940  0.00  0.00    +0.024 A 
ATOM     33  C   UNL     1       9.260  -9.181 -17.965  0.00  0.00    +0.007 A 
ATOM     34  C   UNL     1       7.826  -9.172 -17.999  0.00  0.00    -0.029 A 
ATOM     35  C   UNL     1       7.099  -7.807 -18.031  0.00  0.00    +0.045 C 
ENDROOT
BRANCH  10   9
ATOM      4  C   UNL     1       2.841 -10.482 -15.839  0.00  0.00    +0.077 A 
ATOM      5  C   UNL     1       3.434 -10.403 -14.535  0.00  0.00    +0.048 A 
ATOM      6  C   UNL     1       4.845 -10.367 -14.465  0.00  0.00    +0.116 A 
ATOM      7  N   UNL     1       5.596 -10.406 -15.619  0.00  0.00    -0.223 NA
ATOM      8  C   UNL     1       4.992 -10.484 -16.861  0.00  0.00    +0.220 A 
ATOM      9  N   UNL     1       5.728 -10.516 -18.035  0.00  0.00    -0.283 N 
ATOM     36  H   UNL     1       5.246 -10.581 -18.931  0.00  0.00    +0.155 HD
ATOM     37  N   UNL     1       3.647 -10.521 -16.954  0.00  0.00    -0.214 NA
BRANCH   4   3
ATOM      1  C   UNL     1      -0.657 -10.974 -17.520  0.00  0.00    +0.020 A 
ATOM      2  C   UNL     1       0.777 -10.950 -17.342  0.00  0.00    +0.013 A 
ATOM      3  C   UNL     1       1.363 -10.526 -16.077  0.00  0.00    +0.019 A 
ATOM     38  C   UNL     1       0.464 -10.129 -15.004  0.00  0.00    +0.120 A 
ATOM     39  N   UNL     1      -0.912 -10.161 -15.204  0.00  0.00    -0.263 NA
ATOM     40  C   UNL     1      -1.488 -10.566 -16.418  0.00  0.00    +0.111 A 
ENDBRANCH   4   3
ENDBRANCH  10   9
BRANCH  12  13
ATOM     13  N   UNL     1      10.104 -12.882 -17.933  0.00  0.00    -0.281 N 
ATOM     14  C   UNL     1      10.469 -13.647 -16.837  0.00  0.00    +0.248 C 
ATOM     30  O   UNL     1      10.344 -13.292 -15.674  0.00  0.00    -0.270 OA
ATOM     31  H   UNL     1      10.438 -13.210 -18.839  0.00  0.00    +0.155 HD
BRANCH  14  15
ATOM     15  C   UNL     1      11.073 -14.995 -17.066  0.00  0.00    +0.037 A 
ATOM     16  C   UNL     1      12.518 -15.160 -17.241  0.00  0.00    +0.013 A 
ATOM     17  C   UNL     1      13.073 -16.469 -17.477  0.00  0.00    +0.005 A 
ATOM     18  C   UNL     1      12.181 -17.625 -17.538  0.00  0.00    -0.033 A 
ATOM     28  C   UNL     1      10.752 -17.433 -17.355  0.00  0.00    +0.005 A 
ATOM     29  C   UNL     1      10.204 -16.151 -17.124  0.00  0.00    +0.013 A 
BRANCH  18  19
ATOM     19  C   UNL     1      12.683 -19.056 -17.806  0.00  0.00    +0.119 C 
BRANCH  19  20
ATOM     20  N   UNL     1      11.663 -20.080 -18.179  0.00  0.00    -0.302 NA
ATOM     21  C   UNL     1      11.380 -21.054 -17.032  0.00  0.00    +0.066 C 
ATOM     22  C   UNL     1      10.293 -22.105 -17.432  0.00  0.00    -0.064 C 
ATOM     23  N   UNL     1      10.752 -22.858 -18.681  0.00  0.00    +0.379 N 
ATOM     24  C   UNL     1       9.760 -23.887 -19.026  0.00  0.00    -0.096 C 
ATOM     25  H   UNL     1      11.706 -23.379 -18.431  0.00  0.00    -0.082 HD
ATOM     26  C   UNL     1      11.038 -21.897 -19.826  0.00  0.00    -0.064 C 
ATOM     27  C   UNL     1      12.097 -20.839 -19.409  0.00  0.00    +0.066 C 
ENDBRANCH  19  20
ENDBRANCH  18  19
ENDBRANCH  14  15
ENDBRANCH  12  13
TORSDOF 6
ENDMDL
MODEL 2
REMARK VINA RESULT:      -8.7      5.213     12.376
REMARK  Name = C:\Users\Docking\Desktop\test protocol\1iep_ligandH.pdb
REMARK  8 active torsions:
REMARK  status: ('A' for Active; 'I' for Inactive)
REMARK    1  A    between atoms: _5  and  _11
REMARK    2  A    between atoms: _19  and  _21
REMARK    3  A    between atoms: _22  and  _66
REMARK    4  A    between atoms: _27  and  _30
REMARK    5  A    between atoms: _32  and  _33
REMARK    6  A    between atoms: _38  and  _43
REMARK    7  A    between atoms: _43  and  _46
REMARK    8  A    between atoms: _53  and  _55
REMARK                            x       y       z     vdW  Elec       q    Type
REMARK                         _______ _______ _______ _____ _____    ______ ____
ROOT
ATOM     10  C   UNL     1      11.005 -10.749 -19.377  0.00  0.00    +0.038 A 
ATOM     11  C   UNL     1       9.602 -10.956 -19.328  0.00  0.00    +0.047 A 
ATOM     12  C   UNL     1       8.728 -10.026 -18.630  0.00  0.00    +0.035 A 
ATOM     32  C   UNL     1       9.316  -8.893 -17.995  0.00  0.00    +0.024 A 
ATOM     33  C   UNL     1      10.740  -8.668 -18.034  0.00  0.00    +0.007 A 
ATOM     34  C   UNL     1      11.607  -9.583 -18.718  0.00  0.00    -0.029 A 
ATOM     35  C   UNL     1      13.127  -9.295 -18.722  0.00  0.00    +0.045 C 
ENDROOT
BRANCH  10   9
ATOM      4  C   UNL     1      13.323 -12.252 -23.302  0.00  0.00    +0.077 A 
ATOM      5  C   UNL     1      12.898 -11.111 -24.061  0.00  0.00    +0.048 A 
ATOM      6  C   UNL     1      12.078 -10.165 -23.407  0.00  0.00    +0.116 A 
ATOM      7  N   UNL     1      11.716 -10.355 -22.091  0.00  0.00    -0.223 NA
ATOM      8  C   UNL     1      12.142 -11.466 -21.388  0.00  0.00    +0.220 A 
ATOM      9  N   UNL     1      11.797 -11.674 -20.061  0.00  0.00    -0.283 N 
ATOM     36  H   UNL     1      12.125 -12.510 -19.579  0.00  0.00    +0.155 HD
ATOM     37  N   UNL     1      12.925 -12.386 -21.990  0.00  0.00    -0.214 NA
BRANCH   4   3
ATOM      1  C   UNL     1      15.461 -14.454 -25.727  0.00  0.00    +0.020 A 
ATOM      2  C   UNL     1      14.618 -13.384 -25.246  0.00  0.00    +0.013 A 
ATOM      3  C   UNL     1      14.195 -13.337 -23.852  0.00  0.00    +0.019 A 
ATOM     38  C   UNL     1      14.647 -14.397 -22.963  0.00  0.00    +0.120 A 
ATOM     39  N   UNL     1      15.457 -15.416 -23.455  0.00  0.00    -0.263 NA
ATOM     40  C   UNL     1      15.869 -15.472 -24.795  0.00  0.00    +0.111 A 
ENDBRANCH   4   3
ENDBRANCH  10   9
BRANCH  12  13
ATOM     13  N   UNL     1       7.298 -10.188 -18.540  0.00  0.00    -0.281 N 
ATOM     14  C   UNL     1       6.590 -11.055 -17.724  0.00  0.00    +0.248 C 
ATOM     30  O   UNL     1       7.088 -11.977 -17.097  0.00  0.00    -0.270 OA
ATOM     31  H   UNL     1       6.741  -9.593 -19.152  0.00  0.00    +0.155 HD
BRANCH  14  15
ATOM     15  C   UNL     1       5.111 -10.879 -17.596  0.00  0.00    +0.037 A 
ATOM     16  C   UNL     1       4.201 -12.026 -17.659  0.00  0.00    +0.013 A 
ATOM     17  C   UNL     1       2.778 -11.827 -17.550  0.00  0.00    +0.005 A 
ATOM     18  C   UNL     1       2.255 -10.474 -17.377  0.00  0.00    -0.033 A 
ATOM     28  C   UNL     1       3.180  -9.355 -17.313  0.00  0.00    +0.005 A 
ATOM     29  C   UNL     1       4.576  -9.546 -17.420  0.00  0.00    +0.013 A 
BRANCH  18  19
ATOM     19  C   UNL     1       0.749 -10.166 -17.274  0.00  0.00    +0.119 C 
BRANCH  19  20
ATOM     20  N   UNL     1       0.029 -10.673 -16.068  0.00  0.00    -0.302 NA
ATOM     21  C   UNL     1      -1.412 -10.160 -16.002  0.00  0.00    +0.066 C 
ATOM     22  C   UNL     1      -2.158 -10.718 -14.746  0.00  0.00    -0.064 C 
ATOM     23  N   UNL     1      -1.387 -10.330 -13.484  0.00  0.00    +0.379 N 
ATOM     24  C   UNL     1      -2.116 -10.803 -12.298  0.00  0.00    -0.096 C 
ATOM     25  H   UNL     1      -1.353  -9.216 -13.438  0.00  0.00    -0.082 HD
ATOM     26  C   UNL     1       0.048 -10.833 -13.542  0.00  0.00    -0.064 C 
ATOM     27  C   UNL     1       0.771 -10.297 -14.809  0.00  0.00    +0.066 C 
ENDBRANCH  19  20
ENDBRANCH  18  19
ENDBRANCH  14  15
ENDBRANCH  12  13
TORSDOF 6
ENDMDL
MODEL 3
REMARK VINA RESULT:      -8.0      5.177     11.800
REMARK  Name = C:\Users\Docking\Desktop\test protocol\1iep_ligandH.pdb
REMARK  8 active torsions:
REMARK  status: ('A' for Active; 'I' for Inactive)
REMARK    1  A    between atoms: _5  and  _11
REMARK    2  A    between atoms: _19  and  _21
REMARK    3  A    between atoms: _22  and  _66
REMARK    4  A    between atoms: _27  and  _30
REMARK    5  A    between atoms: _32  and  _33
REMARK    6  A    between atoms: _38  and  _43
REMARK    7  A    between atoms: _43  and  _46
REMARK    8  A    between atoms: _53  and  _55
REMARK                            x       y       z     vdW  Elec       q    Type
REMARK                         _______ _______ _______ _____ _____    ______ ____
ROOT
ATOM     10  C   UNL     1      12.022 -10.374 -19.769  0.00  0.00    +0.038 A 
ATOM     11  C   UNL     1      10.676 -10.416 -19.323  0.00  0.00    +0.047 A 
ATOM     12  C   UNL     1      10.149  -9.400 -18.425  0.00  0.00    +0.035 A 
ATOM     32  C   UNL     1      11.020  -8.354 -18.002  0.00  0.00    +0.024 A 
ATOM     33  C   UNL     1      12.391  -8.297 -18.445  0.00  0.00    +0.007 A 
ATOM     34  C   UNL     1      12.917  -9.297 -19.329  0.00  0.00    -0.029 A 
ATOM     35  C   UNL     1      14.397  -9.189 -19.766  0.00  0.00    +0.045 C 
ENDROOT
BRANCH  10   9
ATOM      4  C   UNL     1      11.590 -13.082 -23.708  0.00  0.00    +0.077 A 
ATOM      5  C   UNL     1      10.343 -12.470 -24.064  0.00  0.00    +0.048 A 
ATOM      6  C   UNL     1       9.843 -11.467 -23.203  0.00  0.00    +0.116 A 
ATOM      7  N   UNL     1      10.547 -11.111 -22.073  0.00  0.00    -0.223 NA
ATOM      8  C   UNL     1      11.746 -11.723 -21.758  0.00  0.00    +0.220 A 
ATOM      9  N   UNL     1      12.475 -11.375 -20.631  0.00  0.00    -0.283 N 
ATOM     36  H   UNL     1      13.352 -11.855 -20.430  0.00  0.00    +0.155 HD
ATOM     37  N   UNL     1      12.244 -12.684 -22.564  0.00  0.00    -0.214 NA
BRANCH   4   3
ATOM      1  C   UNL     1      12.513 -16.550 -25.266  0.00  0.00    +0.020 A 
ATOM      2  C   UNL     1      11.843 -15.553 -24.462  0.00  0.00    +0.013 A 
ATOM      3  C   UNL     1      12.249 -14.154 -24.519  0.00  0.00    +0.019 A 
ATOM     38  C   UNL     1      13.344 -13.794 -25.407  0.00  0.00    +0.120 A 
ATOM     39  N   UNL     1      13.971 -14.776 -26.168  0.00  0.00    -0.263 NA
ATOM     40  C   UNL     1      13.590 -16.125 -26.120  0.00  0.00    +0.111 A 
ENDBRANCH   4   3
ENDBRANCH  10   9
BRANCH  12  13
ATOM     13  N   UNL     1       8.794  -9.395 -17.932  0.00  0.00    -0.281 N 
ATOM     14  C   UNL     1       8.227 -10.239 -16.991  0.00  0.00    +0.248 C 
ATOM     30  O   UNL     1       8.745 -11.268 -16.584  0.00  0.00    -0.270 OA
ATOM     31  H   UNL     1       8.178  -8.683 -18.325  0.00  0.00    +0.155 HD
BRANCH  14  15
ATOM     15  C   UNL     1       6.883  -9.897 -16.432  0.00  0.00    +0.037 A 
ATOM     16  C   UNL     1       6.145  -8.718 -16.893  0.00  0.00    +0.013 A 
ATOM     17  C   UNL     1       4.859  -8.402 -16.325  0.00  0.00    +0.005 A 
ATOM     18  C   UNL     1       4.301  -9.268 -15.289  0.00  0.00    -0.033 A 
ATOM     28  C   UNL     1       5.052 -10.434 -14.853  0.00  0.00    +0.005 A 
ATOM     29  C   UNL     1       6.314 -10.747 -15.408  0.00  0.00    +0.013 A 
BRANCH  18  19
ATOM     19  C   UNL     1       2.945  -8.996 -14.611  0.00  0.00    +0.119 C 
BRANCH  19  20
ATOM     20  N   UNL     1       1.715  -9.240 -15.422  0.00  0.00    -0.302 NA
ATOM     21  C   UNL     1       0.441  -8.864 -14.659  0.00  0.00    +0.066 C 
ATOM     22  C   UNL     1      -0.835  -9.105 -15.530  0.00  0.00    -0.064 C 
ATOM     23  N   UNL     1      -0.879 -10.569 -15.971  0.00  0.00    +0.379 N 
ATOM     24  C   UNL     1      -2.108 -10.812 -16.742  0.00  0.00    -0.096 C 
ATOM     25  H   UNL     1      -0.926 -11.198 -15.052  0.00  0.00    -0.082 HD
ATOM     26  C   UNL     1       0.385 -10.951 -16.728  0.00  0.00    -0.064 C 
ATOM     27  C   UNL     1       1.649 -10.681 -15.865  0.00  0.00    +0.066 C 
ENDBRANCH  19  20
ENDBRANCH  18  19
ENDBRANCH  14  15
ENDBRANCH  12  13
TORSDOF 6
ENDMDL
MODEL 4
REMARK VINA RESULT:      -7.8      5.469     11.810
REMARK  Name = C:\Users\Docking\Desktop\test protocol\1iep_ligandH.pdb
REMARK  8 active torsions:
REMARK  status: ('A' for Active; 'I' for Inactive)
REMARK    1  A    between atoms: _5  and  _11
REMARK    2  A    between atoms: _19  and  _21
REMARK    3  A    between atoms: _22  and  _66
REMARK    4  A    between atoms: _27  and  _30
REMARK    5  A    between atoms: _32  and  _33
REMARK    6  A    between atoms: _38  and  _43
REMARK    7  A    between atoms: _43  and  _46
REMARK    8  A    between atoms: _53  and  _55
REMARK                            x       y       z     vdW  Elec       q    Type
REMARK                         _______ _______ _______ _____ _____    ______ ____
ROOT
ATOM     10  C   UNL     1      11.696 -10.366 -19.368  0.00  0.00    +0.038 A 
ATOM     11  C   UNL     1      10.395 -10.630 -18.869  0.00  0.00    +0.047 A 
ATOM     12  C   UNL     1       9.744  -9.714 -17.945  0.00  0.00    +0.035 A 
ATOM     32  C   UNL     1      10.447  -8.537 -17.553  0.00  0.00    +0.024 A 
ATOM     33  C   UNL     1      11.770  -8.254 -18.050  0.00  0.00    +0.007 A 
ATOM     34  C   UNL     1      12.418  -9.155 -18.959  0.00  0.00    -0.029 A 
ATOM     35  C   UNL     1      13.841  -8.805 -19.455  0.00  0.00    +0.045 C 
ENDROOT
BRANCH  10   9
ATOM      4  C   UNL     1      11.697 -12.873 -23.462  0.00  0.00    +0.077 A 
ATOM      5  C   UNL     1      10.427 -12.338 -23.859  0.00  0.00    +0.048 A 
ATOM      6  C   UNL     1       9.803 -11.426 -22.978  0.00  0.00    +0.116 A 
ATOM      7  N   UNL     1      10.413 -11.082 -21.791  0.00  0.00    -0.223 NA
ATOM      8  C   UNL     1      11.638 -11.618 -21.438  0.00  0.00    +0.220 A 
ATOM      9  N   UNL     1      12.274 -11.280 -20.253  0.00  0.00    -0.283 N 
ATOM     36  H   UNL     1      13.173 -11.702 -20.025  0.00  0.00    +0.155 HD
ATOM     37  N   UNL     1      12.254 -12.492 -22.261  0.00  0.00    -0.214 NA
BRANCH   4   3
ATOM      1  C   UNL     1      14.494 -15.309 -24.705  0.00  0.00    +0.020 A 
ATOM      2  C   UNL     1      13.777 -14.371 -23.872  0.00  0.00    +0.013 A 
ATOM      3  C   UNL     1      12.482 -13.845 -24.286  0.00  0.00    +0.019 A 
ATOM     38  C   UNL     1      11.937 -14.291 -25.560  0.00  0.00    +0.120 A 
ATOM     39  N   UNL     1      12.651 -15.193 -26.342  0.00  0.00    -0.263 NA
ATOM     40  C   UNL     1      13.898 -15.705 -25.954  0.00  0.00    +0.111 A 
ENDBRANCH   4   3
ENDBRANCH  10   9
BRANCH  12  13
ATOM     13  N   UNL     1       8.428  -9.933 -17.399  0.00  0.00    -0.281 N 
ATOM     14  C   UNL     1       7.239  -9.330 -17.775  0.00  0.00    +0.248 C 
ATOM     30  O   UNL     1       7.160  -8.348 -18.498  0.00  0.00    -0.270 OA
ATOM     31  H   UNL     1       8.365 -10.615 -16.643  0.00  0.00    +0.155 HD
BRANCH  14  15
ATOM     15  C   UNL     1       5.951  -9.889 -17.261  0.00  0.00    +0.037 A 
ATOM     16  C   UNL     1       5.931 -11.040 -16.354  0.00  0.00    +0.013 A 
ATOM     17  C   UNL     1       4.675 -11.570 -15.887  0.00  0.00    +0.005 A 
ATOM     18  C   UNL     1       3.428 -10.949 -16.325  0.00  0.00    -0.033 A 
ATOM     28  C   UNL     1       3.477  -9.805 -17.220  0.00  0.00    +0.005 A 
ATOM     29  C   UNL     1       4.706  -9.283 -17.681  0.00  0.00    +0.013 A 
BRANCH  18  19
ATOM     19  C   UNL     1       2.041 -11.461 -15.893  0.00  0.00    +0.119 C 
BRANCH  19  20
ATOM     20  N   UNL     1       1.381 -10.767 -14.748  0.00  0.00    -0.302 NA
ATOM     21  C   UNL     1       1.669 -11.461 -13.413  0.00  0.00    +0.066 C 
ATOM     22  C   UNL     1       0.990 -10.708 -12.223  0.00  0.00    -0.064 C 
ATOM     23  N   UNL     1      -0.516 -10.618 -12.473  0.00  0.00    +0.379 N 
ATOM     24  C   UNL     1      -1.165  -9.962 -11.328  0.00  0.00    -0.096 C 
ATOM     25  H   UNL     1      -0.911 -11.659 -12.535  0.00  0.00    -0.082 HD
ATOM     26  C   UNL     1      -0.811  -9.932 -13.799  0.00  0.00    -0.064 C 
ATOM     27  C   UNL     1      -0.108 -10.670 -14.972  0.00  0.00    +0.066 C 
ENDBRANCH  19  20
ENDBRANCH  18  19
ENDBRANCH  14  15
ENDBRANCH  12  13
TORSDOF 6
ENDMDL
MODEL 5
REMARK VINA RESULT:      -7.5     34.641     39.278
REMARK  Name = C:\Users\Docking\Desktop\test protocol\1iep_ligandH.pdb
REMARK  8 active torsions:
REMARK  status: ('A' for Active; 'I' for Inactive)
REMARK    1  A    between atoms: _5  and  _11
REMARK    2  A    between atoms: _19  and  _21
REMARK    3  A    between atoms: _22  and  _66
REMARK    4  A    between atoms: _27  and  _30
REMARK    5  A    between atoms: _32  and  _33
REMARK    6  A    between atoms: _38  and  _43
REMARK    7  A    between atoms: _43  and  _46
REMARK    8  A    between atoms: _53  and  _55
REMARK                            x       y       z     vdW  Elec       q    Type
REMARK                         _______ _______ _______ _____ _____    ______ ____
ROOT
ATOM     10  C   UNL     1     -16.325  11.540   2.243  0.00  0.00    +0.038 A 
ATOM     11  C   UNL     1     -16.076  12.195   1.010  0.00  0.00    +0.047 A 
ATOM     12  C   UNL     1     -16.642  13.505   0.726  0.00  0.00    +0.035 A 
ATOM     32  C   UNL     1     -17.456  14.119   1.721  0.00  0.00    +0.024 A 
ATOM     33  C   UNL     1     -17.721  13.467   2.979  0.00  0.00    +0.007 A 
ATOM     34  C   UNL     1     -17.167  12.174   3.264  0.00  0.00    -0.029 A 
ATOM     35  C   UNL     1     -17.490  11.519   4.627  0.00  0.00    +0.045 C 
ENDROOT
BRANCH  10   9
ATOM      4  C   UNL     1     -12.631   8.716   3.433  0.00  0.00    +0.077 A 
ATOM      5  C   UNL     1     -11.753   9.838   3.604  0.00  0.00    +0.048 A 
ATOM      6  C   UNL     1     -12.289  11.124   3.370  0.00  0.00    +0.116 A 
ATOM      7  N   UNL     1     -13.607  11.266   2.992  0.00  0.00    -0.223 NA
ATOM      8  C   UNL     1     -14.426  10.164   2.834  0.00  0.00    +0.220 A 
ATOM      9  N   UNL     1     -15.756  10.284   2.463  0.00  0.00    -0.283 N 
ATOM     36  H   UNL     1     -16.326   9.445   2.349  0.00  0.00    +0.155 HD
ATOM     37  N   UNL     1     -13.938   8.925   3.051  0.00  0.00    -0.214 NA
BRANCH   4   3
ATOM      1  C   UNL     1     -11.369   5.064   2.824  0.00  0.00    +0.020 A 
ATOM      2  C   UNL     1     -11.762   6.430   2.564  0.00  0.00    +0.013 A 
ATOM      3  C   UNL     1     -12.213   7.295   3.647  0.00  0.00    +0.019 A 
ATOM     38  C   UNL     1     -12.254   6.743   4.992  0.00  0.00    +0.120 A 
ATOM     39  N   UNL     1     -11.871   5.424   5.213  0.00  0.00    -0.263 NA
ATOM     40  C   UNL     1     -11.437   4.582   4.178  0.00  0.00    +0.111 A 
ENDBRANCH   4   3
ENDBRANCH  10   9
BRANCH  12  13
ATOM     13  N   UNL     1     -16.430  14.215  -0.511  0.00  0.00    -0.281 N 
ATOM     14  C   UNL     1     -15.237  14.705  -1.018  0.00  0.00    +0.248 C 
ATOM     30  O   UNL     1     -14.199  14.794  -0.379  0.00  0.00    -0.270 OA
ATOM     31  H   UNL     1     -17.260  14.376  -1.082  0.00  0.00    +0.155 HD
BRANCH  14  15
ATOM     15  C   UNL     1     -15.195  15.177  -2.436  0.00  0.00    +0.037 A 
ATOM     16  C   UNL     1     -13.933  15.565  -3.070  0.00  0.00    +0.013 A 
ATOM     17  C   UNL     1     -13.923  16.034  -4.433  0.00  0.00    +0.005 A 
ATOM     18  C   UNL     1     -15.181  16.116  -5.172  0.00  0.00    -0.033 A 
ATOM     28  C   UNL     1     -16.418  15.720  -4.519  0.00  0.00    +0.005 A 
ATOM     29  C   UNL     1     -16.432  15.261  -3.183  0.00  0.00    +0.013 A 
BRANCH  18  19
ATOM     19  C   UNL     1     -15.267  16.624  -6.623  0.00  0.00    +0.119 C 
BRANCH  19  20
ATOM     20  N   UNL     1     -14.550  15.835  -7.668  0.00  0.00    -0.302 NA
ATOM     21  C   UNL     1     -14.746  16.423  -9.068  0.00  0.00    +0.066 C 
ATOM     22  C   UNL     1     -13.970  15.598 -10.146  0.00  0.00    -0.064 C 
ATOM     23  N   UNL     1     -14.436  14.141 -10.101  0.00  0.00    +0.379 N 
ATOM     24  C   UNL     1     -13.751  13.375 -11.152  0.00  0.00    -0.096 C 
ATOM     25  H   UNL     1     -15.527  14.128 -10.329  0.00  0.00    -0.082 HD
ATOM     26  C   UNL     1     -14.247  13.549  -8.712  0.00  0.00    -0.064 C 
ATOM     27  C   UNL     1     -14.998  14.394  -7.644  0.00  0.00    +0.066 C 
ENDBRANCH  19  20
ENDBRANCH  18  19
ENDBRANCH  14  15
ENDBRANCH  12  13
TORSDOF 6
ENDMDL
