MODEL 1
REMARK VINA RESULT:      -7.6      0.000      0.000
REMARK  Name = C:\Users\Docking\Desktop\test protocol\1iep_ligandH.pdb
REMARK  8 active torsions:
REMARK  status: ('A' for Active; 'I' for Inactive)
REMARK    1  A    between atoms: _5  and  _11
REMARK    2  A    between atoms: _19  and  _21
REMARK    3  A    between atoms: _22  and  _66
REMARK    4  A    between atoms: _27  and  _30
REMARK    5  A    between atoms: _32  and  _33
REMARK    6  A    between atoms: _38  and  _43
REMARK    7  A    between atoms: _43  and  _46
REMARK    8  A    between atoms: _53  and  _55
REMARK                            x       y       z     vdW  Elec       q    Type
REMARK                         _______ _______ _______ _____ _____    ______ ____
ROOT
ATOM     10  C   UNL     1      88.998   5.534  17.571  0.00  0.00    +0.038 A 
ATOM     11  C   UNL     1      89.054   5.923  16.208  0.00  0.00    +0.047 A 
ATOM     12  C   UNL     1      87.894   5.794  15.341  0.00  0.00    +0.035 A 
ATOM     32  C   UNL     1      86.691   5.267  15.895  0.00  0.00    +0.024 A 
ATOM     33  C   UNL     1      86.617   4.866  17.278  0.00  0.00    +0.007 A 
ATOM     34  C   UNL     1      87.759   4.988  18.138  0.00  0.00    -0.029 A 
ATOM     35  C   UNL     1      87.624   4.536  19.610  0.00  0.00    +0.045 C 
ENDROOT
BRANCH  10   9
ATOM      4  C   UNL     1      93.347   4.112  19.021  0.00  0.00    +0.077 A 
ATOM      5  C   UNL     1      93.327   2.968  18.156  0.00  0.00    +0.048 A 
ATOM      6  C   UNL     1      92.176   2.777  17.359  0.00  0.00    +0.116 A 
ATOM      7  N   UNL     1      91.129   3.671  17.430  0.00  0.00    -0.223 NA
ATOM      8  C   UNL     1      91.180   4.763  18.277  0.00  0.00    +0.220 A 
ATOM      9  N   UNL     1      90.142   5.679  18.359  0.00  0.00    -0.283 N 
ATOM     36  H   UNL     1      90.215   6.467  19.001  0.00  0.00    +0.155 HD
ATOM     37  N   UNL     1      92.268   4.966  19.049  0.00  0.00    -0.214 NA
BRANCH   4   3
ATOM      1  C   UNL     1      96.958   4.638  20.431  0.00  0.00    +0.020 A 
ATOM      2  C   UNL     1      95.887   4.295  19.523  0.00  0.00    +0.013 A 
ATOM      3  C   UNL     1      94.494   4.451  19.922  0.00  0.00    +0.019 A 
ATOM     38  C   UNL     1      94.216   4.960  21.257  0.00  0.00    +0.120 A 
ATOM     39  N   UNL     1      95.268   5.280  22.110  0.00  0.00    -0.263 NA
ATOM     40  C   UNL     1      96.612   5.133  21.737  0.00  0.00    +0.111 A 
ENDBRANCH   4   3
ENDBRANCH  10   9
BRANCH  12  13
ATOM     13  N   UNL     1      87.894   6.165  13.947  0.00  0.00    -0.281 N 
ATOM     14  C   UNL     1      88.974   6.542  13.166  0.00  0.00    +0.248 C 
ATOM     30  O   UNL     1      90.079   6.825  13.605  0.00  0.00    -0.270 OA
ATOM     31  H   UNL     1      86.987   6.148  13.480  0.00  0.00    +0.155 HD
BRANCH  14  15
ATOM     15  C   UNL     1      88.798   6.632  11.685  0.00  0.00    +0.037 A 
ATOM     16  C   UNL     1      87.850   5.766  10.978  0.00  0.00    +0.013 A 
ATOM     17  C   UNL     1      87.712   5.861   9.547  0.00  0.00    +0.005 A 
ATOM     18  C   UNL     1      88.523   6.829   8.812  0.00  0.00    -0.033 A 
ATOM     28  C   UNL     1      89.451   7.679   9.538  0.00  0.00    +0.005 A 
ATOM     29  C   UNL     1      89.590   7.588  10.941  0.00  0.00    +0.013 A 
BRANCH  18  19
ATOM     19  C   UNL     1      88.457   6.984   7.281  0.00  0.00    +0.119 C 
BRANCH  19  20
ATOM     20  N   UNL     1      89.665   7.533   6.596  0.00  0.00    -0.302 NA
ATOM     21  C   UNL     1      89.296   8.440   5.419  0.00  0.00    +0.066 C 
ATOM     22  C   UNL     1      90.571   9.024   4.728  0.00  0.00    -0.064 C 
ATOM     23  N   UNL     1      91.469   7.874   4.266  0.00  0.00    +0.379 N 
ATOM     24  C   UNL     1      92.641   8.418   3.565  0.00  0.00    -0.096 C 
ATOM     25  H   UNL     1      90.888   7.266   3.534  0.00  0.00    -0.082 HD
ATOM     26  C   UNL     1      91.838   6.966   5.430  0.00  0.00    -0.064 C 
ATOM     27  C   UNL     1      90.563   6.415   6.128  0.00  0.00    +0.066 C 
ENDBRANCH  19  20
ENDBRANCH  18  19
ENDBRANCH  14  15
ENDBRANCH  12  13
TORSDOF 6
ENDMDL
MODEL 2
REMARK VINA RESULT:      -7.5      1.543      2.026
REMARK  Name = C:\Users\Docking\Desktop\test protocol\1iep_ligandH.pdb
REMARK  8 active torsions:
REMARK  status: ('A' for Active; 'I' for Inactive)
REMARK    1  A    between atoms: _5  and  _11
REMARK    2  A    between atoms: _19  and  _21
REMARK    3  A    between atoms: _22  and  _66
REMARK    4  A    between atoms: _27  and  _30
REMARK    5  A    between atoms: _32  and  _33
REMARK    6  A    between atoms: _38  and  _43
REMARK    7  A    between atoms: _43  and  _46
REMARK    8  A    between atoms: _53  and  _55
REMARK                            x       y       z     vdW  Elec       q    Type
REMARK                         _______ _______ _______ _____ _____    ______ ____
ROOT
ATOM     10  C   UNL     1      89.251   5.939  15.974  0.00  0.00    +0.038 A 
ATOM     11  C   UNL     1      89.464   6.442  14.666  0.00  0.00    +0.047 A 
ATOM     12  C   UNL     1      88.389   6.470  13.686  0.00  0.00    +0.035 A 
ATOM     32  C   UNL     1      87.108   5.981  14.074  0.00  0.00    +0.024 A 
ATOM     33  C   UNL     1      86.874   5.465  15.400  0.00  0.00    +0.007 A 
ATOM     34  C   UNL     1      87.931   5.432  16.370  0.00  0.00    -0.029 A 
ATOM     35  C   UNL     1      87.625   4.862  17.775  0.00  0.00    +0.045 C 
ENDROOT
BRANCH  10   9
ATOM      4  C   UNL     1      93.287   4.038  17.747  0.00  0.00    +0.077 A 
ATOM      5  C   UNL     1      93.250   2.946  16.818  0.00  0.00    +0.048 A 
ATOM      6  C   UNL     1      92.172   2.906  15.905  0.00  0.00    +0.116 A 
ATOM      7  N   UNL     1      91.209   3.890  15.928  0.00  0.00    -0.223 NA
ATOM      8  C   UNL     1      91.273   4.929  16.839  0.00  0.00    +0.220 A 
ATOM      9  N   UNL     1      90.319   5.935  16.875  0.00  0.00    -0.283 N 
ATOM     36  H   UNL     1      90.398   6.680  17.566  0.00  0.00    +0.155 HD
ATOM     37  N   UNL     1      92.291   4.989  17.722  0.00  0.00    -0.214 NA
BRANCH   4   3
ATOM      1  C   UNL     1      96.779   4.229  19.499  0.00  0.00    +0.020 A 
ATOM      2  C   UNL     1      95.778   4.040  18.473  0.00  0.00    +0.013 A 
ATOM      3  C   UNL     1      94.363   4.221  18.771  0.00  0.00    +0.019 A 
ATOM     38  C   UNL     1      93.990   4.598  20.126  0.00  0.00    +0.120 A 
ATOM     39  N   UNL     1      94.976   4.771  21.093  0.00  0.00    -0.263 NA
ATOM     40  C   UNL     1      96.340   4.598  20.819  0.00  0.00    +0.111 A 
ENDBRANCH   4   3
ENDBRANCH  10   9
BRANCH  12  13
ATOM     13  N   UNL     1      88.548   6.962  12.340  0.00  0.00    -0.281 N 
ATOM     14  C   UNL     1      89.725   7.288  11.686  0.00  0.00    +0.248 C 
ATOM     30  O   UNL     1      90.810   7.409  12.235  0.00  0.00    -0.270 OA
ATOM     31  H   UNL     1      87.689   7.084  11.804  0.00  0.00    +0.155 HD
BRANCH  14  15
ATOM     15  C   UNL     1      89.689   7.528  10.211  0.00  0.00    +0.037 A 
ATOM     16  C   UNL     1      88.934   6.648   9.316  0.00  0.00    +0.013 A 
ATOM     17  C   UNL     1      88.930   6.892   7.896  0.00  0.00    +0.005 A 
ATOM     18  C   UNL     1      89.683   8.024   7.361  0.00  0.00    -0.033 A 
ATOM     28  C   UNL     1      90.420   8.884   8.272  0.00  0.00    +0.005 A 
ATOM     29  C   UNL     1      90.427   8.647   9.665  0.00  0.00    +0.013 A 
BRANCH  18  19
ATOM     19  C   UNL     1      89.753   8.347   5.857  0.00  0.00    +0.119 C 
BRANCH  19  20
ATOM     20  N   UNL     1      90.641   9.473   5.440  0.00  0.00    -0.302 NA
ATOM     21  C   UNL     1      89.985  10.358   4.376  0.00  0.00    +0.066 C 
ATOM     22  C   UNL     1      90.919  11.543   3.967  0.00  0.00    -0.064 C 
ATOM     23  N   UNL     1      92.253  10.988   3.463  0.00  0.00    +0.379 N 
ATOM     24  C   UNL     1      93.111  12.097   3.024  0.00  0.00    -0.096 C 
ATOM     25  H   UNL     1      92.039  10.352   2.573  0.00  0.00    -0.082 HD
ATOM     26  C   UNL     1      92.910  10.104   4.514  0.00  0.00    -0.064 C 
ATOM     27  C   UNL     1      91.962   8.947   4.935  0.00  0.00    +0.066 C 
ENDBRANCH  19  20
ENDBRANCH  18  19
ENDBRANCH  14  15
ENDBRANCH  12  13
TORSDOF 6
ENDMDL
MODEL 3
REMARK VINA RESULT:      -7.2     26.661     30.126
REMARK  Name = C:\Users\Docking\Desktop\test protocol\1iep_ligandH.pdb
REMARK  8 active torsions:
REMARK  status: ('A' for Active; 'I' for Inactive)
REMARK    1  A    between atoms: _5  and  _11
REMARK    2  A    between atoms: _19  and  _21
REMARK    3  A    between atoms: _22  and  _66
REMARK    4  A    between atoms: _27  and  _30
REMARK    5  A    between atoms: _32  and  _33
REMARK    6  A    between atoms: _38  and  _43
REMARK    7  A    between atoms: _43  and  _46
REMARK    8  A    between atoms: _53  and  _55
REMARK                            x       y       z     vdW  Elec       q    Type
REMARK                         _______ _______ _______ _____ _____    ______ ____
ROOT
ATOM     10  C   UNL     1      79.290  13.141  -9.301  0.00  0.00    +0.038 A 
ATOM     11  C   UNL     1      78.336  12.294  -9.921  0.00  0.00    +0.047 A 
ATOM     12  C   UNL     1      78.717  11.395 -10.999  0.00  0.00    +0.035 A 
ATOM     32  C   UNL     1      80.079  11.382 -11.419  0.00  0.00    +0.024 A 
ATOM     33  C   UNL     1      81.062  12.237 -10.800  0.00  0.00    +0.007 A 
ATOM     34  C   UNL     1      80.691  13.128  -9.738  0.00  0.00    -0.029 A 
ATOM     35  C   UNL     1      81.785  14.027  -9.115  0.00  0.00    +0.045 C 
ENDROOT
BRANCH  10   9
ATOM      4  C   UNL     1      77.407  17.256  -7.701  0.00  0.00    +0.077 A 
ATOM      5  C   UNL     1      77.276  17.781  -9.029  0.00  0.00    +0.048 A 
ATOM      6  C   UNL     1      77.711  16.963 -10.096  0.00  0.00    +0.116 A 
ATOM      7  N   UNL     1      78.237  15.715  -9.842  0.00  0.00    -0.223 NA
ATOM      8  C   UNL     1      78.351  15.239  -8.548  0.00  0.00    +0.220 A 
ATOM      9  N   UNL     1      78.869  13.984  -8.270  0.00  0.00    -0.283 N 
ATOM     36  H   UNL     1      78.943  13.673  -7.302  0.00  0.00    +0.155 HD
ATOM     37  N   UNL     1      77.944  16.002  -7.512  0.00  0.00    -0.214 NA
BRANCH   4   3
ATOM      1  C   UNL     1      77.211  18.579  -4.025  0.00  0.00    +0.020 A 
ATOM      2  C   UNL     1      77.654  17.837  -5.183  0.00  0.00    +0.013 A 
ATOM      3  C   UNL     1      76.989  17.999  -6.470  0.00  0.00    +0.019 A 
ATOM     38  C   UNL     1      75.871  18.927  -6.552  0.00  0.00    +0.120 A 
ATOM     39  N   UNL     1      75.466  19.626  -5.420  0.00  0.00    -0.263 NA
ATOM     40  C   UNL     1      76.097  19.477  -4.176  0.00  0.00    +0.111 A 
ENDBRANCH   4   3
ENDBRANCH  10   9
BRANCH  12  13
ATOM     13  N   UNL     1      77.792  10.518 -11.673  0.00  0.00    -0.281 N 
ATOM     14  C   UNL     1      77.440   9.223 -11.327  0.00  0.00    +0.248 C 
ATOM     30  O   UNL     1      78.033   8.543 -10.503  0.00  0.00    -0.270 OA
ATOM     31  H   UNL     1      77.341  10.898 -12.505  0.00  0.00    +0.155 HD
BRANCH  14  15
ATOM     15  C   UNL     1      76.270   8.587 -12.005  0.00  0.00    +0.037 A 
ATOM     16  C   UNL     1      76.436   7.802 -13.231  0.00  0.00    +0.013 A 
ATOM     17  C   UNL     1      75.288   7.214 -13.874  0.00  0.00    +0.005 A 
ATOM     18  C   UNL     1      73.963   7.408 -13.291  0.00  0.00    -0.033 A 
ATOM     28  C   UNL     1      73.827   8.187 -12.072  0.00  0.00    +0.005 A 
ATOM     29  C   UNL     1      74.950   8.766 -11.439  0.00  0.00    +0.013 A 
BRANCH  18  19
ATOM     19  C   UNL     1      72.680   6.834 -13.922  0.00  0.00    +0.119 C 
BRANCH  19  20
ATOM     20  N   UNL     1      71.700   6.180 -13.004  0.00  0.00    -0.302 NA
ATOM     21  C   UNL     1      71.402   4.736 -13.417  0.00  0.00    +0.066 C 
ATOM     22  C   UNL     1      70.393   4.059 -12.433  0.00  0.00    -0.064 C 
ATOM     23  N   UNL     1      69.106   4.884 -12.379  0.00  0.00    +0.379 N 
ATOM     24  C   UNL     1      68.133   4.219 -11.500  0.00  0.00    -0.096 C 
ATOM     25  H   UNL     1      68.674   4.904 -13.407  0.00  0.00    -0.082 HD
ATOM     26  C   UNL     1      69.394   6.322 -11.972  0.00  0.00    -0.064 C 
ATOM     27  C   UNL     1      70.420   6.976 -12.939  0.00  0.00    +0.066 C 
ENDBRANCH  19  20
ENDBRANCH  18  19
ENDBRANCH  14  15
ENDBRANCH  12  13
TORSDOF 6
ENDMDL
MODEL 4
REMARK VINA RESULT:      -7.2     30.459     34.431
REMARK  Name = C:\Users\Docking\Desktop\test protocol\1iep_ligandH.pdb
REMARK  8 active torsions:
REMARK  status: ('A' for Active; 'I' for Inactive)
REMARK    1  A    between atoms: _5  and  _11
REMARK    2  A    between atoms: _19  and  _21
REMARK    3  A    between atoms: _22  and  _66
REMARK    4  A    between atoms: _27  and  _30
REMARK    5  A    between atoms: _32  and  _33
REMARK    6  A    between atoms: _38  and  _43
REMARK    7  A    between atoms: _43  and  _46
REMARK    8  A    between atoms: _53  and  _55
REMARK                            x       y       z     vdW  Elec       q    Type
REMARK                         _______ _______ _______ _____ _____    ______ ____
ROOT
ATOM     10  C   UNL     1      75.685   7.980 -13.401  0.00  0.00    +0.038 A 
ATOM     11  C   UNL     1      76.127   8.088 -14.745  0.00  0.00    +0.047 A 
ATOM     12  C   UNL     1      77.157   9.043 -15.123  0.00  0.00    +0.035 A 
ATOM     32  C   UNL     1      77.717   9.871 -14.107  0.00  0.00    +0.024 A 
ATOM     33  C   UNL     1      77.278   9.775 -12.737  0.00  0.00    +0.007 A 
ATOM     34  C   UNL     1      76.261   8.837 -12.358  0.00  0.00    -0.029 A 
ATOM     35  C   UNL     1      75.825   8.782 -10.875  0.00  0.00    +0.045 C 
ENDROOT
BRANCH  10   9
ATOM      4  C   UNL     1      71.110   6.775 -12.592  0.00  0.00    +0.077 A 
ATOM      5  C   UNL     1      70.660   8.126 -12.771  0.00  0.00    +0.048 A 
ATOM      6  C   UNL     1      71.639   9.102 -13.063  0.00  0.00    +0.116 A 
ATOM      7  N   UNL     1      72.966   8.743 -13.167  0.00  0.00    -0.223 NA
ATOM      8  C   UNL     1      73.365   7.431 -12.987  0.00  0.00    +0.220 A 
ATOM      9  N   UNL     1      74.693   7.046 -13.094  0.00  0.00    -0.283 N 
ATOM     36  H   UNL     1      74.948   6.070 -12.947  0.00  0.00    +0.155 HD
ATOM     37  N   UNL     1      72.450   6.481 -12.706  0.00  0.00    -0.214 NA
BRANCH   4   3
ATOM      1  C   UNL     1      69.624   3.174 -12.236  0.00  0.00    +0.020 A 
ATOM      2  C   UNL     1      70.544   4.242 -12.555  0.00  0.00    +0.013 A 
ATOM      3  C   UNL     1      70.195   5.631 -12.283  0.00  0.00    +0.019 A 
ATOM     38  C   UNL     1      68.899   5.907 -11.682  0.00  0.00    +0.120 A 
ATOM     39  N   UNL     1      68.034   4.858 -11.387  0.00  0.00    -0.263 NA
ATOM     40  C   UNL     1      68.357   3.518 -11.646  0.00  0.00    +0.111 A 
ENDBRANCH   4   3
ENDBRANCH  10   9
BRANCH  12  13
ATOM     13  N   UNL     1      77.640   9.203 -16.473  0.00  0.00    -0.281 N 
ATOM     14  C   UNL     1      77.224  10.121 -17.423  0.00  0.00    +0.248 C 
ATOM     30  O   UNL     1      76.219  10.809 -17.326  0.00  0.00    -0.270 OA
ATOM     31  H   UNL     1      78.378   8.561 -16.762  0.00  0.00    +0.155 HD
BRANCH  14  15
ATOM     15  C   UNL     1      78.034  10.289 -18.667  0.00  0.00    +0.037 A 
ATOM     16  C   UNL     1      78.013   9.281 -19.730  0.00  0.00    +0.013 A 
ATOM     17  C   UNL     1      78.818   9.460 -20.913  0.00  0.00    +0.005 A 
ATOM     18  C   UNL     1      79.649  10.654 -21.039  0.00  0.00    -0.033 A 
ATOM     28  C   UNL     1      79.647  11.641 -19.972  0.00  0.00    +0.005 A 
ATOM     29  C   UNL     1      78.861  11.469 -18.811  0.00  0.00    +0.013 A 
BRANCH  18  19
ATOM     19  C   UNL     1      80.555  10.917 -22.257  0.00  0.00    +0.119 C 
BRANCH  19  20
ATOM     20  N   UNL     1      82.017  11.086 -21.998  0.00  0.00    -0.302 NA
ATOM     21  C   UNL     1      82.463  12.542 -22.151  0.00  0.00    +0.066 C 
ATOM     22  C   UNL     1      83.990  12.704 -21.855  0.00  0.00    -0.064 C 
ATOM     23  N   UNL     1      84.787  11.792 -22.789  0.00  0.00    +0.379 N 
ATOM     24  C   UNL     1      86.225  11.985 -22.553  0.00  0.00    -0.096 C 
ATOM     25  H   UNL     1      84.570  12.109 -23.836  0.00  0.00    -0.082 HD
ATOM     26  C   UNL     1      84.347  10.342 -22.646  0.00  0.00    -0.064 C 
ATOM     27  C   UNL     1      82.823  10.197 -22.913  0.00  0.00    +0.066 C 
ENDBRANCH  19  20
ENDBRANCH  18  19
ENDBRANCH  14  15
ENDBRANCH  12  13
TORSDOF 6
ENDMDL
MODEL 5
REMARK VINA RESULT:      -7.0     20.376     25.799
REMARK  Name = C:\Users\Docking\Desktop\test protocol\1iep_ligandH.pdb
REMARK  8 active torsions:
REMARK  status: ('A' for Active; 'I' for Inactive)
REMARK    1  A    between atoms: _5  and  _11
REMARK    2  A    between atoms: _19  and  _21
REMARK    3  A    between atoms: _22  and  _66
REMARK    4  A    between atoms: _27  and  _30
REMARK    5  A    between atoms: _32  and  _33
REMARK    6  A    between atoms: _38  and  _43
REMARK    7  A    between atoms: _43  and  _46
REMARK    8  A    between atoms: _53  and  _55
REMARK                            x       y       z     vdW  Elec       q    Type
REMARK                         _______ _______ _______ _____ _____    ______ ____
ROOT
ATOM     10  C   UNL     1      67.783  -3.201  22.842  0.00  0.00    +0.038 A 
ATOM     11  C   UNL     1      69.119  -2.829  23.140  0.00  0.00    +0.047 A 
ATOM     12  C   UNL     1      69.409  -1.717  24.032  0.00  0.00    +0.035 A 
ATOM     32  C   UNL     1      68.314  -1.007  24.605  0.00  0.00    +0.024 A 
ATOM     33  C   UNL     1      66.950  -1.371  24.312  0.00  0.00    +0.007 A 
ATOM     34  C   UNL     1      66.658  -2.465  23.431  0.00  0.00    -0.029 A 
ATOM     35  C   UNL     1      65.176  -2.806  23.147  0.00  0.00    +0.045 C 
ENDROOT
BRANCH  10   9
ATOM      4  C   UNL     1      67.258  -7.892  21.973  0.00  0.00    +0.077 A 
ATOM      5  C   UNL     1      67.468  -8.231  23.351  0.00  0.00    +0.048 A 
ATOM      6  C   UNL     1      67.715  -7.169  24.250  0.00  0.00    +0.116 A 
ATOM      7  N   UNL     1      67.747  -5.869  23.794  0.00  0.00    -0.223 NA
ATOM      8  C   UNL     1      67.542  -5.577  22.458  0.00  0.00    +0.220 A 
ATOM      9  N   UNL     1      67.562  -4.276  21.979  0.00  0.00    -0.283 N 
ATOM     36  H   UNL     1      67.414  -4.103  20.985  0.00  0.00    +0.155 HD
ATOM     37  N   UNL     1      67.306  -6.573  21.579  0.00  0.00    -0.214 NA
BRANCH   4   3
ATOM      1  C   UNL     1      67.317  -9.862  18.595  0.00  0.00    +0.020 A 
ATOM      2  C   UNL     1      67.618  -8.862  19.593  0.00  0.00    +0.013 A 
ATOM      3  C   UNL     1      66.982  -8.902  20.903  0.00  0.00    +0.019 A 
ATOM     38  C   UNL     1      66.039  -9.976  21.175  0.00  0.00    +0.120 A 
ATOM     39  N   UNL     1      65.767 -10.925  20.193  0.00  0.00    -0.263 NA
ATOM     40  C   UNL     1      66.372 -10.895  18.928  0.00  0.00    +0.111 A 
ENDBRANCH   4   3
ENDBRANCH  10   9
BRANCH  12  13
ATOM     13  N   UNL     1      70.745  -1.289  24.366  0.00  0.00    -0.281 N 
ATOM     14  C   UNL     1      71.440  -1.508  25.544  0.00  0.00    +0.248 C 
ATOM     30  O   UNL     1      70.937  -1.926  26.576  0.00  0.00    -0.270 OA
ATOM     31  H   UNL     1      71.238  -0.760  23.647  0.00  0.00    +0.155 HD
BRANCH  14  15
ATOM     15  C   UNL     1      72.904  -1.207  25.585  0.00  0.00    +0.037 A 
ATOM     16  C   UNL     1      73.574  -0.537  24.468  0.00  0.00    +0.013 A 
ATOM     17  C   UNL     1      74.990  -0.273  24.526  0.00  0.00    +0.005 A 
ATOM     18  C   UNL     1      75.745  -0.680  25.708  0.00  0.00    -0.033 A 
ATOM     28  C   UNL     1      75.055  -1.339  26.805  0.00  0.00    +0.005 A 
ATOM     29  C   UNL     1      73.667  -1.600  26.750  0.00  0.00    +0.013 A 
BRANCH  18  19
ATOM     19  C   UNL     1      77.263  -0.458  25.848  0.00  0.00    +0.119 C 
BRANCH  19  20
ATOM     20  N   UNL     1      78.148  -1.647  25.661  0.00  0.00    -0.302 NA
ATOM     21  C   UNL     1      79.628  -1.295  25.837  0.00  0.00    +0.066 C 
ATOM     22  C   UNL     1      80.537  -2.554  25.660  0.00  0.00    -0.064 C 
ATOM     23  N   UNL     1      80.288  -3.171  24.283  0.00  0.00    +0.379 N 
ATOM     24  C   UNL     1      81.183  -4.321  24.090  0.00  0.00    -0.096 C 
ATOM     25  H   UNL     1      80.552  -2.405  23.517  0.00  0.00    -0.082 HD
ATOM     26  C   UNL     1      78.818  -3.521  24.098  0.00  0.00    -0.064 C 
ATOM     27  C   UNL     1      77.921  -2.269  24.305  0.00  0.00    +0.066 C 
ENDBRANCH  19  20
ENDBRANCH  18  19
ENDBRANCH  14  15
ENDBRANCH  12  13
TORSDOF 6
ENDMDL
