MODEL 1
REMARK VINA RESULT:      -7.2      0.000      0.000
REMARK  Name = C:\Users\Docking\Desktop\test protocol\1iep_ligandH.pdb
REMARK  8 active torsions:
REMARK  status: ('A' for Active; 'I' for Inactive)
REMARK    1  A    between atoms: _5  and  _11
REMARK    2  A    between atoms: _19  and  _21
REMARK    3  A    between atoms: _22  and  _66
REMARK    4  A    between atoms: _27  and  _30
REMARK    5  A    between atoms: _32  and  _33
REMARK    6  A    between atoms: _38  and  _43
REMARK    7  A    between atoms: _43  and  _46
REMARK    8  A    between atoms: _53  and  _55
REMARK                            x       y       z     vdW  Elec       q    Type
REMARK                         _______ _______ _______ _____ _____    ______ ____
ROOT
ATOM     10  C   UNL     1      21.455  12.361  -2.895  0.00  0.00    +0.038 A 
ATOM     11  C   UNL     1      21.134  11.747  -4.133  0.00  0.00    +0.047 A 
ATOM     12  C   UNL     1      22.174  11.234  -5.011  0.00  0.00    +0.035 A 
ATOM     32  C   UNL     1      23.532  11.361  -4.595  0.00  0.00    +0.024 A 
ATOM     33  C   UNL     1      23.876  11.982  -3.341  0.00  0.00    +0.007 A 
ATOM     34  C   UNL     1      22.854  12.492  -2.472  0.00  0.00    -0.029 A 
ATOM     35  C   UNL     1      23.281  13.155  -1.142  0.00  0.00    +0.045 C 
ENDROOT
BRANCH  10   9
ATOM      4  C   UNL     1      18.243  11.817   0.630  0.00  0.00    +0.077 A 
ATOM      5  C   UNL     1      18.652  10.463   0.874  0.00  0.00    +0.048 A 
ATOM      6  C   UNL     1      19.687   9.942   0.065  0.00  0.00    +0.116 A 
ATOM      7  N   UNL     1      20.263  10.726  -0.911  0.00  0.00    -0.223 NA
ATOM      8  C   UNL     1      19.845  12.027  -1.121  0.00  0.00    +0.220 A 
ATOM      9  N   UNL     1      20.416  12.835  -2.091  0.00  0.00    -0.283 N 
ATOM     36  H   UNL     1      20.074  13.787  -2.220  0.00  0.00    +0.155 HD
ATOM     37  N   UNL     1      18.857  12.547  -0.363  0.00  0.00    -0.214 NA
BRANCH   4   3
ATOM      1  C   UNL     1      15.012  13.815   1.561  0.00  0.00    +0.020 A 
ATOM      2  C   UNL     1      16.026  13.160   0.768  0.00  0.00    +0.013 A 
ATOM      3  C   UNL     1      17.165  12.510   1.404  0.00  0.00    +0.019 A 
ATOM     38  C   UNL     1      17.248  12.540   2.856  0.00  0.00    +0.120 A 
ATOM     39  N   UNL     1      16.257  13.180   3.594  0.00  0.00    -0.263 NA
ATOM     40  C   UNL     1      15.158  13.811   2.993  0.00  0.00    +0.111 A 
ENDBRANCH   4   3
ENDBRANCH  10   9
BRANCH  12  13
ATOM     13  N   UNL     1      21.909  10.609  -6.283  0.00  0.00    -0.281 N 
ATOM     14  C   UNL     1      21.556  11.220  -7.475  0.00  0.00    +0.248 C 
ATOM     30  O   UNL     1      21.205  12.386  -7.576  0.00  0.00    -0.270 OA
ATOM     31  H   UNL     1      21.992   9.592  -6.307  0.00  0.00    +0.155 HD
BRANCH  14  15
ATOM     15  C   UNL     1      21.584  10.415  -8.734  0.00  0.00    +0.037 A 
ATOM     16  C   UNL     1      22.358   9.175  -8.827  0.00  0.00    +0.013 A 
ATOM     17  C   UNL     1      22.382   8.427 -10.059  0.00  0.00    +0.005 A 
ATOM     18  C   UNL     1      21.626   8.918 -11.209  0.00  0.00    -0.033 A 
ATOM     28  C   UNL     1      20.863  10.148 -11.088  0.00  0.00    +0.005 A 
ATOM     29  C   UNL     1      20.838  10.885  -9.882  0.00  0.00    +0.013 A 
BRANCH  18  19
ATOM     19  C   UNL     1      21.611   8.196 -12.569  0.00  0.00    +0.119 C 
BRANCH  19  20
ATOM     20  N   UNL     1      21.539   9.047 -13.794  0.00  0.00    -0.302 NA
ATOM     21  C   UNL     1      20.977   8.280 -14.994  0.00  0.00    +0.066 C 
ATOM     22  C   UNL     1      20.888   9.192 -16.261  0.00  0.00    -0.064 C 
ATOM     23  N   UNL     1      22.274   9.754 -16.580  0.00  0.00    +0.379 N 
ATOM     24  C   UNL     1      22.205  10.565 -17.804  0.00  0.00    -0.096 C 
ATOM     25  H   UNL     1      22.951   8.892 -16.783  0.00  0.00    -0.082 HD
ATOM     26  C   UNL     1      22.842  10.516 -15.390  0.00  0.00    -0.064 C 
ATOM     27  C   UNL     1      22.899   9.610 -14.129  0.00  0.00    +0.066 C 
ENDBRANCH  19  20
ENDBRANCH  18  19
ENDBRANCH  14  15
ENDBRANCH  12  13
TORSDOF 6
ENDMDL
MODEL 2
REMARK VINA RESULT:      -7.0     39.605     46.401
REMARK  Name = C:\Users\Docking\Desktop\test protocol\1iep_ligandH.pdb
REMARK  8 active torsions:
REMARK  status: ('A' for Active; 'I' for Inactive)
REMARK    1  A    between atoms: _5  and  _11
REMARK    2  A    between atoms: _19  and  _21
REMARK    3  A    between atoms: _22  and  _66
REMARK    4  A    between atoms: _27  and  _30
REMARK    5  A    between atoms: _32  and  _33
REMARK    6  A    between atoms: _38  and  _43
REMARK    7  A    between atoms: _43  and  _46
REMARK    8  A    between atoms: _53  and  _55
REMARK                            x       y       z     vdW  Elec       q    Type
REMARK                         _______ _______ _______ _____ _____    ______ ____
ROOT
ATOM     10  C   UNL     1     -19.718  11.882  20.593  0.00  0.00    +0.038 A 
ATOM     11  C   UNL     1     -18.870  11.258  19.644  0.00  0.00    +0.047 A 
ATOM     12  C   UNL     1     -17.487  11.676  19.481  0.00  0.00    +0.035 A 
ATOM     32  C   UNL     1     -16.999  12.733  20.303  0.00  0.00    +0.024 A 
ATOM     33  C   UNL     1     -17.848  13.380  21.273  0.00  0.00    +0.007 A 
ATOM     34  C   UNL     1     -19.214  12.973  21.436  0.00  0.00    -0.029 A 
ATOM     35  C   UNL     1     -20.080  13.706  22.487  0.00  0.00    +0.045 C 
ENDROOT
BRANCH  10   9
ATOM      4  C   UNL     1     -23.115   9.184  22.648  0.00  0.00    +0.077 A 
ATOM      5  C   UNL     1     -22.176   8.585  23.551  0.00  0.00    +0.048 A 
ATOM      6  C   UNL     1     -20.827   8.993  23.450  0.00  0.00    +0.116 A 
ATOM      7  N   UNL     1     -20.456   9.932  22.511  0.00  0.00    -0.223 NA
ATOM      8  C   UNL     1     -21.387  10.489  21.654  0.00  0.00    +0.220 A 
ATOM      9  N   UNL     1     -21.038  11.440  20.708  0.00  0.00    -0.283 N 
ATOM     36  H   UNL     1     -21.753  11.822  20.089  0.00  0.00    +0.155 HD
ATOM     37  N   UNL     1     -22.681  10.115  21.730  0.00  0.00    -0.214 NA
BRANCH   4   3
ATOM      1  C   UNL     1     -26.621   7.795  21.608  0.00  0.00    +0.020 A 
ATOM      2  C   UNL     1     -25.205   8.082  21.573  0.00  0.00    +0.013 A 
ATOM      3  C   UNL     1     -24.576   8.859  22.634  0.00  0.00    +0.019 A 
ATOM     38  C   UNL     1     -25.415   9.334  23.724  0.00  0.00    +0.120 A 
ATOM     39  N   UNL     1     -26.775   9.044  23.730  0.00  0.00    -0.263 NA
ATOM     40  C   UNL     1     -27.392   8.298  22.714  0.00  0.00    +0.111 A 
ENDBRANCH   4   3
ENDBRANCH  10   9
BRANCH  12  13
ATOM     13  N   UNL     1     -16.580  11.085  18.528  0.00  0.00    -0.281 N 
ATOM     14  C   UNL     1     -16.020   9.818  18.558  0.00  0.00    +0.248 C 
ATOM     30  O   UNL     1     -16.046   9.074  19.527  0.00  0.00    -0.270 OA
ATOM     31  H   UNL     1     -16.321  11.671  17.734  0.00  0.00    +0.155 HD
BRANCH  14  15
ATOM     15  C   UNL     1     -15.317   9.310  17.341  0.00  0.00    +0.037 A 
ATOM     16  C   UNL     1     -15.010  10.196  16.215  0.00  0.00    +0.013 A 
ATOM     17  C   UNL     1     -14.346   9.677  15.046  0.00  0.00    +0.005 A 
ATOM     18  C   UNL     1     -13.983   8.263  14.998  0.00  0.00    -0.033 A 
ATOM     28  C   UNL     1     -14.294   7.407  16.131  0.00  0.00    +0.005 A 
ATOM     29  C   UNL     1     -14.946   7.913  17.278  0.00  0.00    +0.013 A 
BRANCH  18  19
ATOM     19  C   UNL     1     -13.291   7.618  13.782  0.00  0.00    +0.119 C 
BRANCH  19  20
ATOM     20  N   UNL     1     -14.079   6.623  12.995  0.00  0.00    -0.302 NA
ATOM     21  C   UNL     1     -13.896   5.197  13.523  0.00  0.00    +0.066 C 
ATOM     22  C   UNL     1     -14.745   4.173  12.703  0.00  0.00    -0.064 C 
ATOM     23  N   UNL     1     -14.355   4.258  11.226  0.00  0.00    +0.379 N 
ATOM     24  C   UNL     1     -15.110   3.255  10.461  0.00  0.00    -0.096 C 
ATOM     25  H   UNL     1     -13.273   3.999  11.148  0.00  0.00    -0.082 HD
ATOM     26  C   UNL     1     -14.531   5.672  10.693  0.00  0.00    -0.064 C 
ATOM     27  C   UNL     1     -13.706   6.687  11.534  0.00  0.00    +0.066 C 
ENDBRANCH  19  20
ENDBRANCH  18  19
ENDBRANCH  14  15
ENDBRANCH  12  13
TORSDOF 6
ENDMDL
MODEL 3
REMARK VINA RESULT:      -6.8      8.984     12.776
REMARK  Name = C:\Users\Docking\Desktop\test protocol\1iep_ligandH.pdb
REMARK  8 active torsions:
REMARK  status: ('A' for Active; 'I' for Inactive)
REMARK    1  A    between atoms: _5  and  _11
REMARK    2  A    between atoms: _19  and  _21
REMARK    3  A    between atoms: _22  and  _66
REMARK    4  A    between atoms: _27  and  _30
REMARK    5  A    between atoms: _32  and  _33
REMARK    6  A    between atoms: _38  and  _43
REMARK    7  A    between atoms: _43  and  _46
REMARK    8  A    between atoms: _53  and  _55
REMARK                            x       y       z     vdW  Elec       q    Type
REMARK                         _______ _______ _______ _____ _____    ______ ____
ROOT
ATOM     10  C   UNL     1      15.205  17.742   1.123  0.00  0.00    +0.038 A 
ATOM     11  C   UNL     1      14.500  18.208  -0.016  0.00  0.00    +0.047 A 
ATOM     12  C   UNL     1      13.481  19.240   0.100  0.00  0.00    +0.035 A 
ATOM     32  C   UNL     1      13.207  19.776   1.392  0.00  0.00    +0.024 A 
ATOM     33  C   UNL     1      13.914  19.313   2.561  0.00  0.00    +0.007 A 
ATOM     34  C   UNL     1      14.918  18.294   2.452  0.00  0.00    -0.029 A 
ATOM     35  C   UNL     1      15.639  17.831   3.740  0.00  0.00    +0.045 C 
ENDROOT
BRANCH  10   9
ATOM      4  C   UNL     1      16.568  13.143   0.941  0.00  0.00    +0.077 A 
ATOM      5  C   UNL     1      15.243  12.678   1.235  0.00  0.00    +0.048 A 
ATOM      6  C   UNL     1      14.241  13.654   1.433  0.00  0.00    +0.116 A 
ATOM      7  N   UNL     1      14.552  14.993   1.341  0.00  0.00    -0.223 NA
ATOM      8  C   UNL     1      15.840  15.408   1.058  0.00  0.00    +0.220 A 
ATOM      9  N   UNL     1      16.174  16.750   0.953  0.00  0.00    -0.283 N 
ATOM     36  H   UNL     1      17.137  17.016   0.750  0.00  0.00    +0.155 HD
ATOM     37  N   UNL     1      16.815  14.496   0.866  0.00  0.00    -0.214 NA
BRANCH   4   3
ATOM      1  C   UNL     1      19.054  10.130   1.143  0.00  0.00    +0.020 A 
ATOM      2  C   UNL     1      17.911  10.972   1.411  0.00  0.00    +0.013 A 
ATOM      3  C   UNL     1      17.733  12.234   0.703  0.00  0.00    +0.019 A 
ATOM     38  C   UNL     1      18.737  12.616  -0.279  0.00  0.00    +0.120 A 
ATOM     39  N   UNL     1      19.828  11.786  -0.514  0.00  0.00    -0.263 NA
ATOM     40  C   UNL     1      20.011  10.571   0.162  0.00  0.00    +0.111 A 
ENDBRANCH   4   3
ENDBRANCH  10   9
BRANCH  12  13
ATOM     13  N   UNL     1      12.727  19.747  -1.019  0.00  0.00    -0.281 N 
ATOM     14  C   UNL     1      13.080  20.760  -1.895  0.00  0.00    +0.248 C 
ATOM     30  O   UNL     1      14.010  21.534  -1.718  0.00  0.00    -0.270 OA
ATOM     31  H   UNL     1      11.823  19.305  -1.186  0.00  0.00    +0.155 HD
BRANCH  14  15
ATOM     15  C   UNL     1      12.276  20.952  -3.140  0.00  0.00    +0.037 A 
ATOM     16  C   UNL     1      11.141  21.878  -3.176  0.00  0.00    +0.013 A 
ATOM     17  C   UNL     1      10.371  22.031  -4.385  0.00  0.00    +0.005 A 
ATOM     18  C   UNL     1      10.736  21.257  -5.569  0.00  0.00    -0.033 A 
ATOM     28  C   UNL     1      11.869  20.349  -5.507  0.00  0.00    +0.005 A 
ATOM     29  C   UNL     1      12.625  20.196  -4.323  0.00  0.00    +0.013 A 
BRANCH  18  19
ATOM     19  C   UNL     1       9.957  21.341  -6.896  0.00  0.00    +0.119 C 
BRANCH  19  20
ATOM     20  N   UNL     1      10.685  21.882  -8.082  0.00  0.00    -0.302 NA
ATOM     21  C   UNL     1       9.896  22.990  -8.784  0.00  0.00    +0.066 C 
ATOM     22  C   UNL     1      10.681  23.560 -10.010  0.00  0.00    -0.064 C 
ATOM     23  N   UNL     1      11.000  22.423 -10.982  0.00  0.00    +0.379 N 
ATOM     24  C   UNL     1      11.688  22.965 -12.163  0.00  0.00    -0.096 C 
ATOM     25  H   UNL     1      10.031  21.990 -11.324  0.00  0.00    -0.082 HD
ATOM     26  C   UNL     1      11.783  21.315 -10.291  0.00  0.00    -0.064 C 
ATOM     27  C   UNL     1      11.006  20.776  -9.057  0.00  0.00    +0.066 C 
ENDBRANCH  19  20
ENDBRANCH  18  19
ENDBRANCH  14  15
ENDBRANCH  12  13
TORSDOF 6
ENDMDL
MODEL 4
REMARK VINA RESULT:      -6.8     34.135     37.526
REMARK  Name = C:\Users\Docking\Desktop\test protocol\1iep_ligandH.pdb
REMARK  8 active torsions:
REMARK  status: ('A' for Active; 'I' for Inactive)
REMARK    1  A    between atoms: _5  and  _11
REMARK    2  A    between atoms: _19  and  _21
REMARK    3  A    between atoms: _22  and  _66
REMARK    4  A    between atoms: _27  and  _30
REMARK    5  A    between atoms: _32  and  _33
REMARK    6  A    between atoms: _38  and  _43
REMARK    7  A    between atoms: _43  and  _46
REMARK    8  A    between atoms: _53  and  _55
REMARK                            x       y       z     vdW  Elec       q    Type
REMARK                         _______ _______ _______ _____ _____    ______ ____
ROOT
ATOM     10  C   UNL     1     -13.736  13.279  -7.915  0.00  0.00    +0.038 A 
ATOM     11  C   UNL     1     -13.814  13.235  -6.500  0.00  0.00    +0.047 A 
ATOM     12  C   UNL     1     -13.800  14.455  -5.707  0.00  0.00    +0.035 A 
ATOM     32  C   UNL     1     -13.708  15.703  -6.390  0.00  0.00    +0.024 A 
ATOM     33  C   UNL     1     -13.627  15.766  -7.828  0.00  0.00    +0.007 A 
ATOM     34  C   UNL     1     -13.638  14.566  -8.615  0.00  0.00    -0.029 A 
ATOM     35  C   UNL     1     -13.542  14.692 -10.153  0.00  0.00    +0.045 C 
ENDROOT
BRANCH  10   9
ATOM      4  C   UNL     1     -16.037   9.522  -9.820  0.00  0.00    +0.077 A 
ATOM      5  C   UNL     1     -17.308   9.978  -9.334  0.00  0.00    +0.048 A 
ATOM      6  C   UNL     1     -17.325  11.181  -8.592  0.00  0.00    +0.116 A 
ATOM      7  N   UNL     1     -16.153  11.867  -8.360  0.00  0.00    -0.223 NA
ATOM      8  C   UNL     1     -14.944  11.398  -8.841  0.00  0.00    +0.220 A 
ATOM      9  N   UNL     1     -13.754  12.077  -8.626  0.00  0.00    -0.283 N 
ATOM     36  H   UNL     1     -12.883  11.694  -8.991  0.00  0.00    +0.155 HD
ATOM     37  N   UNL     1     -14.901  10.252  -9.551  0.00  0.00    -0.214 NA
BRANCH   4   3
ATOM      1  C   UNL     1     -15.324   7.043 -12.760  0.00  0.00    +0.020 A 
ATOM      2  C   UNL     1     -15.486   8.279 -12.031  0.00  0.00    +0.013 A 
ATOM      3  C   UNL     1     -15.857   8.270 -10.622  0.00  0.00    +0.019 A 
ATOM     38  C   UNL     1     -16.056   6.983  -9.974  0.00  0.00    +0.120 A 
ATOM     39  N   UNL     1     -15.894   5.808 -10.701  0.00  0.00    -0.263 NA
ATOM     40  C   UNL     1     -15.540   5.804 -12.059  0.00  0.00    +0.111 A 
ENDBRANCH   4   3
ENDBRANCH  10   9
BRANCH  12  13
ATOM     13  N   UNL     1     -13.868  14.473  -4.267  0.00  0.00    -0.281 N 
ATOM     14  C   UNL     1     -12.987  15.069  -3.380  0.00  0.00    +0.248 C 
ATOM     30  O   UNL     1     -11.885  15.500  -3.685  0.00  0.00    -0.270 OA
ATOM     31  H   UNL     1     -14.662  13.986  -3.851  0.00  0.00    +0.155 HD
BRANCH  14  15
ATOM     15  C   UNL     1     -13.382  15.193  -1.944  0.00  0.00    +0.037 A 
ATOM     16  C   UNL     1     -14.612  15.887  -1.551  0.00  0.00    +0.013 A 
ATOM     17  C   UNL     1     -14.960  16.007  -0.157  0.00  0.00    +0.005 A 
ATOM     18  C   UNL     1     -14.078  15.430   0.854  0.00  0.00    -0.033 A 
ATOM     28  C   UNL     1     -12.867  14.743   0.436  0.00  0.00    +0.005 A 
ATOM     29  C   UNL     1     -12.521  14.624  -0.929  0.00  0.00    +0.013 A 
BRANCH  18  19
ATOM     19  C   UNL     1     -14.360  15.529   2.365  0.00  0.00    +0.119 C 
BRANCH  19  20
ATOM     20  N   UNL     1     -15.087  14.390   3.001  0.00  0.00    -0.302 NA
ATOM     21  C   UNL     1     -14.131  13.293   3.478  0.00  0.00    +0.066 C 
ATOM     22  C   UNL     1     -14.906  12.119   4.161  0.00  0.00    -0.064 C 
ATOM     23  N   UNL     1     -15.934  11.552   3.180  0.00  0.00    +0.379 N 
ATOM     24  C   UNL     1     -16.625  10.411   3.799  0.00  0.00    -0.096 C 
ATOM     25  H   UNL     1     -15.380  11.171   2.292  0.00  0.00    -0.082 HD
ATOM     26  C   UNL     1     -16.887  12.637   2.699  0.00  0.00    -0.064 C 
ATOM     27  C   UNL     1     -16.105  13.812   2.048  0.00  0.00    +0.066 C 
ENDBRANCH  19  20
ENDBRANCH  18  19
ENDBRANCH  14  15
ENDBRANCH  12  13
TORSDOF 6
ENDMDL
MODEL 5
REMARK VINA RESULT:      -6.7     35.000     38.976
REMARK  Name = C:\Users\Docking\Desktop\test protocol\1iep_ligandH.pdb
REMARK  8 active torsions:
REMARK  status: ('A' for Active; 'I' for Inactive)
REMARK    1  A    between atoms: _5  and  _11
REMARK    2  A    between atoms: _19  and  _21
REMARK    3  A    between atoms: _22  and  _66
REMARK    4  A    between atoms: _27  and  _30
REMARK    5  A    between atoms: _32  and  _33
REMARK    6  A    between atoms: _38  and  _43
REMARK    7  A    between atoms: _43  and  _46
REMARK    8  A    between atoms: _53  and  _55
REMARK                            x       y       z     vdW  Elec       q    Type
REMARK                         _______ _______ _______ _____ _____    ______ ____
ROOT
ATOM     10  C   UNL     1      -8.006  -4.735 -19.400  0.00  0.00    +0.038 A 
ATOM     11  C   UNL     1      -9.262  -4.157 -19.086  0.00  0.00    +0.047 A 
ATOM     12  C   UNL     1     -10.369  -4.973 -18.612  0.00  0.00    +0.035 A 
ATOM     32  C   UNL     1     -10.160  -6.376 -18.467  0.00  0.00    +0.024 A 
ATOM     33  C   UNL     1      -8.890  -6.981 -18.784  0.00  0.00    +0.007 A 
ATOM     34  C   UNL     1      -7.796  -6.181 -19.254  0.00  0.00    -0.029 A 
ATOM     35  C   UNL     1      -6.458  -6.884 -19.584  0.00  0.00    +0.045 C 
ENDROOT
BRANCH  10   9
ATOM      4  C   UNL     1      -5.911  -2.046 -22.779  0.00  0.00    +0.077 A 
ATOM      5  C   UNL     1      -6.938  -2.343 -23.736  0.00  0.00    +0.048 A 
ATOM      6  C   UNL     1      -7.984  -3.197 -23.321  0.00  0.00    +0.116 A 
ATOM      7  N   UNL     1      -7.992  -3.711 -22.042  0.00  0.00    -0.223 NA
ATOM      8  C   UNL     1      -6.985  -3.406 -21.145  0.00  0.00    +0.220 A 
ATOM      9  N   UNL     1      -6.977  -3.905 -19.851  0.00  0.00    -0.283 N 
ATOM     36  H   UNL     1      -6.213  -3.662 -19.222  0.00  0.00    +0.155 HD
ATOM     37  N   UNL     1      -5.974  -2.593 -21.517  0.00  0.00    -0.214 NA
BRANCH   4   3
ATOM      1  C   UNL     1      -3.691   1.108 -23.432  0.00  0.00    +0.020 A 
ATOM      2  C   UNL     1      -4.852   0.294 -23.153  0.00  0.00    +0.013 A 
ATOM      3  C   UNL     1      -4.741  -1.156 -23.067  0.00  0.00    +0.019 A 
ATOM     38  C   UNL     1      -3.432  -1.757 -23.270  0.00  0.00    +0.120 A 
ATOM     39  N   UNL     1      -2.332  -0.949 -23.539  0.00  0.00    -0.263 NA
ATOM     40  C   UNL     1      -2.426   0.448 -23.626  0.00  0.00    +0.111 A 
ENDBRANCH   4   3
ENDBRANCH  10   9
BRANCH  12  13
ATOM     13  N   UNL     1     -11.669  -4.443 -18.285  0.00  0.00    -0.281 N 
ATOM     14  C   UNL     1     -12.809  -4.437 -19.071  0.00  0.00    +0.248 C 
ATOM     30  O   UNL     1     -12.826  -4.698 -20.265  0.00  0.00    -0.270 OA
ATOM     31  H   UNL     1     -11.760  -4.020 -17.361  0.00  0.00    +0.155 HD
BRANCH  14  15
ATOM     15  C   UNL     1     -14.117  -4.075 -18.445  0.00  0.00    +0.037 A 
ATOM     16  C   UNL     1     -14.462  -4.522 -17.093  0.00  0.00    +0.013 A 
ATOM     17  C   UNL     1     -15.737  -4.173 -16.519  0.00  0.00    +0.005 A 
ATOM     18  C   UNL     1     -16.677  -3.371 -17.297  0.00  0.00    -0.033 A 
ATOM     28  C   UNL     1     -16.307  -2.936 -18.634  0.00  0.00    +0.005 A 
ATOM     29  C   UNL     1     -15.059  -3.276 -19.201  0.00  0.00    +0.013 A 
BRANCH  18  19
ATOM     19  C   UNL     1     -18.068  -2.969 -16.773  0.00  0.00    +0.119 C 
BRANCH  19  20
ATOM     20  N   UNL     1     -18.294  -1.525 -16.470  0.00  0.00    -0.302 NA
ATOM     21  C   UNL     1     -17.232  -0.964 -15.520  0.00  0.00    +0.066 C 
ATOM     22  C   UNL     1     -17.471   0.554 -15.231  0.00  0.00    -0.064 C 
ATOM     23  N   UNL     1     -18.872   0.746 -14.650  0.00  0.00    +0.379 N 
ATOM     24  C   UNL     1     -19.079   2.164 -14.323  0.00  0.00    -0.096 C 
ATOM     25  H   UNL     1     -18.925   0.168 -13.698  0.00  0.00    -0.082 HD
ATOM     26  C   UNL     1     -19.935   0.188 -15.587  0.00  0.00    -0.064 C 
ATOM     27  C   UNL     1     -19.672  -1.313 -15.890  0.00  0.00    +0.066 C 
ENDBRANCH  19  20
ENDBRANCH  18  19
ENDBRANCH  14  15
ENDBRANCH  12  13
TORSDOF 6
ENDMDL
