MODEL 1
REMARK VINA RESULT:      -7.9      0.000      0.000
REMARK  Name = C:\Users\Docking\Desktop\test protocol\1iep_ligandH.pdb
REMARK  8 active torsions:
REMARK  status: ('A' for Active; 'I' for Inactive)
REMARK    1  A    between atoms: _5  and  _11
REMARK    2  A    between atoms: _19  and  _21
REMARK    3  A    between atoms: _22  and  _66
REMARK    4  A    between atoms: _27  and  _30
REMARK    5  A    between atoms: _32  and  _33
REMARK    6  A    between atoms: _38  and  _43
REMARK    7  A    between atoms: _43  and  _46
REMARK    8  A    between atoms: _53  and  _55
REMARK                            x       y       z     vdW  Elec       q    Type
REMARK                         _______ _______ _______ _____ _____    ______ ____
ROOT
ATOM     10  C   UNL     1       5.494   8.963  31.075  0.00  0.00    +0.038 A 
ATOM     11  C   UNL     1       5.751   8.013  30.054  0.00  0.00    +0.047 A 
ATOM     12  C   UNL     1       4.676   7.227  29.470  0.00  0.00    +0.035 A 
ATOM     32  C   UNL     1       3.349   7.437  29.947  0.00  0.00    +0.024 A 
ATOM     33  C   UNL     1       3.070   8.398  30.985  0.00  0.00    +0.007 A 
ATOM     34  C   UNL     1       4.128   9.174  31.567  0.00  0.00    -0.029 A 
ATOM     35  C   UNL     1       3.771  10.186  32.681  0.00  0.00    +0.045 C 
ENDROOT
BRANCH  10   9
ATOM      4  C   UNL     1       9.405   9.345  33.831  0.00  0.00    +0.077 A 
ATOM      5  C   UNL     1       9.290   7.988  34.284  0.00  0.00    +0.048 A 
ATOM      6  C   UNL     1       8.207   7.228  33.790  0.00  0.00    +0.116 A 
ATOM      7  N   UNL     1       7.311   7.793  32.908  0.00  0.00    -0.223 NA
ATOM      8  C   UNL     1       7.449   9.105  32.492  0.00  0.00    +0.220 A 
ATOM      9  N   UNL     1       6.565   9.690  31.600  0.00  0.00    -0.283 N 
ATOM     36  H   UNL     1       6.697  10.663  31.324  0.00  0.00    +0.155 HD
ATOM     37  N   UNL     1       8.475   9.852  32.952  0.00  0.00    -0.214 NA
BRANCH   4   3
ATOM      1  C   UNL     1      12.460  10.893  35.720  0.00  0.00    +0.020 A 
ATOM      2  C   UNL     1      11.422   9.962  35.344  0.00  0.00    +0.013 A 
ATOM      3  C   UNL     1      10.497  10.274  34.262  0.00  0.00    +0.019 A 
ATOM     38  C   UNL     1      10.652  11.546  33.574  0.00  0.00    +0.120 A 
ATOM     39  N   UNL     1      11.660  12.425  33.959  0.00  0.00    -0.263 NA
ATOM     40  C   UNL     1      12.555  12.136  35.000  0.00  0.00    +0.111 A 
ENDBRANCH   4   3
ENDBRANCH  10   9
BRANCH  12  13
ATOM     13  N   UNL     1       4.877   6.241  28.436  0.00  0.00    -0.281 N 
ATOM     14  C   UNL     1       4.586   6.351  27.087  0.00  0.00    +0.248 C 
ATOM     30  O   UNL     1       3.906   7.241  26.596  0.00  0.00    -0.270 OA
ATOM     31  H   UNL     1       5.284   5.355  28.737  0.00  0.00    +0.155 HD
BRANCH  14  15
ATOM     15  C   UNL     1       5.113   5.315  26.147  0.00  0.00    +0.037 A 
ATOM     16  C   UNL     1       6.552   5.070  26.017  0.00  0.00    +0.013 A 
ATOM     17  C   UNL     1       7.035   4.076  25.091  0.00  0.00    +0.005 A 
ATOM     18  C   UNL     1       6.077   3.319  24.289  0.00  0.00    -0.033 A 
ATOM     28  C   UNL     1       4.656   3.579  24.442  0.00  0.00    +0.005 A 
ATOM     29  C   UNL     1       4.178   4.553  25.348  0.00  0.00    +0.013 A 
BRANCH  18  19
ATOM     19  C   UNL     1       6.504   2.255  23.261  0.00  0.00    +0.119 C 
BRANCH  19  20
ATOM     20  N   UNL     1       6.014   0.861  23.476  0.00  0.00    -0.302 NA
ATOM     21  C   UNL     1       7.159  -0.113  23.766  0.00  0.00    +0.066 C 
ATOM     22  C   UNL     1       6.626  -1.562  24.011  0.00  0.00    -0.064 C 
ATOM     23  N   UNL     1       5.822  -2.020  22.792  0.00  0.00    +0.379 N 
ATOM     24  C   UNL     1       5.369  -3.403  22.995  0.00  0.00    -0.096 C 
ATOM     25  H   UNL     1       6.508  -2.014  21.913  0.00  0.00    -0.082 HD
ATOM     26  C   UNL     1       4.683  -1.055  22.495  0.00  0.00    -0.064 C 
ATOM     27  C   UNL     1       5.221   0.387  22.282  0.00  0.00    +0.066 C 
ENDBRANCH  19  20
ENDBRANCH  18  19
ENDBRANCH  14  15
ENDBRANCH  12  13
TORSDOF 6
ENDMDL
MODEL 2
REMARK VINA RESULT:      -7.9      5.384     13.315
REMARK  Name = C:\Users\Docking\Desktop\test protocol\1iep_ligandH.pdb
REMARK  8 active torsions:
REMARK  status: ('A' for Active; 'I' for Inactive)
REMARK    1  A    between atoms: _5  and  _11
REMARK    2  A    between atoms: _19  and  _21
REMARK    3  A    between atoms: _22  and  _66
REMARK    4  A    between atoms: _27  and  _30
REMARK    5  A    between atoms: _32  and  _33
REMARK    6  A    between atoms: _38  and  _43
REMARK    7  A    between atoms: _43  and  _46
REMARK    8  A    between atoms: _53  and  _55
REMARK                            x       y       z     vdW  Elec       q    Type
REMARK                         _______ _______ _______ _____ _____    ______ ____
ROOT
ATOM     10  C   UNL     1       6.411   2.776  23.554  0.00  0.00    +0.038 A 
ATOM     11  C   UNL     1       5.517   3.230  24.558  0.00  0.00    +0.047 A 
ATOM     12  C   UNL     1       5.877   4.324  25.447  0.00  0.00    +0.035 A 
ATOM     32  C   UNL     1       7.153   4.936  25.283  0.00  0.00    +0.024 A 
ATOM     33  C   UNL     1       8.074   4.487  24.268  0.00  0.00    +0.007 A 
ATOM     34  C   UNL     1       7.726   3.407  23.391  0.00  0.00    -0.029 A 
ATOM     35  C   UNL     1       8.755   2.963  22.325  0.00  0.00    +0.045 C 
ENDROOT
BRANCH  10   9
ATOM      4  C   UNL     1       6.025  -1.902  22.554  0.00  0.00    +0.077 A 
ATOM      5  C   UNL     1       6.695  -2.277  23.766  0.00  0.00    +0.048 A 
ATOM      6  C   UNL     1       7.129  -1.235  24.616  0.00  0.00    +0.116 A 
ATOM      7  N   UNL     1       6.904   0.080  24.270  0.00  0.00    -0.223 NA
ATOM      8  C   UNL     1       6.257   0.407  23.093  0.00  0.00    +0.220 A 
ATOM      9  N   UNL     1       6.014   1.722  22.728  0.00  0.00    -0.283 N 
ATOM     36  H   UNL     1       5.540   1.922  21.848  0.00  0.00    +0.155 HD
ATOM     37  N   UNL     1       5.834  -0.570  22.263  0.00  0.00    -0.214 NA
BRANCH   4   3
ATOM      1  C   UNL     1       4.737  -3.531  19.239  0.00  0.00    +0.020 A 
ATOM      2  C   UNL     1       5.238  -2.541  20.164  0.00  0.00    +0.013 A 
ATOM      3  C   UNL     1       5.505  -2.888  21.554  0.00  0.00    +0.019 A 
ATOM     38  C   UNL     1       5.253  -4.256  21.980  0.00  0.00    +0.120 A 
ATOM     39  N   UNL     1       4.768  -5.188  21.067  0.00  0.00    -0.263 NA
ATOM     40  C   UNL     1       4.506  -4.865  19.727  0.00  0.00    +0.111 A 
ENDBRANCH   4   3
ENDBRANCH  10   9
BRANCH  12  13
ATOM     13  N   UNL     1       5.014   4.821  26.490  0.00  0.00    -0.281 N 
ATOM     14  C   UNL     1       5.147   5.992  27.219  0.00  0.00    +0.248 C 
ATOM     30  O   UNL     1       6.152   6.687  27.232  0.00  0.00    -0.270 OA
ATOM     31  H   UNL     1       4.207   4.240  26.718  0.00  0.00    +0.155 HD
BRANCH  14  15
ATOM     15  C   UNL     1       4.005   6.448  28.068  0.00  0.00    +0.037 A 
ATOM     16  C   UNL     1       4.209   7.378  29.181  0.00  0.00    +0.013 A 
ATOM     17  C   UNL     1       3.092   7.788  29.995  0.00  0.00    +0.005 A 
ATOM     18  C   UNL     1       1.759   7.269  29.696  0.00  0.00    -0.033 A 
ATOM     28  C   UNL     1       1.584   6.352  28.583  0.00  0.00    +0.005 A 
ATOM     29  C   UNL     1       2.677   5.946  27.784  0.00  0.00    +0.013 A 
BRANCH  18  19
ATOM     19  C   UNL     1       0.514   7.637  30.524  0.00  0.00    +0.119 C 
BRANCH  19  20
ATOM     20  N   UNL     1      -0.711   8.043  29.773  0.00  0.00    -0.302 NA
ATOM     21  C   UNL     1      -1.013   9.536  29.932  0.00  0.00    +0.066 C 
ATOM     22  C   UNL     1      -2.285   9.949  29.122  0.00  0.00    -0.064 C 
ATOM     23  N   UNL     1      -3.475   9.104  29.580  0.00  0.00    +0.379 N 
ATOM     24  C   UNL     1      -4.684   9.529  28.861  0.00  0.00    -0.096 C 
ATOM     25  H   UNL     1      -3.636   9.307  30.664  0.00  0.00    -0.082 HD
ATOM     26  C   UNL     1      -3.182   7.618  29.428  0.00  0.00    -0.064 C 
ATOM     27  C   UNL     1      -1.900   7.224  30.213  0.00  0.00    +0.066 C 
ENDBRANCH  19  20
ENDBRANCH  18  19
ENDBRANCH  14  15
ENDBRANCH  12  13
TORSDOF 6
ENDMDL
MODEL 3
REMARK VINA RESULT:      -7.8      4.720     14.924
REMARK  Name = C:\Users\Docking\Desktop\test protocol\1iep_ligandH.pdb
REMARK  8 active torsions:
REMARK  status: ('A' for Active; 'I' for Inactive)
REMARK    1  A    between atoms: _5  and  _11
REMARK    2  A    between atoms: _19  and  _21
REMARK    3  A    between atoms: _22  and  _66
REMARK    4  A    between atoms: _27  and  _30
REMARK    5  A    between atoms: _32  and  _33
REMARK    6  A    between atoms: _38  and  _43
REMARK    7  A    between atoms: _43  and  _46
REMARK    8  A    between atoms: _53  and  _55
REMARK                            x       y       z     vdW  Elec       q    Type
REMARK                         _______ _______ _______ _____ _____    ______ ____
ROOT
ATOM     10  C   UNL     1       6.048   1.241  21.010  0.00  0.00    +0.038 A 
ATOM     11  C   UNL     1       5.299   1.737  22.108  0.00  0.00    +0.047 A 
ATOM     12  C   UNL     1       5.882   2.674  23.055  0.00  0.00    +0.035 A 
ATOM     32  C   UNL     1       7.231   3.088  22.852  0.00  0.00    +0.024 A 
ATOM     33  C   UNL     1       8.007   2.594  21.742  0.00  0.00    +0.007 A 
ATOM     34  C   UNL     1       7.438   1.667  20.806  0.00  0.00    -0.029 A 
ATOM     35  C   UNL     1       8.319   1.165  19.638  0.00  0.00    +0.045 C 
ENDROOT
BRANCH  10   9
ATOM      4  C   UNL     1       4.815  -3.202  19.679  0.00  0.00    +0.077 A 
ATOM      5  C   UNL     1       5.464  -3.787  20.817  0.00  0.00    +0.048 A 
ATOM      6  C   UNL     1       6.110  -2.910  21.717  0.00  0.00    +0.116 A 
ATOM      7  N   UNL     1       6.100  -1.551  21.486  0.00  0.00    -0.223 NA
ATOM      8  C   UNL     1       5.467  -1.020  20.378  0.00  0.00    +0.220 A 
ATOM      9  N   UNL     1       5.438   0.344  20.131  0.00  0.00    -0.283 N 
ATOM     36  H   UNL     1       4.966   0.695  19.298  0.00  0.00    +0.155 HD
ATOM     37  N   UNL     1       4.844  -1.837  19.503  0.00  0.00    -0.214 NA
BRANCH   4   3
ATOM      1  C   UNL     1       2.961  -4.244  16.396  0.00  0.00    +0.020 A 
ATOM      2  C   UNL     1       3.661  -3.433  17.365  0.00  0.00    +0.013 A 
ATOM      3  C   UNL     1       4.087  -3.997  18.640  0.00  0.00    +0.019 A 
ATOM     38  C   UNL     1       3.788  -5.396  18.904  0.00  0.00    +0.120 A 
ATOM     39  N   UNL     1       3.111  -6.153  17.952  0.00  0.00    -0.263 NA
ATOM     40  C   UNL     1       2.695  -5.620  16.723  0.00  0.00    +0.111 A 
ENDBRANCH   4   3
ENDBRANCH  10   9
BRANCH  12  13
ATOM     13  N   UNL     1       5.173   3.204  24.193  0.00  0.00    -0.281 N 
ATOM     14  C   UNL     1       5.665   4.022  25.197  0.00  0.00    +0.248 C 
ATOM     30  O   UNL     1       6.851   4.249  25.385  0.00  0.00    -0.270 OA
ATOM     31  H   UNL     1       4.189   2.945  24.267  0.00  0.00    +0.155 HD
BRANCH  14  15
ATOM     15  C   UNL     1       4.700   4.670  26.138  0.00  0.00    +0.037 A 
ATOM     16  C   UNL     1       3.257   4.635  25.889  0.00  0.00    +0.013 A 
ATOM     17  C   UNL     1       2.350   5.283  26.803  0.00  0.00    +0.005 A 
ATOM     18  C   UNL     1       2.885   5.970  27.976  0.00  0.00    -0.033 A 
ATOM     28  C   UNL     1       4.321   5.985  28.201  0.00  0.00    +0.005 A 
ATOM     29  C   UNL     1       5.213   5.352  27.307  0.00  0.00    +0.013 A 
BRANCH  18  19
ATOM     19  C   UNL     1       1.993   6.706  28.993  0.00  0.00    +0.119 C 
BRANCH  19  20
ATOM     20  N   UNL     1       2.381   8.101  29.361  0.00  0.00    -0.302 NA
ATOM     21  C   UNL     1       3.230   8.144  30.634  0.00  0.00    +0.066 C 
ATOM     22  C   UNL     1       3.647   9.608  30.991  0.00  0.00    -0.064 C 
ATOM     23  N   UNL     1       2.392  10.469  31.147  0.00  0.00    +0.379 N 
ATOM     24  C   UNL     1       2.777  11.832  31.540  0.00  0.00    -0.096 C 
ATOM     25  H   UNL     1       1.786  10.036  31.977  0.00  0.00    -0.082 HD
ATOM     26  C   UNL     1       1.540  10.429  29.886  0.00  0.00    -0.064 C 
ATOM     27  C   UNL     1       1.157   8.967  29.524  0.00  0.00    +0.066 C 
ENDBRANCH  19  20
ENDBRANCH  18  19
ENDBRANCH  14  15
ENDBRANCH  12  13
TORSDOF 6
ENDMDL
MODEL 4
REMARK VINA RESULT:      -7.8      7.394     12.565
REMARK  Name = C:\Users\Docking\Desktop\test protocol\1iep_ligandH.pdb
REMARK  8 active torsions:
REMARK  status: ('A' for Active; 'I' for Inactive)
REMARK    1  A    between atoms: _5  and  _11
REMARK    2  A    between atoms: _19  and  _21
REMARK    3  A    between atoms: _22  and  _66
REMARK    4  A    between atoms: _27  and  _30
REMARK    5  A    between atoms: _32  and  _33
REMARK    6  A    between atoms: _38  and  _43
REMARK    7  A    between atoms: _43  and  _46
REMARK    8  A    between atoms: _53  and  _55
REMARK                            x       y       z     vdW  Elec       q    Type
REMARK                         _______ _______ _______ _____ _____    ______ ____
ROOT
ATOM     10  C   UNL     1       5.956   0.476  21.908  0.00  0.00    +0.038 A 
ATOM     11  C   UNL     1       5.664   0.797  20.558  0.00  0.00    +0.047 A 
ATOM     12  C   UNL     1       6.319   0.104  19.460  0.00  0.00    +0.035 A 
ATOM     32  C   UNL     1       7.266  -0.915  19.774  0.00  0.00    +0.024 A 
ATOM     33  C   UNL     1       7.576  -1.254  21.141  0.00  0.00    +0.007 A 
ATOM     34  C   UNL     1       6.934  -0.571  22.228  0.00  0.00    -0.029 A 
ATOM     35  C   UNL     1       7.310  -0.971  23.673  0.00  0.00    +0.045 C 
ENDROOT
BRANCH  10   9
ATOM      4  C   UNL     1       5.684   4.051  25.099  0.00  0.00    +0.077 A 
ATOM      5  C   UNL     1       6.976   4.555  24.733  0.00  0.00    +0.048 A 
ATOM      6  C   UNL     1       7.681   3.861  23.724  0.00  0.00    +0.116 A 
ATOM      7  N   UNL     1       7.126   2.748  23.132  0.00  0.00    -0.223 NA
ATOM      8  C   UNL     1       5.878   2.287  23.510  0.00  0.00    +0.220 A 
ATOM      9  N   UNL     1       5.297   1.174  22.923  0.00  0.00    -0.283 N 
ATOM     36  H   UNL     1       4.378   0.861  23.235  0.00  0.00    +0.155 HD
ATOM     37  N   UNL     1       5.185   2.931  24.472  0.00  0.00    -0.214 NA
BRANCH   4   3
ATOM      1  C   UNL     1       2.630   4.927  27.380  0.00  0.00    +0.020 A 
ATOM      2  C   UNL     1       3.425   4.292  26.355  0.00  0.00    +0.013 A 
ATOM      3  C   UNL     1       4.816   4.676  26.146  0.00  0.00    +0.019 A 
ATOM     38  C   UNL     1       5.376   5.713  26.999  0.00  0.00    +0.120 A 
ATOM     39  N   UNL     1       4.585   6.308  27.977  0.00  0.00    -0.263 NA
ATOM     40  C   UNL     1       3.246   5.948  28.186  0.00  0.00    +0.111 A 
ENDBRANCH   4   3
ENDBRANCH  10   9
BRANCH  12  13
ATOM     13  N   UNL     1       6.069   0.392  18.070  0.00  0.00    -0.281 N 
ATOM     14  C   UNL     1       6.964   0.861  17.123  0.00  0.00    +0.248 C 
ATOM     30  O   UNL     1       8.072   1.308  17.380  0.00  0.00    -0.270 OA
ATOM     31  H   UNL     1       5.115   0.232  17.745  0.00  0.00    +0.155 HD
BRANCH  14  15
ATOM     15  C   UNL     1       6.567   0.844  15.682  0.00  0.00    +0.037 A 
ATOM     16  C   UNL     1       5.231   0.405  15.268  0.00  0.00    +0.013 A 
ATOM     17  C   UNL     1       4.879   0.382  13.870  0.00  0.00    +0.005 A 
ATOM     18  C   UNL     1       5.865   0.801  12.876  0.00  0.00    -0.033 A 
ATOM     28  C   UNL     1       7.180   1.236  13.315  0.00  0.00    +0.005 A 
ATOM     29  C   UNL     1       7.529   1.259  14.684  0.00  0.00    +0.013 A 
BRANCH  18  19
ATOM     19  C   UNL     1       5.583   0.788  11.362  0.00  0.00    +0.119 C 
BRANCH  19  20
ATOM     20  N   UNL     1       4.300   1.397  10.900  0.00  0.00    -0.302 NA
ATOM     21  C   UNL     1       3.266   0.336  10.513  0.00  0.00    +0.066 C 
ATOM     22  C   UNL     1       1.923   0.991  10.054  0.00  0.00    -0.064 C 
ATOM     23  N   UNL     1       2.194   1.936   8.882  0.00  0.00    +0.379 N 
ATOM     24  C   UNL     1       0.925   2.509   8.410  0.00  0.00    -0.096 C 
ATOM     25  H   UNL     1       2.621   1.329   8.050  0.00  0.00    -0.082 HD
ATOM     26  C   UNL     1       3.223   2.993   9.258  0.00  0.00    -0.064 C 
ATOM     27  C   UNL     1       4.544   2.332   9.740  0.00  0.00    +0.066 C 
ENDBRANCH  19  20
ENDBRANCH  18  19
ENDBRANCH  14  15
ENDBRANCH  12  13
TORSDOF 6
ENDMDL
MODEL 5
REMARK VINA RESULT:      -7.7      7.070     13.360
REMARK  Name = C:\Users\Docking\Desktop\test protocol\1iep_ligandH.pdb
REMARK  8 active torsions:
REMARK  status: ('A' for Active; 'I' for Inactive)
REMARK    1  A    between atoms: _5  and  _11
REMARK    2  A    between atoms: _19  and  _21
REMARK    3  A    between atoms: _22  and  _66
REMARK    4  A    between atoms: _27  and  _30
REMARK    5  A    between atoms: _32  and  _33
REMARK    6  A    between atoms: _38  and  _43
REMARK    7  A    between atoms: _43  and  _46
REMARK    8  A    between atoms: _53  and  _55
REMARK                            x       y       z     vdW  Elec       q    Type
REMARK                         _______ _______ _______ _____ _____    ______ ____
ROOT
ATOM     10  C   UNL     1       4.927  -1.536  21.729  0.00  0.00    +0.038 A 
ATOM     11  C   UNL     1       4.742  -1.468  20.324  0.00  0.00    +0.047 A 
ATOM     12  C   UNL     1       4.973  -2.627  19.477  0.00  0.00    +0.035 A 
ATOM     32  C   UNL     1       5.389  -3.843  20.094  0.00  0.00    +0.024 A 
ATOM     33  C   UNL     1       5.583  -3.930  21.520  0.00  0.00    +0.007 A 
ATOM     34  C   UNL     1       5.359  -2.789  22.361  0.00  0.00    -0.029 A 
ATOM     35  C   UNL     1       5.589  -2.938  23.883  0.00  0.00    +0.045 C 
ENDROOT
BRANCH  10   9
ATOM      4  C   UNL     1       6.428   2.389  24.046  0.00  0.00    +0.077 A 
ATOM      5  C   UNL     1       7.802   2.124  23.728  0.00  0.00    +0.048 A 
ATOM      6  C   UNL     1       8.080   0.963  22.972  0.00  0.00    +0.116 A 
ATOM      7  N   UNL     1       7.053   0.136  22.570  0.00  0.00    -0.223 NA
ATOM      8  C   UNL     1       5.740   0.421  22.895  0.00  0.00    +0.220 A 
ATOM      9  N   UNL     1       4.691  -0.392  22.494  0.00  0.00    -0.283 N 
ATOM     36  H   UNL     1       3.736  -0.152  22.761  0.00  0.00    +0.155 HD
ATOM     37  N   UNL     1       5.448   1.522  23.617  0.00  0.00    -0.214 NA
BRANCH   4   3
ATOM      1  C   UNL     1       6.406   5.602  26.277  0.00  0.00    +0.020 A 
ATOM      2  C   UNL     1       6.897   4.468  25.529  0.00  0.00    +0.013 A 
ATOM      3  C   UNL     1       5.974   3.578  24.835  0.00  0.00    +0.019 A 
ATOM     38  C   UNL     1       4.550   3.867  24.918  0.00  0.00    +0.120 A 
ATOM     39  N   UNL     1       4.107   4.966  25.646  0.00  0.00    -0.263 NA
ATOM     40  C   UNL     1       4.985   5.829  26.320  0.00  0.00    +0.111 A 
ENDBRANCH   4   3
ENDBRANCH  10   9
BRANCH  12  13
ATOM     13  N   UNL     1       4.809  -2.615  18.044  0.00  0.00    -0.281 N 
ATOM     14  C   UNL     1       3.855  -3.279  17.291  0.00  0.00    +0.248 C 
ATOM     30  O   UNL     1       3.125  -4.160  17.720  0.00  0.00    -0.270 OA
ATOM     31  H   UNL     1       5.477  -2.048  17.523  0.00  0.00    +0.155 HD
BRANCH  14  15
ATOM     15  C   UNL     1       3.700  -2.924  15.847  0.00  0.00    +0.037 A 
ATOM     16  C   UNL     1       4.190  -1.647  15.322  0.00  0.00    +0.013 A 
ATOM     17  C   UNL     1       4.012  -1.322  13.929  0.00  0.00    +0.005 A 
ATOM     18  C   UNL     1       3.342  -2.277  13.050  0.00  0.00    -0.033 A 
ATOM     28  C   UNL     1       2.870  -3.539  13.597  0.00  0.00    +0.005 A 
ATOM     29  C   UNL     1       3.041  -3.860  14.962  0.00  0.00    +0.013 A 
BRANCH  18  19
ATOM     19  C   UNL     1       3.090  -2.005  11.556  0.00  0.00    +0.119 C 
BRANCH  19  20
ATOM     20  N   UNL     1       2.246  -0.822  11.209  0.00  0.00    -0.302 NA
ATOM     21  C   UNL     1       3.062   0.473  11.166  0.00  0.00    +0.066 C 
ATOM     22  C   UNL     1       2.168   1.696  10.780  0.00  0.00    -0.064 C 
ATOM     23  N   UNL     1       1.014   1.816  11.776  0.00  0.00    +0.379 N 
ATOM     24  C   UNL     1       0.205   2.999  11.450  0.00  0.00    -0.096 C 
ATOM     25  H   UNL     1       1.455   1.976  12.787  0.00  0.00    -0.082 HD
ATOM     26  C   UNL     1       0.199   0.531  11.827  0.00  0.00    -0.064 C 
ATOM     27  C   UNL     1       1.102  -0.683  12.183  0.00  0.00    +0.066 C 
ENDBRANCH  19  20
ENDBRANCH  18  19
ENDBRANCH  14  15
ENDBRANCH  12  13
TORSDOF 6
ENDMDL
