MODEL 1
REMARK VINA RESULT:      -9.1      0.000      0.000
REMARK  Name = C:\Users\Docking\Desktop\test protocol\1iep_ligandH.pdb
REMARK  8 active torsions:
REMARK  status: ('A' for Active; 'I' for Inactive)
REMARK    1  A    between atoms: _5  and  _11
REMARK    2  A    between atoms: _19  and  _21
REMARK    3  A    between atoms: _22  and  _66
REMARK    4  A    between atoms: _27  and  _30
REMARK    5  A    between atoms: _32  and  _33
REMARK    6  A    between atoms: _38  and  _43
REMARK    7  A    between atoms: _43  and  _46
REMARK    8  A    between atoms: _53  and  _55
REMARK                            x       y       z     vdW  Elec       q    Type
REMARK                         _______ _______ _______ _____ _____    ______ ____
ROOT
ATOM     10  C   UNL     1       9.040  27.410  20.964  0.00  0.00    +0.038 A 
ATOM     11  C   UNL     1       8.689  28.555  20.205  0.00  0.00    +0.047 A 
ATOM     12  C   UNL     1       8.356  29.814  20.853  0.00  0.00    +0.035 A 
ATOM     32  C   UNL     1       8.394  29.872  22.277  0.00  0.00    +0.024 A 
ATOM     33  C   UNL     1       8.747  28.717  23.064  0.00  0.00    +0.007 A 
ATOM     34  C   UNL     1       9.074  27.471  22.430  0.00  0.00    -0.029 A 
ATOM     35  C   UNL     1       9.439  26.263  23.324  0.00  0.00    +0.045 C 
ENDROOT
BRANCH  10   9
ATOM      4  C   UNL     1       7.816  23.177  19.060  0.00  0.00    +0.077 A 
ATOM      5  C   UNL     1       6.448  23.323  19.466  0.00  0.00    +0.048 A 
ATOM      6  C   UNL     1       6.102  24.499  20.169  0.00  0.00    +0.116 A 
ATOM      7  N   UNL     1       7.060  25.451  20.440  0.00  0.00    -0.223 NA
ATOM      8  C   UNL     1       8.371  25.278  20.035  0.00  0.00    +0.220 A 
ATOM      9  N   UNL     1       9.350  26.227  20.290  0.00  0.00    -0.283 N 
ATOM     36  H   UNL     1      10.307  26.058  19.981  0.00  0.00    +0.155 HD
ATOM     37  N   UNL     1       8.727  24.164  19.363  0.00  0.00    -0.214 NA
BRANCH   4   3
ATOM      1  C   UNL     1       9.684  20.937  16.454  0.00  0.00    +0.020 A 
ATOM      2  C   UNL     1       9.210  22.113  17.146  0.00  0.00    +0.013 A 
ATOM      3  C   UNL     1       8.336  21.993  18.306  0.00  0.00    +0.019 A 
ATOM     38  C   UNL     1       7.958  20.657  18.744  0.00  0.00    +0.120 A 
ATOM     39  N   UNL     1       8.429  19.543  18.057  0.00  0.00    -0.263 NA
ATOM     40  C   UNL     1       9.270  19.646  16.939  0.00  0.00    +0.111 A 
ENDBRANCH   4   3
ENDBRANCH  10   9
BRANCH  12  13
ATOM     13  N   UNL     1       7.985  31.008  20.135  0.00  0.00    -0.281 N 
ATOM     14  C   UNL     1       6.730  31.586  20.035  0.00  0.00    +0.248 C 
ATOM     30  O   UNL     1       5.690  31.042  20.374  0.00  0.00    -0.270 OA
ATOM     31  H   UNL     1       8.739  31.486  19.641  0.00  0.00    +0.155 HD
BRANCH  14  15
ATOM     15  C   UNL     1       6.612  32.961  19.461  0.00  0.00    +0.037 A 
ATOM     16  C   UNL     1       7.789  33.684  18.971  0.00  0.00    +0.013 A 
ATOM     17  C   UNL     1       7.649  35.016  18.438  0.00  0.00    +0.005 A 
ATOM     18  C   UNL     1       6.326  35.634  18.392  0.00  0.00    -0.033 A 
ATOM     28  C   UNL     1       5.175  34.893  18.881  0.00  0.00    +0.005 A 
ATOM     29  C   UNL     1       5.308  33.588  19.405  0.00  0.00    +0.013 A 
BRANCH  18  19
ATOM     19  C   UNL     1       6.087  37.060  17.860  0.00  0.00    +0.119 C 
BRANCH  19  20
ATOM     20  N   UNL     1       5.433  38.034  18.784  0.00  0.00    -0.302 NA
ATOM     21  C   UNL     1       5.779  39.483  18.430  0.00  0.00    +0.066 C 
ATOM     22  C   UNL     1       5.068  40.489  19.393  0.00  0.00    -0.064 C 
ATOM     23  N   UNL     1       5.463  40.175  20.837  0.00  0.00    +0.379 N 
ATOM     24  C   UNL     1       4.842  41.156  21.739  0.00  0.00    -0.096 C 
ATOM     25  H   UNL     1       6.569  40.293  20.917  0.00  0.00    -0.082 HD
ATOM     26  C   UNL     1       5.125  38.735  21.196  0.00  0.00    -0.064 C 
ATOM     27  C   UNL     1       5.813  37.745  20.216  0.00  0.00    +0.066 C 
ENDBRANCH  19  20
ENDBRANCH  18  19
ENDBRANCH  14  15
ENDBRANCH  12  13
TORSDOF 6
ENDMDL
MODEL 2
REMARK VINA RESULT:      -8.6      1.964      3.015
REMARK  Name = C:\Users\Docking\Desktop\test protocol\1iep_ligandH.pdb
REMARK  8 active torsions:
REMARK  status: ('A' for Active; 'I' for Inactive)
REMARK    1  A    between atoms: _5  and  _11
REMARK    2  A    between atoms: _19  and  _21
REMARK    3  A    between atoms: _22  and  _66
REMARK    4  A    between atoms: _27  and  _30
REMARK    5  A    between atoms: _32  and  _33
REMARK    6  A    between atoms: _38  and  _43
REMARK    7  A    between atoms: _43  and  _46
REMARK    8  A    between atoms: _53  and  _55
REMARK                            x       y       z     vdW  Elec       q    Type
REMARK                         _______ _______ _______ _____ _____    ______ ____
ROOT
ATOM     10  C   UNL     1       8.222  25.617  22.870  0.00  0.00    +0.038 A 
ATOM     11  C   UNL     1       7.757  26.874  22.403  0.00  0.00    +0.047 A 
ATOM     12  C   UNL     1       8.401  28.113  22.811  0.00  0.00    +0.035 A 
ATOM     32  C   UNL     1       9.518  28.035  23.693  0.00  0.00    +0.024 A 
ATOM     33  C   UNL     1      10.002  26.767  24.178  0.00  0.00    +0.007 A 
ATOM     34  C   UNL     1       9.370  25.541  23.781  0.00  0.00    -0.029 A 
ATOM     35  C   UNL     1       9.928  24.210  24.337  0.00  0.00    +0.045 C 
ENDROOT
BRANCH  10   9
ATOM      4  C   UNL     1       7.155  22.338  19.531  0.00  0.00    +0.077 A 
ATOM      5  C   UNL     1       7.951  23.003  18.539  0.00  0.00    +0.048 A 
ATOM      6  C   UNL     1       8.612  24.190  18.927  0.00  0.00    +0.116 A 
ATOM      7  N   UNL     1       8.481  24.667  20.213  0.00  0.00    -0.223 NA
ATOM      8  C   UNL     1       7.705  24.002  21.144  0.00  0.00    +0.220 A 
ATOM      9  N   UNL     1       7.566  24.459  22.446  0.00  0.00    -0.283 N 
ATOM     36  H   UNL     1       6.978  23.944  23.101  0.00  0.00    +0.155 HD
ATOM     37  N   UNL     1       7.062  22.867  20.799  0.00  0.00    -0.214 NA
BRANCH   4   3
ATOM      1  C   UNL     1       4.279  19.704  19.231  0.00  0.00    +0.020 A 
ATOM      2  C   UNL     1       4.963  20.949  19.494  0.00  0.00    +0.013 A 
ATOM      3  C   UNL     1       6.398  21.072  19.275  0.00  0.00    +0.019 A 
ATOM     38  C   UNL     1       7.119  19.906  18.785  0.00  0.00    +0.120 A 
ATOM     39  N   UNL     1       6.434  18.720  18.542  0.00  0.00    -0.263 NA
ATOM     40  C   UNL     1       5.053  18.589  18.751  0.00  0.00    +0.111 A 
ENDBRANCH   4   3
ENDBRANCH  10   9
BRANCH  12  13
ATOM     13  N   UNL     1       7.969  29.418  22.376  0.00  0.00    -0.281 N 
ATOM     14  C   UNL     1       8.274  30.065  21.190  0.00  0.00    +0.248 C 
ATOM     30  O   UNL     1       9.144  29.705  20.411  0.00  0.00    -0.270 OA
ATOM     31  H   UNL     1       7.364  29.926  23.021  0.00  0.00    +0.155 HD
BRANCH  14  15
ATOM     15  C   UNL     1       7.513  31.298  20.823  0.00  0.00    +0.037 A 
ATOM     16  C   UNL     1       6.316  31.701  21.566  0.00  0.00    +0.013 A 
ATOM     17  C   UNL     1       5.591  32.886  21.180  0.00  0.00    +0.005 A 
ATOM     18  C   UNL     1       6.063  33.677  20.046  0.00  0.00    -0.033 A 
ATOM     28  C   UNL     1       7.256  33.256  19.330  0.00  0.00    +0.005 A 
ATOM     29  C   UNL     1       7.969  32.095  19.704  0.00  0.00    +0.013 A 
BRANCH  18  19
ATOM     19  C   UNL     1       5.339  34.943  19.552  0.00  0.00    +0.119 C 
BRANCH  19  20
ATOM     20  N   UNL     1       5.133  36.043  20.541  0.00  0.00    -0.302 NA
ATOM     21  C   UNL     1       3.723  36.023  21.136  0.00  0.00    +0.066 C 
ATOM     22  C   UNL     1       3.531  37.167  22.185  0.00  0.00    -0.064 C 
ATOM     23  N   UNL     1       3.821  38.515  21.524  0.00  0.00    +0.379 N 
ATOM     24  C   UNL     1       3.586  39.597  22.492  0.00  0.00    -0.096 C 
ATOM     25  H   UNL     1       3.095  38.645  20.689  0.00  0.00    -0.082 HD
ATOM     26  C   UNL     1       5.221  38.543  20.927  0.00  0.00    -0.064 C 
ATOM     27  C   UNL     1       5.410  37.385  19.907  0.00  0.00    +0.066 C 
ENDBRANCH  19  20
ENDBRANCH  18  19
ENDBRANCH  14  15
ENDBRANCH  12  13
TORSDOF 6
ENDMDL
MODEL 3
REMARK VINA RESULT:      -8.6      2.022      3.030
REMARK  Name = C:\Users\Docking\Desktop\test protocol\1iep_ligandH.pdb
REMARK  8 active torsions:
REMARK  status: ('A' for Active; 'I' for Inactive)
REMARK    1  A    between atoms: _5  and  _11
REMARK    2  A    between atoms: _19  and  _21
REMARK    3  A    between atoms: _22  and  _66
REMARK    4  A    between atoms: _27  and  _30
REMARK    5  A    between atoms: _32  and  _33
REMARK    6  A    between atoms: _38  and  _43
REMARK    7  A    between atoms: _43  and  _46
REMARK    8  A    between atoms: _53  and  _55
REMARK                            x       y       z     vdW  Elec       q    Type
REMARK                         _______ _______ _______ _____ _____    ______ ____
ROOT
ATOM     10  C   UNL     1       8.830  25.347  20.713  0.00  0.00    +0.038 A 
ATOM     11  C   UNL     1       8.087  26.521  20.427  0.00  0.00    +0.047 A 
ATOM     12  C   UNL     1       8.715  27.832  20.447  0.00  0.00    +0.035 A 
ATOM     32  C   UNL     1      10.103  27.912  20.759  0.00  0.00    +0.024 A 
ATOM     33  C   UNL     1      10.874  26.729  21.053  0.00  0.00    +0.007 A 
ATOM     34  C   UNL     1      10.258  25.432  21.037  0.00  0.00    -0.029 A 
ATOM     35  C   UNL     1      11.131  24.199  21.367  0.00  0.00    +0.045 C 
ENDROOT
BRANCH  10   9
ATOM      4  C   UNL     1       7.734  21.193  18.571  0.00  0.00    +0.077 A 
ATOM      5  C   UNL     1       8.509  21.520  17.409  0.00  0.00    +0.048 A 
ATOM      6  C   UNL     1       9.168  22.770  17.399  0.00  0.00    +0.116 A 
ATOM      7  N   UNL     1       9.054  23.621  18.477  0.00  0.00    -0.223 NA
ATOM      8  C   UNL     1       8.298  23.276  19.581  0.00  0.00    +0.220 A 
ATOM      9  N   UNL     1       8.175  24.113  20.679  0.00  0.00    -0.283 N 
ATOM     36  H   UNL     1       7.602  23.825  21.472  0.00  0.00    +0.155 HD
ATOM     37  N   UNL     1       7.657  22.089  19.615  0.00  0.00    -0.214 NA
BRANCH   4   3
ATOM      1  C   UNL     1       6.831  17.390  18.728  0.00  0.00    +0.020 A 
ATOM      2  C   UNL     1       7.602  18.601  18.560  0.00  0.00    +0.013 A 
ATOM      3  C   UNL     1       6.982  19.909  18.733  0.00  0.00    +0.019 A 
ATOM     38  C   UNL     1       5.570  19.957  19.080  0.00  0.00    +0.120 A 
ATOM     39  N   UNL     1       4.853  18.775  19.234  0.00  0.00    -0.263 NA
ATOM     40  C   UNL     1       5.438  17.511  19.068  0.00  0.00    +0.111 A 
ENDBRANCH   4   3
ENDBRANCH  10   9
BRANCH  12  13
ATOM     13  N   UNL     1       8.010  29.060  20.173  0.00  0.00    -0.281 N 
ATOM     14  C   UNL     1       7.717  30.088  21.053  0.00  0.00    +0.248 C 
ATOM     30  O   UNL     1       7.832  30.013  22.268  0.00  0.00    -0.270 OA
ATOM     31  H   UNL     1       7.687  29.186  19.213  0.00  0.00    +0.155 HD
BRANCH  14  15
ATOM     15  C   UNL     1       7.210  31.384  20.507  0.00  0.00    +0.037 A 
ATOM     16  C   UNL     1       6.075  31.426  19.581  0.00  0.00    +0.013 A 
ATOM     17  C   UNL     1       5.617  32.688  19.056  0.00  0.00    +0.005 A 
ATOM     18  C   UNL     1       6.293  33.919  19.458  0.00  0.00    -0.033 A 
ATOM     28  C   UNL     1       7.413  33.849  20.382  0.00  0.00    +0.005 A 
ATOM     29  C   UNL     1       7.865  32.614  20.898  0.00  0.00    +0.013 A 
BRANCH  18  19
ATOM     19  C   UNL     1       5.885  35.307  18.931  0.00  0.00    +0.119 C 
BRANCH  19  20
ATOM     20  N   UNL     1       5.005  36.139  19.805  0.00  0.00    -0.302 NA
ATOM     21  C   UNL     1       5.730  37.379  20.337  0.00  0.00    +0.066 C 
ATOM     22  C   UNL     1       4.788  38.249  21.231  0.00  0.00    -0.064 C 
ATOM     23  N   UNL     1       4.254  37.397  22.384  0.00  0.00    +0.379 N 
ATOM     24  C   UNL     1       3.415  38.228  23.259  0.00  0.00    -0.096 C 
ATOM     25  H   UNL     1       5.129  37.052  22.982  0.00  0.00    -0.082 HD
ATOM     26  C   UNL     1       3.534  36.161  21.864  0.00  0.00    -0.064 C 
ATOM     27  C   UNL     1       4.470  35.319  20.953  0.00  0.00    +0.066 C 
ENDBRANCH  19  20
ENDBRANCH  18  19
ENDBRANCH  14  15
ENDBRANCH  12  13
TORSDOF 6
ENDMDL
MODEL 4
REMARK VINA RESULT:      -8.6      1.782      2.467
REMARK  Name = C:\Users\Docking\Desktop\test protocol\1iep_ligandH.pdb
REMARK  8 active torsions:
REMARK  status: ('A' for Active; 'I' for Inactive)
REMARK    1  A    between atoms: _5  and  _11
REMARK    2  A    between atoms: _19  and  _21
REMARK    3  A    between atoms: _22  and  _66
REMARK    4  A    between atoms: _27  and  _30
REMARK    5  A    between atoms: _32  and  _33
REMARK    6  A    between atoms: _38  and  _43
REMARK    7  A    between atoms: _43  and  _46
REMARK    8  A    between atoms: _53  and  _55
REMARK                            x       y       z     vdW  Elec       q    Type
REMARK                         _______ _______ _______ _____ _____    ______ ____
ROOT
ATOM     10  C   UNL     1       9.769  27.119  21.581  0.00  0.00    +0.038 A 
ATOM     11  C   UNL     1       9.322  28.380  21.112  0.00  0.00    +0.047 A 
ATOM     12  C   UNL     1       8.736  29.356  22.019  0.00  0.00    +0.035 A 
ATOM     32  C   UNL     1       8.624  29.014  23.398  0.00  0.00    +0.024 A 
ATOM     33  C   UNL     1       9.073  27.736  23.892  0.00  0.00    +0.007 A 
ATOM     34  C   UNL     1       9.648  26.769  23.002  0.00  0.00    -0.029 A 
ATOM     35  C   UNL     1      10.106  25.412  23.586  0.00  0.00    +0.045 C 
ENDROOT
BRANCH  10   9
ATOM      4  C   UNL     1       9.400  23.504  18.445  0.00  0.00    +0.077 A 
ATOM      5  C   UNL     1       7.988  23.378  18.666  0.00  0.00    +0.048 A 
ATOM      6  C   UNL     1       7.397  24.258  19.601  0.00  0.00    +0.116 A 
ATOM      7  N   UNL     1       8.169  25.190  20.258  0.00  0.00    -0.223 NA
ATOM      8  C   UNL     1       9.528  25.284  20.023  0.00  0.00    +0.220 A 
ATOM      9  N   UNL     1      10.323  26.220  20.667  0.00  0.00    -0.283 N 
ATOM     36  H   UNL     1      11.323  26.253  20.471  0.00  0.00    +0.155 HD
ATOM     37  N   UNL     1      10.117  24.455  19.136  0.00  0.00    -0.214 NA
BRANCH   4   3
ATOM      1  C   UNL     1      10.317  20.936  15.641  0.00  0.00    +0.020 A 
ATOM      2  C   UNL     1       9.528  21.739  16.546  0.00  0.00    +0.013 A 
ATOM      3  C   UNL     1      10.169  22.650  17.486  0.00  0.00    +0.019 A 
ATOM     38  C   UNL     1      11.623  22.725  17.484  0.00  0.00    +0.120 A 
ATOM     39  N   UNL     1      12.356  21.938  16.602  0.00  0.00    -0.263 NA
ATOM     40  C   UNL     1      11.750  21.057  15.694  0.00  0.00    +0.111 A 
ENDBRANCH   4   3
ENDBRANCH  10   9
BRANCH  12  13
ATOM     13  N   UNL     1       8.257  30.649  21.598  0.00  0.00    -0.281 N 
ATOM     14  C   UNL     1       7.393  30.940  20.556  0.00  0.00    +0.248 C 
ATOM     30  O   UNL     1       7.065  30.145  19.688  0.00  0.00    -0.270 OA
ATOM     31  H   UNL     1       8.597  31.448  22.135  0.00  0.00    +0.155 HD
BRANCH  14  15
ATOM     15  C   UNL     1       6.820  32.317  20.455  0.00  0.00    +0.037 A 
ATOM     16  C   UNL     1       5.614  32.583  19.666  0.00  0.00    +0.013 A 
ATOM     17  C   UNL     1       5.092  33.923  19.572  0.00  0.00    +0.005 A 
ATOM     18  C   UNL     1       5.776  35.008  20.271  0.00  0.00    -0.033 A 
ATOM     28  C   UNL     1       6.967  34.716  21.052  0.00  0.00    +0.005 A 
ATOM     29  C   UNL     1       7.482  33.403  21.145  0.00  0.00    +0.013 A 
BRANCH  18  19
ATOM     19  C   UNL     1       5.302  36.472  20.209  0.00  0.00    +0.119 C 
BRANCH  19  20
ATOM     20  N   UNL     1       5.601  37.236  18.961  0.00  0.00    -0.302 NA
ATOM     21  C   UNL     1       5.631  38.747  19.206  0.00  0.00    +0.066 C 
ATOM     22  C   UNL     1       5.967  39.529  17.895  0.00  0.00    -0.064 C 
ATOM     23  N   UNL     1       4.943  39.175  16.815  0.00  0.00    +0.379 N 
ATOM     24  C   UNL     1       5.222  39.953  15.599  0.00  0.00    -0.096 C 
ATOM     25  H   UNL     1       3.938  39.482  17.190  0.00  0.00    -0.082 HD
ATOM     26  C   UNL     1       4.905  37.674  16.568  0.00  0.00    -0.064 C 
ATOM     27  C   UNL     1       4.598  36.904  17.883  0.00  0.00    +0.066 C 
ENDBRANCH  19  20
ENDBRANCH  18  19
ENDBRANCH  14  15
ENDBRANCH  12  13
TORSDOF 6
ENDMDL
MODEL 5
REMARK VINA RESULT:      -8.5      8.549     12.944
REMARK  Name = C:\Users\Docking\Desktop\test protocol\1iep_ligandH.pdb
REMARK  8 active torsions:
REMARK  status: ('A' for Active; 'I' for Inactive)
REMARK    1  A    between atoms: _5  and  _11
REMARK    2  A    between atoms: _19  and  _21
REMARK    3  A    between atoms: _22  and  _66
REMARK    4  A    between atoms: _27  and  _30
REMARK    5  A    between atoms: _32  and  _33
REMARK    6  A    between atoms: _38  and  _43
REMARK    7  A    between atoms: _43  and  _46
REMARK    8  A    between atoms: _53  and  _55
REMARK                            x       y       z     vdW  Elec       q    Type
REMARK                         _______ _______ _______ _____ _____    ______ ____
ROOT
ATOM     10  C   UNL     1      17.072  22.850  15.014  0.00  0.00    +0.038 A 
ATOM     11  C   UNL     1      15.879  23.236  15.675  0.00  0.00    +0.047 A 
ATOM     12  C   UNL     1      14.583  22.737  15.242  0.00  0.00    +0.035 A 
ATOM     32  C   UNL     1      14.540  21.844  14.132  0.00  0.00    +0.024 A 
ATOM     33  C   UNL     1      15.743  21.442  13.447  0.00  0.00    +0.007 A 
ATOM     34  C   UNL     1      17.024  21.933  13.868  0.00  0.00    -0.029 A 
ATOM     35  C   UNL     1      18.280  21.473  13.093  0.00  0.00    +0.045 C 
ENDROOT
BRANCH  10   9
ATOM      4  C   UNL     1      20.347  26.344  15.335  0.00  0.00    +0.077 A 
ATOM      5  C   UNL     1      19.580  27.221  14.497  0.00  0.00    +0.048 A 
ATOM      6  C   UNL     1      18.352  26.731  13.998  0.00  0.00    +0.116 A 
ATOM      7  N   UNL     1      17.932  25.459  14.319  0.00  0.00    -0.223 NA
ATOM      8  C   UNL     1      18.696  24.639  15.129  0.00  0.00    +0.220 A 
ATOM      9  N   UNL     1      18.290  23.359  15.472  0.00  0.00    -0.283 N 
ATOM     36  H   UNL     1      18.886  22.782  16.066  0.00  0.00    +0.155 HD
ATOM     37  N   UNL     1      19.873  25.082  15.617  0.00  0.00    -0.214 NA
BRANCH   4   3
ATOM      1  C   UNL     1      24.111  27.307  15.784  0.00  0.00    +0.020 A 
ATOM      2  C   UNL     1      22.865  26.947  15.149  0.00  0.00    +0.013 A 
ATOM      3  C   UNL     1      21.663  26.718  15.942  0.00  0.00    +0.019 A 
ATOM     38  C   UNL     1      21.758  26.864  17.387  0.00  0.00    +0.120 A 
ATOM     39  N   UNL     1      22.972  27.210  17.971  0.00  0.00    -0.263 NA
ATOM     40  C   UNL     1      24.135  27.431  17.218  0.00  0.00    +0.111 A 
ENDBRANCH   4   3
ENDBRANCH  10   9
BRANCH  12  13
ATOM     13  N   UNL     1      13.337  23.101  15.870  0.00  0.00    -0.281 N 
ATOM     14  C   UNL     1      12.545  22.327  16.703  0.00  0.00    +0.248 C 
ATOM     30  O   UNL     1      12.682  21.123  16.864  0.00  0.00    -0.270 OA
ATOM     31  H   UNL     1      12.997  24.043  15.677  0.00  0.00    +0.155 HD
BRANCH  14  15
ATOM     15  C   UNL     1      11.432  22.982  17.454  0.00  0.00    +0.037 A 
ATOM     16  C   UNL     1      10.074  22.432  17.433  0.00  0.00    +0.013 A 
ATOM     17  C   UNL     1       9.015  23.093  18.153  0.00  0.00    +0.005 A 
ATOM     18  C   UNL     1       9.310  24.312  18.902  0.00  0.00    -0.033 A 
ATOM     28  C   UNL     1      10.667  24.833  18.910  0.00  0.00    +0.005 A 
ATOM     29  C   UNL     1      11.708  24.188  18.205  0.00  0.00    +0.013 A 
BRANCH  18  19
ATOM     19  C   UNL     1       8.237  25.095  19.681  0.00  0.00    +0.119 C 
BRANCH  19  20
ATOM     20  N   UNL     1       8.700  25.934  20.827  0.00  0.00    -0.302 NA
ATOM     21  C   UNL     1       8.152  25.431  22.166  0.00  0.00    +0.066 C 
ATOM     22  C   UNL     1       8.665  26.306  23.356  0.00  0.00    -0.064 C 
ATOM     23  N   UNL     1       8.267  27.764  23.121  0.00  0.00    +0.379 N 
ATOM     24  C   UNL     1       8.696  28.580  24.266  0.00  0.00    -0.096 C 
ATOM     25  H   UNL     1       7.154  27.807  23.073  0.00  0.00    -0.082 HD
ATOM     26  C   UNL     1       8.806  28.272  21.791  0.00  0.00    -0.064 C 
ATOM     27  C   UNL     1       8.314  27.378  20.618  0.00  0.00    +0.066 C 
ENDBRANCH  19  20
ENDBRANCH  18  19
ENDBRANCH  14  15
ENDBRANCH  12  13
TORSDOF 6
ENDMDL
