MODEL 1
REMARK VINA RESULT:      -9.0      0.000      0.000
REMARK  Name = C:\Users\Docking\Desktop\test protocol\1iep_ligandH.pdb
REMARK  8 active torsions:
REMARK  status: ('A' for Active; 'I' for Inactive)
REMARK    1  A    between atoms: _5  and  _11
REMARK    2  A    between atoms: _19  and  _21
REMARK    3  A    between atoms: _22  and  _66
REMARK    4  A    between atoms: _27  and  _30
REMARK    5  A    between atoms: _32  and  _33
REMARK    6  A    between atoms: _38  and  _43
REMARK    7  A    between atoms: _43  and  _46
REMARK    8  A    between atoms: _53  and  _55
REMARK                            x       y       z     vdW  Elec       q    Type
REMARK                         _______ _______ _______ _____ _____    ______ ____
ROOT
ATOM     10  C   UNL     1      10.322  25.761  20.222  0.00  0.00    +0.038 A 
ATOM     11  C   UNL     1       9.673  26.980  19.897  0.00  0.00    +0.047 A 
ATOM     12  C   UNL     1       8.647  27.540  20.763  0.00  0.00    +0.035 A 
ATOM     32  C   UNL     1       8.308  26.833  21.954  0.00  0.00    +0.024 A 
ATOM     33  C   UNL     1       8.957  25.593  22.299  0.00  0.00    +0.007 A 
ATOM     34  C   UNL     1       9.969  25.034  21.447  0.00  0.00    -0.029 A 
ATOM     35  C   UNL     1      10.627  23.698  21.863  0.00  0.00    +0.045 C 
ENDROOT
BRANCH  10   9
ATOM      4  C   UNL     1      11.822  22.729  16.817  0.00  0.00    +0.077 A 
ATOM      5  C   UNL     1      10.559  22.051  16.782  0.00  0.00    +0.048 A 
ATOM      6  C   UNL     1       9.552  22.508  17.661  0.00  0.00    +0.116 A 
ATOM      7  N   UNL     1       9.800  23.566  18.507  0.00  0.00    -0.223 NA
ATOM      8  C   UNL     1      11.031  24.198  18.517  0.00  0.00    +0.220 A 
ATOM      9  N   UNL     1      11.300  25.269  19.355  0.00  0.00    -0.283 N 
ATOM     36  H   UNL     1      12.223  25.703  19.337  0.00  0.00    +0.155 HD
ATOM     37  N   UNL     1      12.009  23.779  17.688  0.00  0.00    -0.214 NA
BRANCH   4   3
ATOM      1  C   UNL     1      15.397  22.567  15.237  0.00  0.00    +0.020 A 
ATOM      2  C   UNL     1      14.308  22.954  16.104  0.00  0.00    +0.013 A 
ATOM      3  C   UNL     1      12.984  22.365  15.946  0.00  0.00    +0.019 A 
ATOM     38  C   UNL     1      12.794  21.379  14.892  0.00  0.00    +0.120 A 
ATOM     39  N   UNL     1      13.861  21.027  14.071  0.00  0.00    -0.263 NA
ATOM     40  C   UNL     1      15.139  21.588  14.213  0.00  0.00    +0.111 A 
ENDBRANCH   4   3
ENDBRANCH  10   9
BRANCH  12  13
ATOM     13  N   UNL     1       7.948  28.769  20.481  0.00  0.00    -0.281 N 
ATOM     14  C   UNL     1       7.912  29.923  21.246  0.00  0.00    +0.248 C 
ATOM     30  O   UNL     1       8.306  30.000  22.400  0.00  0.00    -0.270 OA
ATOM     31  H   UNL     1       7.414  28.790  19.612  0.00  0.00    +0.155 HD
BRANCH  14  15
ATOM     15  C   UNL     1       7.344  31.169  20.647  0.00  0.00    +0.037 A 
ATOM     16  C   UNL     1       6.147  31.129  19.803  0.00  0.00    +0.013 A 
ATOM     17  C   UNL     1       5.630  32.343  19.224  0.00  0.00    +0.005 A 
ATOM     18  C   UNL     1       6.309  33.609  19.488  0.00  0.00    -0.033 A 
ATOM     28  C   UNL     1       7.492  33.621  20.333  0.00  0.00    +0.005 A 
ATOM     29  C   UNL     1       8.003  32.432  20.902  0.00  0.00    +0.013 A 
BRANCH  18  19
ATOM     19  C   UNL     1       5.840  34.951  18.894  0.00  0.00    +0.119 C 
BRANCH  19  20
ATOM     20  N   UNL     1       4.982  35.817  19.757  0.00  0.00    -0.302 NA
ATOM     21  C   UNL     1       5.743  37.038  20.281  0.00  0.00    +0.066 C 
ATOM     22  C   UNL     1       4.825  37.945  21.163  0.00  0.00    -0.064 C 
ATOM     23  N   UNL     1       4.259  37.121  22.321  0.00  0.00    +0.379 N 
ATOM     24  C   UNL     1       3.441  37.986  23.185  0.00  0.00    -0.096 C 
ATOM     25  H   UNL     1       5.120  36.754  22.927  0.00  0.00    -0.082 HD
ATOM     26  C   UNL     1       3.503  35.904  21.808  0.00  0.00    -0.064 C 
ATOM     27  C   UNL     1       4.416  35.024  20.909  0.00  0.00    +0.066 C 
ENDBRANCH  19  20
ENDBRANCH  18  19
ENDBRANCH  14  15
ENDBRANCH  12  13
TORSDOF 6
ENDMDL
MODEL 2
REMARK VINA RESULT:      -9.0      1.468      1.983
REMARK  Name = C:\Users\Docking\Desktop\test protocol\1iep_ligandH.pdb
REMARK  8 active torsions:
REMARK  status: ('A' for Active; 'I' for Inactive)
REMARK    1  A    between atoms: _5  and  _11
REMARK    2  A    between atoms: _19  and  _21
REMARK    3  A    between atoms: _22  and  _66
REMARK    4  A    between atoms: _27  and  _30
REMARK    5  A    between atoms: _32  and  _33
REMARK    6  A    between atoms: _38  and  _43
REMARK    7  A    between atoms: _43  and  _46
REMARK    8  A    between atoms: _53  and  _55
REMARK                            x       y       z     vdW  Elec       q    Type
REMARK                         _______ _______ _______ _____ _____    ______ ____
ROOT
ATOM     10  C   UNL     1      10.423  26.877  20.728  0.00  0.00    +0.038 A 
ATOM     11  C   UNL     1       9.800  28.000  20.125  0.00  0.00    +0.047 A 
ATOM     12  C   UNL     1       8.946  28.890  20.896  0.00  0.00    +0.035 A 
ATOM     32  C   UNL     1       8.750  28.608  22.280  0.00  0.00    +0.024 A 
ATOM     33  C   UNL     1       9.375  27.470  22.908  0.00  0.00    +0.007 A 
ATOM     34  C   UNL     1      10.216  26.587  22.152  0.00  0.00    -0.029 A 
ATOM     35  C   UNL     1      10.855  25.379  22.875  0.00  0.00    +0.045 C 
ENDROOT
BRANCH  10   9
ATOM      4  C   UNL     1      11.068  23.159  17.761  0.00  0.00    +0.077 A 
ATOM      5  C   UNL     1       9.678  22.807  17.805  0.00  0.00    +0.048 A 
ATOM      6  C   UNL     1       8.832  23.604  18.608  0.00  0.00    +0.116 A 
ATOM      7  N   UNL     1       9.348  24.671  19.311  0.00  0.00    -0.223 NA
ATOM      8  C   UNL     1      10.694  24.982  19.248  0.00  0.00    +0.220 A 
ATOM      9  N   UNL     1      11.233  26.056  19.940  0.00  0.00    -0.283 N 
ATOM     36  H   UNL     1      12.232  26.248  19.873  0.00  0.00    +0.155 HD
ATOM     37  N   UNL     1      11.523  24.236  18.489  0.00  0.00    -0.214 NA
BRANCH   4   3
ATOM      1  C   UNL     1      13.933  22.304  15.238  0.00  0.00    +0.020 A 
ATOM      2  C   UNL     1      12.965  23.068  15.991  0.00  0.00    +0.013 A 
ATOM      3  C   UNL     1      12.087  22.416  16.955  0.00  0.00    +0.019 A 
ATOM     38  C   UNL     1      12.217  20.978  17.135  0.00  0.00    +0.120 A 
ATOM     39  N   UNL     1      13.157  20.268  16.395  0.00  0.00    -0.263 NA
ATOM     40  C   UNL     1      14.005  20.885  15.464  0.00  0.00    +0.111 A 
ENDBRANCH   4   3
ENDBRANCH  10   9
BRANCH  12  13
ATOM     13  N   UNL     1       8.280  30.040  20.337  0.00  0.00    -0.281 N 
ATOM     14  C   UNL     1       7.439  30.934  20.981  0.00  0.00    +0.248 C 
ATOM     30  O   UNL     1       6.959  30.754  22.090  0.00  0.00    -0.270 OA
ATOM     31  H   UNL     1       8.450  30.218  19.347  0.00  0.00    +0.155 HD
BRANCH  14  15
ATOM     15  C   UNL     1       7.065  32.203  20.285  0.00  0.00    +0.037 A 
ATOM     16  C   UNL     1       8.082  33.183  19.895  0.00  0.00    +0.013 A 
ATOM     17  C   UNL     1       7.693  34.407  19.241  0.00  0.00    +0.005 A 
ATOM     18  C   UNL     1       6.279  34.656  18.970  0.00  0.00    -0.033 A 
ATOM     28  C   UNL     1       5.292  33.664  19.363  0.00  0.00    +0.005 A 
ATOM     29  C   UNL     1       5.670  32.464  20.005  0.00  0.00    +0.013 A 
BRANCH  18  19
ATOM     19  C   UNL     1       5.771  35.944  18.295  0.00  0.00    +0.119 C 
BRANCH  19  20
ATOM     20  N   UNL     1       5.574  37.141  19.166  0.00  0.00    -0.302 NA
ATOM     21  C   UNL     1       4.862  36.787  20.476  0.00  0.00    +0.066 C 
ATOM     22  C   UNL     1       4.684  38.046  21.385  0.00  0.00    -0.064 C 
ATOM     23  N   UNL     1       3.908  39.119  20.619  0.00  0.00    +0.379 N 
ATOM     24  C   UNL     1       3.688  40.282  21.491  0.00  0.00    -0.096 C 
ATOM     25  H   UNL     1       2.909  38.695  20.363  0.00  0.00    -0.082 HD
ATOM     26  C   UNL     1       4.607  39.475  19.315  0.00  0.00    -0.064 C 
ATOM     27  C   UNL     1       4.805  38.211  18.431  0.00  0.00    +0.066 C 
ENDBRANCH  19  20
ENDBRANCH  18  19
ENDBRANCH  14  15
ENDBRANCH  12  13
TORSDOF 6
ENDMDL
MODEL 3
REMARK VINA RESULT:      -8.8      2.133      3.309
REMARK  Name = C:\Users\Docking\Desktop\test protocol\1iep_ligandH.pdb
REMARK  8 active torsions:
REMARK  status: ('A' for Active; 'I' for Inactive)
REMARK    1  A    between atoms: _5  and  _11
REMARK    2  A    between atoms: _19  and  _21
REMARK    3  A    between atoms: _22  and  _66
REMARK    4  A    between atoms: _27  and  _30
REMARK    5  A    between atoms: _32  and  _33
REMARK    6  A    between atoms: _38  and  _43
REMARK    7  A    between atoms: _43  and  _46
REMARK    8  A    between atoms: _53  and  _55
REMARK                            x       y       z     vdW  Elec       q    Type
REMARK                         _______ _______ _______ _____ _____    ______ ____
ROOT
ATOM     10  C   UNL     1       9.640  26.939  21.630  0.00  0.00    +0.038 A 
ATOM     11  C   UNL     1       9.225  28.223  21.192  0.00  0.00    +0.047 A 
ATOM     12  C   UNL     1       8.676  29.195  22.125  0.00  0.00    +0.035 A 
ATOM     32  C   UNL     1       8.565  28.826  23.497  0.00  0.00    +0.024 A 
ATOM     33  C   UNL     1       8.981  27.526  23.960  0.00  0.00    +0.007 A 
ATOM     34  C   UNL     1       9.522  26.562  23.044  0.00  0.00    -0.029 A 
ATOM     35  C   UNL     1       9.946  25.180  23.594  0.00  0.00    +0.045 C 
ENDROOT
BRANCH  10   9
ATOM      4  C   UNL     1       9.137  23.444  18.380  0.00  0.00    +0.077 A 
ATOM      5  C   UNL     1       7.719  23.374  18.588  0.00  0.00    +0.048 A 
ATOM      6  C   UNL     1       7.160  24.249  19.546  0.00  0.00    +0.116 A 
ATOM      7  N   UNL     1       7.967  25.126  20.237  0.00  0.00    -0.223 NA
ATOM      8  C   UNL     1       9.331  25.166  20.014  0.00  0.00    +0.220 A 
ATOM      9  N   UNL     1      10.161  26.045  20.692  0.00  0.00    -0.283 N 
ATOM     36  H   UNL     1      11.164  26.039  20.504  0.00  0.00    +0.155 HD
ATOM     37  N   UNL     1       9.890  24.339  19.106  0.00  0.00    -0.214 NA
BRANCH   4   3
ATOM      1  C   UNL     1       9.961  20.912  15.514  0.00  0.00    +0.020 A 
ATOM      2  C   UNL     1       9.201  21.721  16.440  0.00  0.00    +0.013 A 
ATOM      3  C   UNL     1       9.875  22.585  17.400  0.00  0.00    +0.019 A 
ATOM     38  C   UNL     1      11.330  22.610  17.398  0.00  0.00    +0.120 A 
ATOM     39  N   UNL     1      12.035  21.819  16.496  0.00  0.00    -0.263 NA
ATOM     40  C   UNL     1      11.398  20.982  15.568  0.00  0.00    +0.111 A 
ENDBRANCH   4   3
ENDBRANCH  10   9
BRANCH  12  13
ATOM     13  N   UNL     1       8.230  30.510  21.737  0.00  0.00    -0.281 N 
ATOM     14  C   UNL     1       7.434  30.855  20.657  0.00  0.00    +0.248 C 
ATOM     30  O   UNL     1       7.159  30.104  19.733  0.00  0.00    -0.270 OA
ATOM     31  H   UNL     1       8.539  31.280  22.330  0.00  0.00    +0.155 HD
BRANCH  14  15
ATOM     15  C   UNL     1       6.875  32.240  20.585  0.00  0.00    +0.037 A 
ATOM     16  C   UNL     1       7.753  33.412  20.529  0.00  0.00    +0.013 A 
ATOM     17  C   UNL     1       7.187  34.737  20.478  0.00  0.00    +0.005 A 
ATOM     18  C   UNL     1       5.735  34.896  20.482  0.00  0.00    -0.033 A 
ATOM     28  C   UNL     1       4.888  33.716  20.533  0.00  0.00    +0.005 A 
ATOM     29  C   UNL     1       5.439  32.416  20.584  0.00  0.00    +0.013 A 
BRANCH  18  19
ATOM     19  C   UNL     1       5.045  36.273  20.451  0.00  0.00    +0.119 C 
BRANCH  19  20
ATOM     20  N   UNL     1       5.439  37.211  19.357  0.00  0.00    -0.302 NA
ATOM     21  C   UNL     1       5.082  38.662  19.690  0.00  0.00    +0.066 C 
ATOM     22  C   UNL     1       5.522  39.633  18.546  0.00  0.00    -0.064 C 
ATOM     23  N   UNL     1       4.865  39.201  17.234  0.00  0.00    +0.379 N 
ATOM     24  C   UNL     1       5.230  40.145  16.168  0.00  0.00    -0.096 C 
ATOM     25  H   UNL     1       3.760  39.259  17.374  0.00  0.00    -0.082 HD
ATOM     26  C   UNL     1       5.212  37.757  16.897  0.00  0.00    -0.064 C 
ATOM     27  C   UNL     1       4.798  36.805  18.053  0.00  0.00    +0.066 C 
ENDBRANCH  19  20
ENDBRANCH  18  19
ENDBRANCH  14  15
ENDBRANCH  12  13
TORSDOF 6
ENDMDL
MODEL 4
REMARK VINA RESULT:      -8.7      1.757      2.740
REMARK  Name = C:\Users\Docking\Desktop\test protocol\1iep_ligandH.pdb
REMARK  8 active torsions:
REMARK  status: ('A' for Active; 'I' for Inactive)
REMARK    1  A    between atoms: _5  and  _11
REMARK    2  A    between atoms: _19  and  _21
REMARK    3  A    between atoms: _22  and  _66
REMARK    4  A    between atoms: _27  and  _30
REMARK    5  A    between atoms: _32  and  _33
REMARK    6  A    between atoms: _38  and  _43
REMARK    7  A    between atoms: _43  and  _46
REMARK    8  A    between atoms: _53  and  _55
REMARK                            x       y       z     vdW  Elec       q    Type
REMARK                         _______ _______ _______ _____ _____    ______ ____
ROOT
ATOM     10  C   UNL     1       9.742  27.002  21.003  0.00  0.00    +0.038 A 
ATOM     11  C   UNL     1       9.375  28.292  20.542  0.00  0.00    +0.047 A 
ATOM     12  C   UNL     1       8.818  29.285  21.447  0.00  0.00    +0.035 A 
ATOM     32  C   UNL     1       8.651  28.931  22.818  0.00  0.00    +0.024 A 
ATOM     33  C   UNL     1       9.017  27.624  23.304  0.00  0.00    +0.007 A 
ATOM     34  C   UNL     1       9.565  26.640  22.414  0.00  0.00    -0.029 A 
ATOM     35  C   UNL     1       9.934  25.252  22.989  0.00  0.00    +0.045 C 
ENDROOT
BRANCH  10   9
ATOM      4  C   UNL     1       9.307  23.283  18.000  0.00  0.00    +0.077 A 
ATOM      5  C   UNL     1       7.912  23.132  18.295  0.00  0.00    +0.048 A 
ATOM      6  C   UNL     1       7.346  24.027  19.231  0.00  0.00    +0.116 A 
ATOM      7  N   UNL     1       8.126  24.997  19.821  0.00  0.00    -0.223 NA
ATOM      8  C   UNL     1       9.470  25.115  19.515  0.00  0.00    +0.220 A 
ATOM      9  N   UNL     1      10.272  26.088  20.090  0.00  0.00    -0.283 N 
ATOM     36  H   UNL     1      11.260  26.137  19.843  0.00  0.00    +0.155 HD
ATOM     37  N   UNL     1      10.034  24.271  18.625  0.00  0.00    -0.214 NA
BRANCH   4   3
ATOM      1  C   UNL     1      10.148  20.835  15.067  0.00  0.00    +0.020 A 
ATOM      2  C   UNL     1       9.385  21.657  15.978  0.00  0.00    +0.013 A 
ATOM      3  C   UNL     1      10.049  22.417  17.030  0.00  0.00    +0.019 A 
ATOM     38  C   UNL     1      11.497  22.323  17.134  0.00  0.00    +0.120 A 
ATOM     39  N   UNL     1      12.206  21.522  16.243  0.00  0.00    -0.263 NA
ATOM     40  C   UNL     1      11.577  20.785  15.228  0.00  0.00    +0.111 A 
ENDBRANCH   4   3
ENDBRANCH  10   9
BRANCH  12  13
ATOM     13  N   UNL     1       8.420  30.608  21.035  0.00  0.00    -0.281 N 
ATOM     14  C   UNL     1       7.245  30.986  20.406  0.00  0.00    +0.248 C 
ATOM     30  O   UNL     1       6.445  30.208  19.908  0.00  0.00    -0.270 OA
ATOM     31  H   UNL     1       9.085  31.356  21.230  0.00  0.00    +0.155 HD
BRANCH  14  15
ATOM     15  C   UNL     1       6.917  32.441  20.303  0.00  0.00    +0.037 A 
ATOM     16  C   UNL     1       7.678  33.446  21.050  0.00  0.00    +0.013 A 
ATOM     17  C   UNL     1       7.330  34.841  20.945  0.00  0.00    +0.005 A 
ATOM     18  C   UNL     1       6.216  35.239  20.088  0.00  0.00    -0.033 A 
ATOM     28  C   UNL     1       5.482  34.222  19.354  0.00  0.00    +0.005 A 
ATOM     29  C   UNL     1       5.819  32.854  19.455  0.00  0.00    +0.013 A 
BRANCH  18  19
ATOM     19  C   UNL     1       5.762  36.703  19.933  0.00  0.00    +0.119 C 
BRANCH  19  20
ATOM     20  N   UNL     1       4.969  37.295  21.051  0.00  0.00    -0.302 NA
ATOM     21  C   UNL     1       3.752  36.437  21.410  0.00  0.00    +0.066 C 
ATOM     22  C   UNL     1       2.947  37.059  22.597  0.00  0.00    -0.064 C 
ATOM     23  N   UNL     1       2.518  38.480  22.229  0.00  0.00    +0.379 N 
ATOM     24  C   UNL     1       1.711  39.047  23.319  0.00  0.00    -0.096 C 
ATOM     25  H   UNL     1       1.867  38.414  21.326  0.00  0.00    -0.082 HD
ATOM     26  C   UNL     1       3.721  39.340  21.868  0.00  0.00    -0.064 C 
ATOM     27  C   UNL     1       4.531  38.697  20.707  0.00  0.00    +0.066 C 
ENDBRANCH  19  20
ENDBRANCH  18  19
ENDBRANCH  14  15
ENDBRANCH  12  13
TORSDOF 6
ENDMDL
MODEL 5
REMARK VINA RESULT:      -8.7      3.183     13.519
REMARK  Name = C:\Users\Docking\Desktop\test protocol\1iep_ligandH.pdb
REMARK  8 active torsions:
REMARK  status: ('A' for Active; 'I' for Inactive)
REMARK    1  A    between atoms: _5  and  _11
REMARK    2  A    between atoms: _19  and  _21
REMARK    3  A    between atoms: _22  and  _66
REMARK    4  A    between atoms: _27  and  _30
REMARK    5  A    between atoms: _32  and  _33
REMARK    6  A    between atoms: _38  and  _43
REMARK    7  A    between atoms: _43  and  _46
REMARK    8  A    between atoms: _53  and  _55
REMARK                            x       y       z     vdW  Elec       q    Type
REMARK                         _______ _______ _______ _____ _____    ______ ____
ROOT
ATOM     10  C   UNL     1       9.311  25.754  19.400  0.00  0.00    +0.038 A 
ATOM     11  C   UNL     1      10.648  25.664  18.935  0.00  0.00    +0.047 A 
ATOM     12  C   UNL     1      11.363  24.397  18.942  0.00  0.00    +0.035 A 
ATOM     32  C   UNL     1      10.684  23.241  19.427  0.00  0.00    +0.024 A 
ATOM     33  C   UNL     1       9.326  23.315  19.905  0.00  0.00    +0.007 A 
ATOM     34  C   UNL     1       8.617  24.563  19.903  0.00  0.00    -0.029 A 
ATOM     35  C   UNL     1       7.164  24.585  20.432  0.00  0.00    +0.045 C 
ENDROOT
BRANCH  10   9
ATOM      4  C   UNL     1       7.915  29.846  21.486  0.00  0.00    +0.077 A 
ATOM      5  C   UNL     1       8.483  29.465  22.747  0.00  0.00    +0.048 A 
ATOM      6  C   UNL     1       9.119  28.206  22.820  0.00  0.00    +0.116 A 
ATOM      7  N   UNL     1       9.177  27.395  21.707  0.00  0.00    -0.223 NA
ATOM      8  C   UNL     1       8.619  27.792  20.505  0.00  0.00    +0.220 A 
ATOM      9  N   UNL     1       8.673  26.996  19.371  0.00  0.00    -0.283 N 
ATOM     36  H   UNL     1       8.242  27.322  18.506  0.00  0.00    +0.155 HD
ATOM     37  N   UNL     1       8.005  28.990  20.411  0.00  0.00    -0.214 NA
BRANCH   4   3
ATOM      1  C   UNL     1       5.436  32.857  21.780  0.00  0.00    +0.020 A 
ATOM      2  C   UNL     1       6.078  31.591  22.049  0.00  0.00    +0.013 A 
ATOM      3  C   UNL     1       7.214  31.147  21.250  0.00  0.00    +0.019 A 
ATOM     38  C   UNL     1       7.679  32.015  20.179  0.00  0.00    +0.120 A 
ATOM     39  N   UNL     1       7.040  33.229  19.943  0.00  0.00    -0.263 NA
ATOM     40  C   UNL     1       5.945  33.665  20.704  0.00  0.00    +0.111 A 
ENDBRANCH   4   3
ENDBRANCH  10   9
BRANCH  12  13
ATOM     13  N   UNL     1      12.724  24.245  18.490  0.00  0.00    -0.281 N 
ATOM     14  C   UNL     1      13.858  24.041  19.258  0.00  0.00    +0.248 C 
ATOM     30  O   UNL     1      13.904  24.172  20.472  0.00  0.00    -0.270 OA
ATOM     31  H   UNL     1      12.868  24.294  17.481  0.00  0.00    +0.155 HD
BRANCH  14  15
ATOM     15  C   UNL     1      15.130  23.649  18.577  0.00  0.00    +0.037 A 
ATOM     16  C   UNL     1      16.364  24.414  18.773  0.00  0.00    +0.013 A 
ATOM     17  C   UNL     1      17.573  24.025  18.091  0.00  0.00    +0.005 A 
ATOM     18  C   UNL     1      17.553  22.862  17.207  0.00  0.00    -0.033 A 
ATOM     28  C   UNL     1      16.316  22.117  17.035  0.00  0.00    +0.005 A 
ATOM     29  C   UNL     1      15.130  22.497  17.701  0.00  0.00    +0.013 A 
BRANCH  18  19
ATOM     19  C   UNL     1      18.790  22.386  16.423  0.00  0.00    +0.119 C 
BRANCH  19  20
ATOM     20  N   UNL     1      18.651  22.252  14.942  0.00  0.00    -0.302 NA
ATOM     21  C   UNL     1      19.808  21.459  14.326  0.00  0.00    +0.066 C 
ATOM     22  C   UNL     1      19.634  21.309  12.780  0.00  0.00    -0.064 C 
ATOM     23  N   UNL     1      19.529  22.696  12.144  0.00  0.00    +0.379 N 
ATOM     24  C   UNL     1      19.424  22.560  10.684  0.00  0.00    -0.096 C 
ATOM     25  H   UNL     1      20.475  23.242  12.366  0.00  0.00    -0.082 HD
ATOM     26  C   UNL     1      18.383  23.492  12.753  0.00  0.00    -0.064 C 
ATOM     27  C   UNL     1      18.550  23.610  14.293  0.00  0.00    +0.066 C 
ENDBRANCH  19  20
ENDBRANCH  18  19
ENDBRANCH  14  15
ENDBRANCH  12  13
TORSDOF 6
ENDMDL
