MODEL 1
REMARK VINA RESULT:      -7.7      0.000      0.000
REMARK  Name = C:\Users\Docking\Desktop\test protocol\1iep_ligandH.pdb
REMARK  8 active torsions:
REMARK  status: ('A' for Active; 'I' for Inactive)
REMARK    1  A    between atoms: _5  and  _11
REMARK    2  A    between atoms: _19  and  _21
REMARK    3  A    between atoms: _22  and  _66
REMARK    4  A    between atoms: _27  and  _30
REMARK    5  A    between atoms: _32  and  _33
REMARK    6  A    between atoms: _38  and  _43
REMARK    7  A    between atoms: _43  and  _46
REMARK    8  A    between atoms: _53  and  _55
REMARK                            x       y       z     vdW  Elec       q    Type
REMARK                         _______ _______ _______ _____ _____    ______ ____
ROOT
ATOM     10  C   UNL     1      67.875  14.888  61.536  0.00  0.00    +0.038 A 
ATOM     11  C   UNL     1      68.422  14.992  62.840  0.00  0.00    +0.047 A 
ATOM     12  C   UNL     1      69.704  15.642  63.069  0.00  0.00    +0.035 A 
ATOM     32  C   UNL     1      70.400  16.177  61.947  0.00  0.00    +0.024 A 
ATOM     33  C   UNL     1      69.858  16.079  60.614  0.00  0.00    +0.007 A 
ATOM     34  C   UNL     1      68.596  15.437  60.382  0.00  0.00    -0.029 A 
ATOM     35  C   UNL     1      68.067  15.355  58.931  0.00  0.00    +0.045 C 
ENDROOT
BRANCH  10   9
ATOM      4  C   UNL     1      63.122  14.654  62.162  0.00  0.00    +0.077 A 
ATOM      5  C   UNL     1      63.099  15.885  62.897  0.00  0.00    +0.048 A 
ATOM      6  C   UNL     1      64.332  16.544  63.098  0.00  0.00    +0.116 A 
ATOM      7  N   UNL     1      65.496  16.003  62.597  0.00  0.00    -0.223 NA
ATOM      8  C   UNL     1      65.484  14.812  61.894  0.00  0.00    +0.220 A 
ATOM      9  N   UNL     1      66.641  14.254  61.374  0.00  0.00    -0.283 N 
ATOM     36  H   UNL     1      66.591  13.370  60.868  0.00  0.00    +0.155 HD
ATOM     37  N   UNL     1      64.319  14.163  61.689  0.00  0.00    -0.214 NA
BRANCH   4   3
ATOM      1  C   UNL     1      60.625  11.666  61.786  0.00  0.00    +0.020 A 
ATOM      2  C   UNL     1      61.830  12.404  62.090  0.00  0.00    +0.013 A 
ATOM      3  C   UNL     1      61.900  13.842  61.864  0.00  0.00    +0.019 A 
ATOM     38  C   UNL     1      60.724  14.509  61.325  0.00  0.00    +0.120 A 
ATOM     39  N   UNL     1      59.578  13.773  61.041  0.00  0.00    -0.263 NA
ATOM     40  C   UNL     1      59.500  12.388  61.253  0.00  0.00    +0.111 A 
ENDBRANCH   4   3
ENDBRANCH  10   9
BRANCH  12  13
ATOM     13  N   UNL     1      70.313  15.770  64.370  0.00  0.00    -0.281 N 
ATOM     14  C   UNL     1      70.002  16.676  65.370  0.00  0.00    +0.248 C 
ATOM     30  O   UNL     1      69.292  17.659  65.216  0.00  0.00    -0.270 OA
ATOM     31  H   UNL     1      71.065  15.113  64.578  0.00  0.00    +0.155 HD
BRANCH  14  15
ATOM     15  C   UNL     1      70.574  16.469  66.735  0.00  0.00    +0.037 A 
ATOM     16  C   UNL     1      69.837  16.868  67.937  0.00  0.00    +0.013 A 
ATOM     17  C   UNL     1      70.419  16.673  69.241  0.00  0.00    +0.005 A 
ATOM     18  C   UNL     1      71.747  16.074  69.350  0.00  0.00    -0.033 A 
ATOM     28  C   UNL     1      72.454  15.682  68.142  0.00  0.00    +0.005 A 
ATOM     29  C   UNL     1      71.887  15.873  66.862  0.00  0.00    +0.013 A 
BRANCH  18  19
ATOM     19  C   UNL     1      72.454  15.847  70.699  0.00  0.00    +0.119 C 
BRANCH  19  20
ATOM     20  N   UNL     1      73.935  15.657  70.672  0.00  0.00    -0.302 NA
ATOM     21  C   UNL     1      74.336  14.221  71.020  0.00  0.00    +0.066 C 
ATOM     22  C   UNL     1      75.887  14.034  70.964  0.00  0.00    -0.064 C 
ATOM     23  N   UNL     1      76.553  15.028  71.917  0.00  0.00    +0.379 N 
ATOM     24  C   UNL     1      78.008  14.815  71.910  0.00  0.00    -0.096 C 
ATOM     25  H   UNL     1      76.183  14.809  72.946  0.00  0.00    -0.082 HD
ATOM     26  C   UNL     1      76.157  16.458  71.580  0.00  0.00    -0.064 C 
ATOM     27  C   UNL     1      74.612  16.626  71.609  0.00  0.00    +0.066 C 
ENDBRANCH  19  20
ENDBRANCH  18  19
ENDBRANCH  14  15
ENDBRANCH  12  13
TORSDOF 6
ENDMDL
MODEL 2
REMARK VINA RESULT:      -7.6     32.677     35.937
REMARK  Name = C:\Users\Docking\Desktop\test protocol\1iep_ligandH.pdb
REMARK  8 active torsions:
REMARK  status: ('A' for Active; 'I' for Inactive)
REMARK    1  A    between atoms: _5  and  _11
REMARK    2  A    between atoms: _19  and  _21
REMARK    3  A    between atoms: _22  and  _66
REMARK    4  A    between atoms: _27  and  _30
REMARK    5  A    between atoms: _32  and  _33
REMARK    6  A    between atoms: _38  and  _43
REMARK    7  A    between atoms: _43  and  _46
REMARK    8  A    between atoms: _53  and  _55
REMARK                            x       y       z     vdW  Elec       q    Type
REMARK                         _______ _______ _______ _____ _____    ______ ____
ROOT
ATOM     10  C   UNL     1      63.065  -2.169  92.187  0.00  0.00    +0.038 A 
ATOM     11  C   UNL     1      63.540  -2.532  93.473  0.00  0.00    +0.047 A 
ATOM     12  C   UNL     1      64.784  -3.268  93.636  0.00  0.00    +0.035 A 
ATOM     32  C   UNL     1      65.520  -3.617  92.467  0.00  0.00    +0.024 A 
ATOM     33  C   UNL     1      65.051  -3.258  91.152  0.00  0.00    +0.007 A 
ATOM     34  C   UNL     1      63.823  -2.534  90.985  0.00  0.00    -0.029 A 
ATOM     35  C   UNL     1      63.366  -2.181  89.550  0.00  0.00    +0.045 C 
ENDROOT
BRANCH  10   9
ATOM      4  C   UNL     1      58.278  -1.903  92.420  0.00  0.00    +0.077 A 
ATOM      5  C   UNL     1      58.157  -3.297  92.738  0.00  0.00    +0.048 A 
ATOM      6  C   UNL     1      59.350  -4.049  92.825  0.00  0.00    +0.116 A 
ATOM      7  N   UNL     1      60.568  -3.441  92.609  0.00  0.00    -0.223 NA
ATOM      8  C   UNL     1      60.649  -2.095  92.303  0.00  0.00    +0.220 A 
ATOM      9  N   UNL     1      61.864  -1.462  92.089  0.00  0.00    -0.283 N 
ATOM     36  H   UNL     1      61.881  -0.469  91.858  0.00  0.00    +0.155 HD
ATOM     37  N   UNL     1      59.524  -1.356  92.212  0.00  0.00    -0.214 NA
BRANCH   4   3
ATOM      1  C   UNL     1      55.055   0.168  93.212  0.00  0.00    +0.020 A 
ATOM      2  C   UNL     1      56.168  -0.738  93.383  0.00  0.00    +0.013 A 
ATOM      3  C   UNL     1      57.109  -0.976  92.296  0.00  0.00    +0.019 A 
ATOM     38  C   UNL     1      56.896  -0.275  91.039  0.00  0.00    +0.120 A 
ATOM     39  N   UNL     1      55.815   0.590  90.902  0.00  0.00    -0.263 NA
ATOM     40  C   UNL     1      54.901   0.826  91.941  0.00  0.00    +0.111 A 
ENDBRANCH   4   3
ENDBRANCH  10   9
BRANCH  12  13
ATOM     13  N   UNL     1      65.312  -3.670  94.916  0.00  0.00    -0.281 N 
ATOM     14  C   UNL     1      66.420  -3.166  95.576  0.00  0.00    +0.248 C 
ATOM     30  O   UNL     1      67.256  -2.435  95.066  0.00  0.00    -0.270 OA
ATOM     31  H   UNL     1      64.807  -4.417  95.394  0.00  0.00    +0.155 HD
BRANCH  14  15
ATOM     15  C   UNL     1      66.641  -3.540  97.007  0.00  0.00    +0.037 A 
ATOM     16  C   UNL     1      65.580  -4.165  97.801  0.00  0.00    +0.013 A 
ATOM     17  C   UNL     1      65.814  -4.500  99.183  0.00  0.00    +0.005 A 
ATOM     18  C   UNL     1      67.116  -4.212  99.780  0.00  0.00    -0.033 A 
ATOM     28  C   UNL     1      68.153  -3.597  98.967  0.00  0.00    +0.005 A 
ATOM     29  C   UNL     1      67.927  -3.266  97.612  0.00  0.00    +0.013 A 
BRANCH  18  19
ATOM     19  C   UNL     1      67.447  -4.516 101.253  0.00  0.00    +0.119 C 
BRANCH  19  20
ATOM     20  N   UNL     1      67.049  -3.496 102.268  0.00  0.00    -0.302 NA
ATOM     21  C   UNL     1      65.566  -3.600 102.635  0.00  0.00    +0.066 C 
ATOM     22  C   UNL     1      65.171  -2.541 103.715  0.00  0.00    -0.064 C 
ATOM     23  N   UNL     1      65.504  -1.140 103.197  0.00  0.00    +0.379 N 
ATOM     24  C   UNL     1      65.081  -0.138 104.185  0.00  0.00    -0.096 C 
ATOM     25  H   UNL     1      64.908  -0.973 102.269  0.00  0.00    -0.082 HD
ATOM     26  C   UNL     1      66.976  -1.029 102.827  0.00  0.00    -0.064 C 
ATOM     27  C   UNL     1      67.364  -2.106 101.775  0.00  0.00    +0.066 C 
ENDBRANCH  19  20
ENDBRANCH  18  19
ENDBRANCH  14  15
ENDBRANCH  12  13
TORSDOF 6
ENDMDL
MODEL 3
REMARK VINA RESULT:      -7.6     33.291     36.524
REMARK  Name = C:\Users\Docking\Desktop\test protocol\1iep_ligandH.pdb
REMARK  8 active torsions:
REMARK  status: ('A' for Active; 'I' for Inactive)
REMARK    1  A    between atoms: _5  and  _11
REMARK    2  A    between atoms: _19  and  _21
REMARK    3  A    between atoms: _22  and  _66
REMARK    4  A    between atoms: _27  and  _30
REMARK    5  A    between atoms: _32  and  _33
REMARK    6  A    between atoms: _38  and  _43
REMARK    7  A    between atoms: _43  and  _46
REMARK    8  A    between atoms: _53  and  _55
REMARK                            x       y       z     vdW  Elec       q    Type
REMARK                         _______ _______ _______ _____ _____    ______ ____
ROOT
ATOM     10  C   UNL     1      63.073  -2.211  92.275  0.00  0.00    +0.038 A 
ATOM     11  C   UNL     1      63.540  -2.551  93.570  0.00  0.00    +0.047 A 
ATOM     12  C   UNL     1      64.769  -3.307  93.753  0.00  0.00    +0.035 A 
ATOM     32  C   UNL     1      65.499  -3.700  92.593  0.00  0.00    +0.024 A 
ATOM     33  C   UNL     1      65.037  -3.365  91.269  0.00  0.00    +0.007 A 
ATOM     34  C   UNL     1      63.824  -2.621  91.083  0.00  0.00    -0.029 A 
ATOM     35  C   UNL     1      63.374  -2.295  89.640  0.00  0.00    +0.045 C 
ENDROOT
BRANCH  10   9
ATOM      4  C   UNL     1      58.285  -1.877  92.365  0.00  0.00    +0.077 A 
ATOM      5  C   UNL     1      58.134  -3.276  92.642  0.00  0.00    +0.048 A 
ATOM      6  C   UNL     1      59.312  -4.049  92.746  0.00  0.00    +0.116 A 
ATOM      7  N   UNL     1      60.545  -3.455  92.584  0.00  0.00    -0.223 NA
ATOM      8  C   UNL     1      60.656  -2.103  92.317  0.00  0.00    +0.220 A 
ATOM      9  N   UNL     1      61.886  -1.483  92.159  0.00  0.00    -0.283 N 
ATOM     36  H   UNL     1      61.926  -0.485  91.955  0.00  0.00    +0.155 HD
ATOM     37  N   UNL     1      59.546  -1.344  92.211  0.00  0.00    -0.214 NA
BRANCH   4   3
ATOM      1  C   UNL     1      55.138   0.311  93.148  0.00  0.00    +0.020 A 
ATOM      2  C   UNL     1      56.234  -0.613  93.331  0.00  0.00    +0.013 A 
ATOM      3  C   UNL     1      57.135  -0.929  92.230  0.00  0.00    +0.019 A 
ATOM     38  C   UNL     1      56.897  -0.288  90.945  0.00  0.00    +0.120 A 
ATOM     39  N   UNL     1      55.833   0.596  90.797  0.00  0.00    -0.263 NA
ATOM     40  C   UNL     1      54.959   0.907  91.850  0.00  0.00    +0.111 A 
ENDBRANCH   4   3
ENDBRANCH  10   9
BRANCH  12  13
ATOM     13  N   UNL     1      65.289  -3.688  95.043  0.00  0.00    -0.281 N 
ATOM     14  C   UNL     1      66.390  -3.168  95.704  0.00  0.00    +0.248 C 
ATOM     30  O   UNL     1      67.226  -2.440  95.189  0.00  0.00    -0.270 OA
ATOM     31  H   UNL     1      64.784  -4.430  95.527  0.00  0.00    +0.155 HD
BRANCH  14  15
ATOM     15  C   UNL     1      66.601  -3.520  97.141  0.00  0.00    +0.037 A 
ATOM     16  C   UNL     1      65.516  -4.075  97.955  0.00  0.00    +0.013 A 
ATOM     17  C   UNL     1      65.742  -4.390  99.343  0.00  0.00    +0.005 A 
ATOM     18  C   UNL     1      67.060  -4.151  99.927  0.00  0.00    -0.033 A 
ATOM     28  C   UNL     1      68.119  -3.604  99.096  0.00  0.00    +0.005 A 
ATOM     29  C   UNL     1      67.901  -3.293  97.734  0.00  0.00    +0.013 A 
BRANCH  18  19
ATOM     19  C   UNL     1      67.384  -4.437 101.405  0.00  0.00    +0.119 C 
BRANCH  19  20
ATOM     20  N   UNL     1      66.639  -5.550 102.066  0.00  0.00    -0.302 NA
ATOM     21  C   UNL     1      66.452  -5.305 103.566  0.00  0.00    +0.066 C 
ATOM     22  C   UNL     1      65.651  -6.468 104.237  0.00  0.00    -0.064 C 
ATOM     23  N   UNL     1      66.377  -7.792 103.990  0.00  0.00    +0.379 N 
ATOM     24  C   UNL     1      65.657  -8.879 104.669  0.00  0.00    -0.096 C 
ATOM     25  H   UNL     1      67.388  -7.714 104.454  0.00  0.00    -0.082 HD
ATOM     26  C   UNL     1      66.569  -8.042 102.501  0.00  0.00    -0.064 C 
ATOM     27  C   UNL     1      67.341  -6.866 101.839  0.00  0.00    +0.066 C 
ENDBRANCH  19  20
ENDBRANCH  18  19
ENDBRANCH  14  15
ENDBRANCH  12  13
TORSDOF 6
ENDMDL
MODEL 4
REMARK VINA RESULT:      -7.4     24.231     26.426
REMARK  Name = C:\Users\Docking\Desktop\test protocol\1iep_ligandH.pdb
REMARK  8 active torsions:
REMARK  status: ('A' for Active; 'I' for Inactive)
REMARK    1  A    between atoms: _5  and  _11
REMARK    2  A    between atoms: _19  and  _21
REMARK    3  A    between atoms: _22  and  _66
REMARK    4  A    between atoms: _27  and  _30
REMARK    5  A    between atoms: _32  and  _33
REMARK    6  A    between atoms: _38  and  _43
REMARK    7  A    between atoms: _43  and  _46
REMARK    8  A    between atoms: _53  and  _55
REMARK                            x       y       z     vdW  Elec       q    Type
REMARK                         _______ _______ _______ _____ _____    ______ ____
ROOT
ATOM     10  C   UNL     1      79.752  -2.079  80.261  0.00  0.00    +0.038 A 
ATOM     11  C   UNL     1      78.656  -1.317  80.740  0.00  0.00    +0.047 A 
ATOM     12  C   UNL     1      78.764  -0.526  81.956  0.00  0.00    +0.035 A 
ATOM     32  C   UNL     1      80.004  -0.532  82.659  0.00  0.00    +0.024 A 
ATOM     33  C   UNL     1      81.128  -1.302  82.186  0.00  0.00    +0.007 A 
ATOM     34  C   UNL     1      81.027  -2.086  80.989  0.00  0.00    -0.029 A 
ATOM     35  C   UNL     1      82.262  -2.897  80.533  0.00  0.00    +0.045 C 
ENDROOT
BRANCH  10   9
ATOM      4  C   UNL     1      78.561  -6.097  77.922  0.00  0.00    +0.077 A 
ATOM      5  C   UNL     1      78.255  -6.787  79.143  0.00  0.00    +0.048 A 
ATOM      6  C   UNL     1      78.424  -6.075  80.351  0.00  0.00    +0.116 A 
ATOM      7  N   UNL     1      78.867  -4.770  80.329  0.00  0.00    -0.223 NA
ATOM      8  C   UNL     1      79.154  -4.135  79.135  0.00  0.00    +0.220 A 
ATOM      9  N   UNL     1      79.593  -2.820  79.088  0.00  0.00    -0.283 N 
ATOM     36  H   UNL     1      79.802  -2.390  78.188  0.00  0.00    +0.155 HD
ATOM     37  N   UNL     1      79.002  -4.794  77.967  0.00  0.00    -0.214 NA
BRANCH   4   3
ATOM      1  C   UNL     1      79.356  -7.401  74.321  0.00  0.00    +0.020 A 
ATOM      2  C   UNL     1      79.536  -6.794  75.620  0.00  0.00    +0.013 A 
ATOM      3  C   UNL     1      78.429  -6.715  76.565  0.00  0.00    +0.019 A 
ATOM     38  C   UNL     1      77.143  -7.264  76.162  0.00  0.00    +0.120 A 
ATOM     39  N   UNL     1      76.999  -7.841  74.904  0.00  0.00    -0.263 NA
ATOM     40  C   UNL     1      78.057  -7.922  73.986  0.00  0.00    +0.111 A 
ENDBRANCH   4   3
ENDBRANCH  10   9
BRANCH  12  13
ATOM     13  N   UNL     1      77.683   0.261  82.495  0.00  0.00    -0.281 N 
ATOM     14  C   UNL     1      76.656  -0.157  83.326  0.00  0.00    +0.248 C 
ATOM     30  O   UNL     1      76.391  -1.327  83.561  0.00  0.00    -0.270 OA
ATOM     31  H   UNL     1      77.673   1.247  82.233  0.00  0.00    +0.155 HD
BRANCH  14  15
ATOM     15  C   UNL     1      75.791   0.871  83.979  0.00  0.00    +0.037 A 
ATOM     16  C   UNL     1      75.682   0.958  85.438  0.00  0.00    +0.013 A 
ATOM     17  C   UNL     1      74.827   1.949  86.042  0.00  0.00    +0.005 A 
ATOM     18  C   UNL     1      74.074   2.862  85.186  0.00  0.00    -0.033 A 
ATOM     28  C   UNL     1      74.205   2.758  83.742  0.00  0.00    +0.005 A 
ATOM     29  C   UNL     1      75.041   1.787  83.147  0.00  0.00    +0.013 A 
BRANCH  18  19
ATOM     19  C   UNL     1      73.122   3.937  85.744  0.00  0.00    +0.119 C 
BRANCH  19  20
ATOM     20  N   UNL     1      71.657   3.649  85.685  0.00  0.00    -0.302 NA
ATOM     21  C   UNL     1      70.838   4.673  86.476  0.00  0.00    +0.066 C 
ATOM     22  C   UNL     1      69.307   4.370  86.385  0.00  0.00    -0.064 C 
ATOM     23  N   UNL     1      69.040   2.952  86.894  0.00  0.00    +0.379 N 
ATOM     24  C   UNL     1      67.594   2.685  86.864  0.00  0.00    -0.096 C 
ATOM     25  H   UNL     1      69.370   2.907  87.958  0.00  0.00    -0.082 HD
ATOM     26  C   UNL     1      69.852   1.928  86.115  0.00  0.00    -0.064 C 
ATOM     27  C   UNL     1      71.370   2.255  86.187  0.00  0.00    +0.066 C 
ENDBRANCH  19  20
ENDBRANCH  18  19
ENDBRANCH  14  15
ENDBRANCH  12  13
TORSDOF 6
ENDMDL
MODEL 5
REMARK VINA RESULT:      -7.3     25.034     28.478
REMARK  Name = C:\Users\Docking\Desktop\test protocol\1iep_ligandH.pdb
REMARK  8 active torsions:
REMARK  status: ('A' for Active; 'I' for Inactive)
REMARK    1  A    between atoms: _5  and  _11
REMARK    2  A    between atoms: _19  and  _21
REMARK    3  A    between atoms: _22  and  _66
REMARK    4  A    between atoms: _27  and  _30
REMARK    5  A    between atoms: _32  and  _33
REMARK    6  A    between atoms: _38  and  _43
REMARK    7  A    between atoms: _43  and  _46
REMARK    8  A    between atoms: _53  and  _55
REMARK                            x       y       z     vdW  Elec       q    Type
REMARK                         _______ _______ _______ _____ _____    ______ ____
ROOT
ATOM     10  C   UNL     1      48.554   0.824  77.590  0.00  0.00    +0.038 A 
ATOM     11  C   UNL     1      49.496   0.743  78.648  0.00  0.00    +0.047 A 
ATOM     12  C   UNL     1      49.321  -0.200  79.741  0.00  0.00    +0.035 A 
ATOM     32  C   UNL     1      48.175  -1.048  79.725  0.00  0.00    +0.024 A 
ATOM     33  C   UNL     1      47.207  -0.978  78.659  0.00  0.00    +0.007 A 
ATOM     34  C   UNL     1      47.373  -0.048  77.579  0.00  0.00    -0.029 A 
ATOM     35  C   UNL     1      46.300  -0.013  76.465  0.00  0.00    +0.045 C 
ENDROOT
BRANCH  10   9
ATOM      4  C   UNL     1      50.579   2.145  73.444  0.00  0.00    +0.077 A 
ATOM      5  C   UNL     1      51.283   0.901  73.323  0.00  0.00    +0.048 A 
ATOM      6  C   UNL     1      51.102  -0.050  74.353  0.00  0.00    +0.116 A 
ATOM      7  N   UNL     1      50.276   0.233  75.419  0.00  0.00    -0.223 NA
ATOM      8  C   UNL     1      49.614   1.444  75.506  0.00  0.00    +0.220 A 
ATOM      9  N   UNL     1      48.772   1.747  76.565  0.00  0.00    -0.283 N 
ATOM     36  H   UNL     1      48.308   2.654  76.597  0.00  0.00    +0.155 HD
ATOM     37  N   UNL     1      49.771   2.369  74.536  0.00  0.00    -0.214 NA
BRANCH   4   3
ATOM      1  C   UNL     1      50.773   4.109  70.067  0.00  0.00    +0.020 A 
ATOM      2  C   UNL     1      50.690   3.008  70.999  0.00  0.00    +0.013 A 
ATOM      3  C   UNL     1      50.665   3.248  72.436  0.00  0.00    +0.019 A 
ATOM     38  C   UNL     1      50.726   4.626  72.901  0.00  0.00    +0.120 A 
ATOM     39  N   UNL     1      50.807   5.666  71.981  0.00  0.00    -0.263 NA
ATOM     40  C   UNL     1      50.833   5.447  70.596  0.00  0.00    +0.111 A 
ENDBRANCH   4   3
ENDBRANCH  10   9
BRANCH  12  13
ATOM     13  N   UNL     1      50.239  -0.322  80.846  0.00  0.00    -0.281 N 
ATOM     14  C   UNL     1      50.327   0.479  81.973  0.00  0.00    +0.248 C 
ATOM     30  O   UNL     1      49.764   1.556  82.101  0.00  0.00    -0.270 OA
ATOM     31  H   UNL     1      50.906  -1.091  80.790  0.00  0.00    +0.155 HD
BRANCH  14  15
ATOM     15  C   UNL     1      51.173   0.024  83.118  0.00  0.00    +0.037 A 
ATOM     16  C   UNL     1      51.680  -1.349  83.190  0.00  0.00    +0.013 A 
ATOM     17  C   UNL     1      52.480  -1.766  84.314  0.00  0.00    +0.005 A 
ATOM     18  C   UNL     1      52.779  -0.808  85.375  0.00  0.00    -0.033 A 
ATOM     28  C   UNL     1      52.267   0.549  85.276  0.00  0.00    +0.005 A 
ATOM     29  C   UNL     1      51.482   0.961  84.177  0.00  0.00    +0.013 A 
BRANCH  18  19
ATOM     19  C   UNL     1      53.607  -1.173  86.622  0.00  0.00    +0.119 C 
BRANCH  19  20
ATOM     20  N   UNL     1      52.859  -1.442  87.886  0.00  0.00    -0.302 NA
ATOM     21  C   UNL     1      53.667  -2.304  88.860  0.00  0.00    +0.066 C 
ATOM     22  C   UNL     1      52.877  -2.557  90.185  0.00  0.00    -0.064 C 
ATOM     23  N   UNL     1      51.538  -3.219  89.859  0.00  0.00    +0.379 N 
ATOM     24  C   UNL     1      50.818  -3.511  91.108  0.00  0.00    -0.096 C 
ATOM     25  H   UNL     1      51.754  -4.191  89.358  0.00  0.00    -0.082 HD
ATOM     26  C   UNL     1      50.729  -2.370  88.889  0.00  0.00    -0.064 C 
ATOM     27  C   UNL     1      51.534  -2.100  87.587  0.00  0.00    +0.066 C 
ENDBRANCH  19  20
ENDBRANCH  18  19
ENDBRANCH  14  15
ENDBRANCH  12  13
TORSDOF 6
ENDMDL
