MODEL 1
REMARK VINA RESULT:     -10.7      0.000      0.000
REMARK  Name = C:\Users\Docking\Desktop\test protocol\1iep_ligandH.pdb
REMARK  8 active torsions:
REMARK  status: ('A' for Active; 'I' for Inactive)
REMARK    1  A    between atoms: _5  and  _11
REMARK    2  A    between atoms: _19  and  _21
REMARK    3  A    between atoms: _22  and  _66
REMARK    4  A    between atoms: _27  and  _30
REMARK    5  A    between atoms: _32  and  _33
REMARK    6  A    between atoms: _38  and  _43
REMARK    7  A    between atoms: _43  and  _46
REMARK    8  A    between atoms: _53  and  _55
REMARK                            x       y       z     vdW  Elec       q    Type
REMARK                         _______ _______ _______ _____ _____    ______ ____
ROOT
ATOM     10  C   UNL     1      62.020  42.615  62.730  0.00  0.00    +0.038 A 
ATOM     11  C   UNL     1      61.416  43.285  63.825  0.00  0.00    +0.047 A 
ATOM     12  C   UNL     1      60.303  44.200  63.627  0.00  0.00    +0.035 A 
ATOM     32  C   UNL     1      59.829  44.408  62.299  0.00  0.00    +0.024 A 
ATOM     33  C   UNL     1      60.431  43.737  61.174  0.00  0.00    +0.007 A 
ATOM     34  C   UNL     1      61.531  42.835  61.364  0.00  0.00    -0.029 A 
ATOM     35  C   UNL     1      62.142  42.148  60.121  0.00  0.00    +0.045 C 
ENDROOT
BRANCH  10   9
ATOM      4  C   UNL     1      63.874  38.211  63.182  0.00  0.00    +0.077 A 
ATOM      5  C   UNL     1      62.607  37.588  62.929  0.00  0.00    +0.048 A 
ATOM      6  C   UNL     1      61.502  38.436  62.694  0.00  0.00    +0.116 A 
ATOM      7  N   UNL     1      61.663  39.804  62.713  0.00  0.00    -0.223 NA
ATOM      8  C   UNL     1      62.899  40.373  62.962  0.00  0.00    +0.220 A 
ATOM      9  N   UNL     1      63.085  41.747  62.979  0.00  0.00    -0.283 N 
ATOM     36  H   UNL     1      64.011  42.128  63.174  0.00  0.00    +0.155 HD
ATOM     37  N   UNL     1      63.969  39.585  63.191  0.00  0.00    -0.214 NA
BRANCH   4   3
ATOM      1  C   UNL     1      66.782  36.311  64.981  0.00  0.00    +0.020 A 
ATOM      2  C   UNL     1      65.554  37.046  64.782  0.00  0.00    +0.013 A 
ATOM      3  C   UNL     1      65.136  37.450  63.445  0.00  0.00    +0.019 A 
ATOM     38  C   UNL     1      65.990  37.091  62.322  0.00  0.00    +0.120 A 
ATOM     39  N   UNL     1      67.167  36.384  62.545  0.00  0.00    -0.263 NA
ATOM     40  C   UNL     1      67.580  35.992  63.827  0.00  0.00    +0.111 A 
ENDBRANCH   4   3
ENDBRANCH  10   9
BRANCH  12  13
ATOM     13  N   UNL     1      59.656  44.914  64.699  0.00  0.00    -0.281 N 
ATOM     14  C   UNL     1      59.443  46.279  64.807  0.00  0.00    +0.248 C 
ATOM     30  O   UNL     1      59.970  47.119  64.093  0.00  0.00    -0.270 OA
ATOM     31  H   UNL     1      59.312  44.344  65.472  0.00  0.00    +0.155 HD
BRANCH  14  15
ATOM     15  C   UNL     1      58.522  46.784  65.871  0.00  0.00    +0.037 A 
ATOM     16  C   UNL     1      58.329  48.220  66.089  0.00  0.00    +0.013 A 
ATOM     17  C   UNL     1      57.449  48.680  67.134  0.00  0.00    +0.005 A 
ATOM     18  C   UNL     1      56.753  47.702  67.967  0.00  0.00    -0.033 A 
ATOM     28  C   UNL     1      56.959  46.284  67.725  0.00  0.00    +0.005 A 
ATOM     29  C   UNL     1      57.822  45.829  66.703  0.00  0.00    +0.013 A 
BRANCH  18  19
ATOM     19  C   UNL     1      55.811  48.104  69.118  0.00  0.00    +0.119 C 
BRANCH  19  20
ATOM     20  N   UNL     1      54.351  47.858  68.924  0.00  0.00    -0.302 NA
ATOM     21  C   UNL     1      53.837  48.459  67.612  0.00  0.00    +0.066 C 
ATOM     22  C   UNL     1      52.313  48.173  67.414  0.00  0.00    -0.064 C 
ATOM     23  N   UNL     1      51.533  48.729  68.608  0.00  0.00    +0.379 N 
ATOM     24  C   UNL     1      50.094  48.514  68.397  0.00  0.00    -0.096 C 
ATOM     25  H   UNL     1      51.709  49.830  68.643  0.00  0.00    -0.082 HD
ATOM     26  C   UNL     1      52.040  48.139  69.916  0.00  0.00    -0.064 C 
ATOM     27  C   UNL     1      53.562  48.403  70.089  0.00  0.00    +0.066 C 
ENDBRANCH  19  20
ENDBRANCH  18  19
ENDBRANCH  14  15
ENDBRANCH  12  13
TORSDOF 6
ENDMDL
MODEL 2
REMARK VINA RESULT:     -10.5      2.228     13.659
REMARK  Name = C:\Users\Docking\Desktop\test protocol\1iep_ligandH.pdb
REMARK  8 active torsions:
REMARK  status: ('A' for Active; 'I' for Inactive)
REMARK    1  A    between atoms: _5  and  _11
REMARK    2  A    between atoms: _19  and  _21
REMARK    3  A    between atoms: _22  and  _66
REMARK    4  A    between atoms: _27  and  _30
REMARK    5  A    between atoms: _32  and  _33
REMARK    6  A    between atoms: _38  and  _43
REMARK    7  A    between atoms: _43  and  _46
REMARK    8  A    between atoms: _53  and  _55
REMARK                            x       y       z     vdW  Elec       q    Type
REMARK                         _______ _______ _______ _____ _____    ______ ____
ROOT
ATOM     10  C   UNL     1      60.660  44.297  63.809  0.00  0.00    +0.038 A 
ATOM     11  C   UNL     1      61.253  43.058  64.164  0.00  0.00    +0.047 A 
ATOM     12  C   UNL     1      62.067  42.315  63.215  0.00  0.00    +0.035 A 
ATOM     32  C   UNL     1      62.259  42.863  61.914  0.00  0.00    +0.024 A 
ATOM     33  C   UNL     1      61.662  44.121  61.536  0.00  0.00    +0.007 A 
ATOM     34  C   UNL     1      60.856  44.857  62.467  0.00  0.00    -0.029 A 
ATOM     35  C   UNL     1      60.236  46.197  62.005  0.00  0.00    +0.045 C 
ENDROOT
BRANCH  10   9
ATOM      4  C   UNL     1      56.466  45.960  65.448  0.00  0.00    +0.077 A 
ATOM      5  C   UNL     1      55.757  45.472  64.300  0.00  0.00    +0.048 A 
ATOM      6  C   UNL     1      56.510  44.805  63.307  0.00  0.00    +0.116 A 
ATOM      7  N   UNL     1      57.870  44.643  63.462  0.00  0.00    -0.223 NA
ATOM      8  C   UNL     1      58.523  45.127  64.580  0.00  0.00    +0.220 A 
ATOM      9  N   UNL     1      59.888  44.969  64.760  0.00  0.00    -0.283 N 
ATOM     36  H   UNL     1      60.334  45.347  65.596  0.00  0.00    +0.155 HD
ATOM     37  N   UNL     1      57.827  45.769  65.542  0.00  0.00    -0.214 NA
BRANCH   4   3
ATOM      1  C   UNL     1      53.946  48.060  67.578  0.00  0.00    +0.020 A 
ATOM      2  C   UNL     1      54.537  47.378  66.449  0.00  0.00    +0.013 A 
ATOM      3  C   UNL     1      55.810  46.682  66.583  0.00  0.00    +0.019 A 
ATOM     38  C   UNL     1      56.465  46.694  67.883  0.00  0.00    +0.120 A 
ATOM     39  N   UNL     1      55.872  47.360  68.951  0.00  0.00    -0.263 NA
ATOM     40  C   UNL     1      54.648  48.035  68.834  0.00  0.00    +0.111 A 
ENDBRANCH   4   3
ENDBRANCH  10   9
BRANCH  12  13
ATOM     13  N   UNL     1      62.688  41.048  63.516  0.00  0.00    -0.281 N 
ATOM     14  C   UNL     1      62.503  39.835  62.873  0.00  0.00    +0.248 C 
ATOM     30  O   UNL     1      61.609  39.607  62.072  0.00  0.00    -0.270 OA
ATOM     31  H   UNL     1      63.344  41.046  64.297  0.00  0.00    +0.155 HD
BRANCH  14  15
ATOM     15  C   UNL     1      63.438  38.709  63.175  0.00  0.00    +0.037 A 
ATOM     16  C   UNL     1      63.965  38.499  64.526  0.00  0.00    +0.013 A 
ATOM     17  C   UNL     1      64.878  37.415  64.785  0.00  0.00    +0.005 A 
ATOM     18  C   UNL     1      65.269  36.530  63.691  0.00  0.00    -0.033 A 
ATOM     28  C   UNL     1      64.727  36.757  62.362  0.00  0.00    +0.005 A 
ATOM     29  C   UNL     1      63.832  37.820  62.103  0.00  0.00    +0.013 A 
BRANCH  18  19
ATOM     19  C   UNL     1      66.255  35.360  63.872  0.00  0.00    +0.119 C 
BRANCH  19  20
ATOM     20  N   UNL     1      67.709  35.660  63.708  0.00  0.00    -0.302 NA
ATOM     21  C   UNL     1      68.005  36.359  62.378  0.00  0.00    +0.066 C 
ATOM     22  C   UNL     1      69.527  36.685  62.232  0.00  0.00    -0.064 C 
ATOM     23  N   UNL     1      70.336  35.393  62.357  0.00  0.00    +0.379 N 
ATOM     24  C   UNL     1      71.764  35.688  62.163  0.00  0.00    -0.096 C 
ATOM     25  H   UNL     1      70.016  34.713  61.534  0.00  0.00    -0.082 HD
ATOM     26  C   UNL     1      70.046  34.690  63.675  0.00  0.00    -0.064 C 
ATOM     27  C   UNL     1      68.527  34.397  63.823  0.00  0.00    +0.066 C 
ENDBRANCH  19  20
ENDBRANCH  18  19
ENDBRANCH  14  15
ENDBRANCH  12  13
TORSDOF 6
ENDMDL
MODEL 3
REMARK VINA RESULT:      -9.0      2.169     13.586
REMARK  Name = C:\Users\Docking\Desktop\test protocol\1iep_ligandH.pdb
REMARK  8 active torsions:
REMARK  status: ('A' for Active; 'I' for Inactive)
REMARK    1  A    between atoms: _5  and  _11
REMARK    2  A    between atoms: _19  and  _21
REMARK    3  A    between atoms: _22  and  _66
REMARK    4  A    between atoms: _27  and  _30
REMARK    5  A    between atoms: _32  and  _33
REMARK    6  A    between atoms: _38  and  _43
REMARK    7  A    between atoms: _43  and  _46
REMARK    8  A    between atoms: _53  and  _55
REMARK                            x       y       z     vdW  Elec       q    Type
REMARK                         _______ _______ _______ _____ _____    ______ ____
ROOT
ATOM     10  C   UNL     1      56.227  47.749  66.203  0.00  0.00    +0.038 A 
ATOM     11  C   UNL     1      56.853  46.628  65.601  0.00  0.00    +0.047 A 
ATOM     12  C   UNL     1      58.246  46.679  65.183  0.00  0.00    +0.035 A 
ATOM     32  C   UNL     1      58.972  47.887  65.396  0.00  0.00    +0.024 A 
ATOM     33  C   UNL     1      58.350  49.036  66.005  0.00  0.00    +0.007 A 
ATOM     34  C   UNL     1      56.976  48.993  66.417  0.00  0.00    -0.029 A 
ATOM     35  C   UNL     1      56.360  50.258  67.060  0.00  0.00    +0.045 C 
ENDROOT
BRANCH  10   9
ATOM      4  C   UNL     1      51.542  48.474  65.451  0.00  0.00    +0.077 A 
ATOM      5  C   UNL     1      51.785  49.140  64.203  0.00  0.00    +0.048 A 
ATOM      6  C   UNL     1      53.130  49.282  63.795  0.00  0.00    +0.116 A 
ATOM      7  N   UNL     1      54.149  48.790  64.583  0.00  0.00    -0.223 NA
ATOM      8  C   UNL     1      53.880  48.155  65.781  0.00  0.00    +0.220 A 
ATOM      9  N   UNL     1      54.888  47.645  66.585  0.00  0.00    -0.283 N 
ATOM     36  H   UNL     1      54.648  47.190  67.465  0.00  0.00    +0.155 HD
ATOM     37  N   UNL     1      52.604  48.008  66.194  0.00  0.00    -0.214 NA
BRANCH   4   3
ATOM      1  C   UNL     1      47.745  47.601  65.800  0.00  0.00    +0.020 A 
ATOM      2  C   UNL     1      49.045  47.809  65.205  0.00  0.00    +0.013 A 
ATOM      3  C   UNL     1      50.175  48.244  66.016  0.00  0.00    +0.019 A 
ATOM     38  C   UNL     1      49.954  48.462  67.438  0.00  0.00    +0.120 A 
ATOM     39  N   UNL     1      48.691  48.255  67.983  0.00  0.00    -0.263 NA
ATOM     40  C   UNL     1      47.596  47.837  67.212  0.00  0.00    +0.111 A 
ENDBRANCH   4   3
ENDBRANCH  10   9
BRANCH  12  13
ATOM     13  N   UNL     1      58.933  45.575  64.560  0.00  0.00    -0.281 N 
ATOM     14  C   UNL     1      58.505  44.796  63.497  0.00  0.00    +0.248 C 
ATOM     30  O   UNL     1      57.365  44.795  63.057  0.00  0.00    -0.270 OA
ATOM     31  H   UNL     1      59.846  45.339  64.949  0.00  0.00    +0.155 HD
BRANCH  14  15
ATOM     15  C   UNL     1      59.480  43.876  62.837  0.00  0.00    +0.037 A 
ATOM     16  C   UNL     1      59.092  42.524  62.428  0.00  0.00    +0.013 A 
ATOM     17  C   UNL     1      60.057  41.650  61.809  0.00  0.00    +0.005 A 
ATOM     18  C   UNL     1      61.421  42.127  61.595  0.00  0.00    -0.033 A 
ATOM     28  C   UNL     1      61.778  43.475  62.006  0.00  0.00    +0.005 A 
ATOM     29  C   UNL     1      60.835  44.334  62.614  0.00  0.00    +0.013 A 
BRANCH  18  19
ATOM     19  C   UNL     1      62.522  41.256  60.961  0.00  0.00    +0.119 C 
BRANCH  19  20
ATOM     20  N   UNL     1      62.922  40.019  61.695  0.00  0.00    -0.302 NA
ATOM     21  C   UNL     1      63.140  40.281  63.187  0.00  0.00    +0.066 C 
ATOM     22  C   UNL     1      63.535  38.971  63.944  0.00  0.00    -0.064 C 
ATOM     23  N   UNL     1      64.795  38.380  63.308  0.00  0.00    +0.379 N 
ATOM     24  C   UNL     1      65.203  37.180  64.053  0.00  0.00    -0.096 C 
ATOM     25  H   UNL     1      65.610  39.134  63.408  0.00  0.00    -0.082 HD
ATOM     26  C   UNL     1      64.588  38.118  61.823  0.00  0.00    -0.064 C 
ATOM     27  C   UNL     1      64.166  39.420  61.086  0.00  0.00    +0.066 C 
ENDBRANCH  19  20
ENDBRANCH  18  19
ENDBRANCH  14  15
ENDBRANCH  12  13
TORSDOF 6
ENDMDL
MODEL 4
REMARK VINA RESULT:      -8.7     19.740     22.272
REMARK  Name = C:\Users\Docking\Desktop\test protocol\1iep_ligandH.pdb
REMARK  8 active torsions:
REMARK  status: ('A' for Active; 'I' for Inactive)
REMARK    1  A    between atoms: _5  and  _11
REMARK    2  A    between atoms: _19  and  _21
REMARK    3  A    between atoms: _22  and  _66
REMARK    4  A    between atoms: _27  and  _30
REMARK    5  A    between atoms: _32  and  _33
REMARK    6  A    between atoms: _38  and  _43
REMARK    7  A    between atoms: _43  and  _46
REMARK    8  A    between atoms: _53  and  _55
REMARK                            x       y       z     vdW  Elec       q    Type
REMARK                         _______ _______ _______ _____ _____    ______ ____
ROOT
ATOM     10  C   UNL     1      64.941  31.626  79.182  0.00  0.00    +0.038 A 
ATOM     11  C   UNL     1      64.630  32.086  80.487  0.00  0.00    +0.047 A 
ATOM     12  C   UNL     1      65.636  32.104  81.538  0.00  0.00    +0.035 A 
ATOM     32  C   UNL     1      66.949  31.649  81.224  0.00  0.00    +0.024 A 
ATOM     33  C   UNL     1      67.282  31.176  79.903  0.00  0.00    +0.007 A 
ATOM     34  C   UNL     1      66.294  31.154  78.863  0.00  0.00    -0.029 A 
ATOM     35  C   UNL     1      66.705  30.631  77.467  0.00  0.00    +0.045 C 
ENDROOT
BRANCH  10   9
ATOM      4  C   UNL     1      61.298  29.545  76.851  0.00  0.00    +0.077 A 
ATOM      5  C   UNL     1      61.423  28.336  77.613  0.00  0.00    +0.048 A 
ATOM      6  C   UNL     1      62.442  28.288  78.591  0.00  0.00    +0.116 A 
ATOM      7  N   UNL     1      63.269  29.374  78.783  0.00  0.00    -0.223 NA
ATOM      8  C   UNL     1      63.122  30.524  78.029  0.00  0.00    +0.220 A 
ATOM      9  N   UNL     1      63.937  31.631  78.211  0.00  0.00    -0.283 N 
ATOM     36  H   UNL     1      63.802  32.457  77.630  0.00  0.00    +0.155 HD
ATOM     37  N   UNL     1      62.158  30.594  77.089  0.00  0.00    -0.214 NA
BRANCH   4   3
ATOM      1  C   UNL     1      59.369  29.418  73.450  0.00  0.00    +0.020 A 
ATOM      2  C   UNL     1      60.393  29.191  74.444  0.00  0.00    +0.013 A 
ATOM      3  C   UNL     1      60.268  29.750  75.784  0.00  0.00    +0.019 A 
ATOM     38  C   UNL     1      59.085  30.540  76.089  0.00  0.00    +0.120 A 
ATOM     39  N   UNL     1      58.116  30.744  75.112  0.00  0.00    -0.263 NA
ATOM     40  C   UNL     1      58.226  30.212  73.818  0.00  0.00    +0.111 A 
ENDBRANCH   4   3
ENDBRANCH  10   9
BRANCH  12  13
ATOM     13  N   UNL     1      65.377  32.553  82.884  0.00  0.00    -0.281 N 
ATOM     14  C   UNL     1      65.766  33.744  83.474  0.00  0.00    +0.248 C 
ATOM     30  O   UNL     1      66.583  34.517  82.997  0.00  0.00    -0.270 OA
ATOM     31  H   UNL     1      64.841  31.915  83.473  0.00  0.00    +0.155 HD
BRANCH  14  15
ATOM     15  C   UNL     1      65.171  34.126  84.791  0.00  0.00    +0.037 A 
ATOM     16  C   UNL     1      65.930  33.988  86.036  0.00  0.00    +0.013 A 
ATOM     17  C   UNL     1      65.327  34.347  87.295  0.00  0.00    +0.005 A 
ATOM     18  C   UNL     1      63.955  34.849  87.314  0.00  0.00    -0.033 A 
ATOM     28  C   UNL     1      63.226  34.980  86.064  0.00  0.00    +0.005 A 
ATOM     29  C   UNL     1      63.814  34.629  84.828  0.00  0.00    +0.013 A 
BRANCH  18  19
ATOM     19  C   UNL     1      63.224  35.236  88.614  0.00  0.00    +0.119 C 
BRANCH  19  20
ATOM     20  N   UNL     1      64.067  35.638  89.779  0.00  0.00    -0.302 NA
ATOM     21  C   UNL     1      63.777  34.788  91.018  0.00  0.00    +0.066 C 
ATOM     22  C   UNL     1      64.684  35.207  92.221  0.00  0.00    -0.064 C 
ATOM     23  N   UNL     1      64.473  36.692  92.522  0.00  0.00    +0.379 N 
ATOM     24  C   UNL     1      65.281  37.076  93.689  0.00  0.00    -0.096 C 
ATOM     25  H   UNL     1      63.401  36.834  92.791  0.00  0.00    -0.082 HD
ATOM     26  C   UNL     1      64.757  37.545  91.293  0.00  0.00    -0.064 C 
ATOM     27  C   UNL     1      63.872  37.101  90.095  0.00  0.00    +0.066 C 
ENDBRANCH  19  20
ENDBRANCH  18  19
ENDBRANCH  14  15
ENDBRANCH  12  13
TORSDOF 6
ENDMDL
MODEL 5
REMARK VINA RESULT:      -8.7     20.943     23.664
REMARK  Name = C:\Users\Docking\Desktop\test protocol\1iep_ligandH.pdb
REMARK  8 active torsions:
REMARK  status: ('A' for Active; 'I' for Inactive)
REMARK    1  A    between atoms: _5  and  _11
REMARK    2  A    between atoms: _19  and  _21
REMARK    3  A    between atoms: _22  and  _66
REMARK    4  A    between atoms: _27  and  _30
REMARK    5  A    between atoms: _32  and  _33
REMARK    6  A    between atoms: _38  and  _43
REMARK    7  A    between atoms: _43  and  _46
REMARK    8  A    between atoms: _53  and  _55
REMARK                            x       y       z     vdW  Elec       q    Type
REMARK                         _______ _______ _______ _____ _____    ______ ____
ROOT
ATOM     10  C   UNL     1      80.618  32.407  63.130  0.00  0.00    +0.038 A 
ATOM     11  C   UNL     1      79.722  32.691  62.068  0.00  0.00    +0.047 A 
ATOM     12  C   UNL     1      79.450  31.709  61.030  0.00  0.00    +0.035 A 
ATOM     32  C   UNL     1      80.107  30.446  61.106  0.00  0.00    +0.024 A 
ATOM     33  C   UNL     1      81.021  30.141  62.178  0.00  0.00    +0.007 A 
ATOM     34  C   UNL     1      81.295  31.106  63.204  0.00  0.00    -0.029 A 
ATOM     35  C   UNL     1      82.289  30.727  64.326  0.00  0.00    +0.045 C 
ENDROOT
BRANCH  10   9
ATOM      4  C   UNL     1      79.843  34.334  67.457  0.00  0.00    +0.077 A 
ATOM      5  C   UNL     1      78.892  33.318  67.805  0.00  0.00    +0.048 A 
ATOM      6  C   UNL     1      78.624  32.322  66.839  0.00  0.00    +0.116 A 
ATOM      7  N   UNL     1      79.267  32.349  65.621  0.00  0.00    -0.223 NA
ATOM      8  C   UNL     1      80.178  33.344  65.317  0.00  0.00    +0.220 A 
ATOM      9  N   UNL     1      80.842  33.387  64.100  0.00  0.00    -0.283 N 
ATOM     36  H   UNL     1      81.501  34.141  63.912  0.00  0.00    +0.155 HD
ATOM     37  N   UNL     1      80.449  34.308  66.221  0.00  0.00    -0.214 NA
BRANCH   4   3
ATOM      1  C   UNL     1      81.941  36.945  69.477  0.00  0.00    +0.020 A 
ATOM      2  C   UNL     1      81.618  35.858  68.582  0.00  0.00    +0.013 A 
ATOM      3  C   UNL     1      80.234  35.452  68.373  0.00  0.00    +0.019 A 
ATOM     38  C   UNL     1      79.192  36.174  69.088  0.00  0.00    +0.120 A 
ATOM     39  N   UNL     1      79.534  37.217  69.944  0.00  0.00    -0.263 NA
ATOM     40  C   UNL     1      80.863  37.614  70.155  0.00  0.00    +0.111 A 
ENDBRANCH   4   3
ENDBRANCH  10   9
BRANCH  12  13
ATOM     13  N   UNL     1      78.557  31.944  59.922  0.00  0.00    -0.281 N 
ATOM     14  C   UNL     1      77.697  33.014  59.734  0.00  0.00    +0.248 C 
ATOM     30  O   UNL     1      77.408  33.828  60.598  0.00  0.00    -0.270 OA
ATOM     31  H   UNL     1      78.559  31.236  59.188  0.00  0.00    +0.155 HD
BRANCH  14  15
ATOM     15  C   UNL     1      77.054  33.196  58.398  0.00  0.00    +0.037 A 
ATOM     16  C   UNL     1      75.813  33.961  58.250  0.00  0.00    +0.013 A 
ATOM     17  C   UNL     1      75.204  34.108  56.951  0.00  0.00    +0.005 A 
ATOM     18  C   UNL     1      75.837  33.489  55.789  0.00  0.00    -0.033 A 
ATOM     28  C   UNL     1      77.071  32.740  55.964  0.00  0.00    +0.005 A 
ATOM     29  C   UNL     1      77.670  32.593  57.235  0.00  0.00    +0.013 A 
BRANCH  18  19
ATOM     19  C   UNL     1      75.247  33.576  54.370  0.00  0.00    +0.119 C 
BRANCH  19  20
ATOM     20  N   UNL     1      74.306  32.493  53.953  0.00  0.00    -0.302 NA
ATOM     21  C   UNL     1      75.046  31.232  53.498  0.00  0.00    +0.066 C 
ATOM     22  C   UNL     1      74.046  30.103  53.087  0.00  0.00    -0.064 C 
ATOM     23  N   UNL     1      73.124  30.619  51.981  0.00  0.00    +0.379 N 
ATOM     24  C   UNL     1      72.221  29.541  51.552  0.00  0.00    -0.096 C 
ATOM     25  H   UNL     1      73.763  30.892  51.109  0.00  0.00    -0.082 HD
ATOM     26  C   UNL     1      72.386  31.874  52.424  0.00  0.00    -0.064 C 
ATOM     27  C   UNL     1      73.389  32.980  52.858  0.00  0.00    +0.066 C 
ENDBRANCH  19  20
ENDBRANCH  18  19
ENDBRANCH  14  15
ENDBRANCH  12  13
TORSDOF 6
ENDMDL
