MODEL 1
REMARK VINA RESULT:      -9.9      0.000      0.000
REMARK  Name = C:\Users\Docking\Desktop\test protocol\1iep_ligandH.pdb
REMARK  8 active torsions:
REMARK  status: ('A' for Active; 'I' for Inactive)
REMARK    1  A    between atoms: _5  and  _11
REMARK    2  A    between atoms: _19  and  _21
REMARK    3  A    between atoms: _22  and  _66
REMARK    4  A    between atoms: _27  and  _30
REMARK    5  A    between atoms: _32  and  _33
REMARK    6  A    between atoms: _38  and  _43
REMARK    7  A    between atoms: _43  and  _46
REMARK    8  A    between atoms: _53  and  _55
REMARK                            x       y       z     vdW  Elec       q    Type
REMARK                         _______ _______ _______ _____ _____    ______ ____
ROOT
ATOM     10  C   UNL     1      37.967  34.997  23.239  0.00  0.00    +0.038 A 
ATOM     11  C   UNL     1      38.681  34.117  22.386  0.00  0.00    +0.047 A 
ATOM     12  C   UNL     1      39.815  33.349  22.876  0.00  0.00    +0.035 A 
ATOM     32  C   UNL     1      40.193  33.499  24.242  0.00  0.00    +0.024 A 
ATOM     33  C   UNL     1      39.479  34.390  25.123  0.00  0.00    +0.007 A 
ATOM     34  C   UNL     1      38.361  35.151  24.645  0.00  0.00    -0.029 A 
ATOM     35  C   UNL     1      37.636  36.095  25.632  0.00  0.00    +0.045 C 
ENDROOT
BRANCH  10   9
ATOM      4  C   UNL     1      33.870  35.250  20.752  0.00  0.00    +0.077 A 
ATOM      5  C   UNL     1      33.899  33.849  20.446  0.00  0.00    +0.048 A 
ATOM      6  C   UNL     1      34.990  33.100  20.942  0.00  0.00    +0.116 A 
ATOM      7  N   UNL     1      35.972  33.716  21.687  0.00  0.00    -0.223 NA
ATOM      8  C   UNL     1      35.914  35.070  21.962  0.00  0.00    +0.220 A 
ATOM      9  N   UNL     1      36.886  35.709  22.716  0.00  0.00    -0.283 N 
ATOM     36  H   UNL     1      36.810  36.711  22.891  0.00  0.00    +0.155 HD
ATOM     37  N   UNL     1      34.883  35.808  21.499  0.00  0.00    -0.214 NA
BRANCH   4   3
ATOM      1  C   UNL     1      30.420  36.651  19.551  0.00  0.00    +0.020 A 
ATOM      2  C   UNL     1      31.435  35.717  19.981  0.00  0.00    +0.013 A 
ATOM      3  C   UNL     1      32.781  36.175  20.302  0.00  0.00    +0.019 A 
ATOM     38  C   UNL     1      33.069  37.596  20.178  0.00  0.00    +0.120 A 
ATOM     39  N   UNL     1      32.072  38.472  19.761  0.00  0.00    -0.263 NA
ATOM     40  C   UNL     1      30.774  38.042  19.447  0.00  0.00    +0.111 A 
ENDBRANCH   4   3
ENDBRANCH  10   9
BRANCH  12  13
ATOM     13  N   UNL     1      40.583  32.447  22.054  0.00  0.00    -0.281 N 
ATOM     14  C   UNL     1      41.911  32.561  21.676  0.00  0.00    +0.248 C 
ATOM     30  O   UNL     1      42.585  33.572  21.813  0.00  0.00    -0.270 OA
ATOM     31  H   UNL     1      40.088  31.625  21.709  0.00  0.00    +0.155 HD
BRANCH  14  15
ATOM     15  C   UNL     1      42.585  31.387  21.042  0.00  0.00    +0.037 A 
ATOM     16  C   UNL     1      43.949  31.486  20.516  0.00  0.00    +0.013 A 
ATOM     17  C   UNL     1      44.568  30.343  19.893  0.00  0.00    +0.005 A 
ATOM     18  C   UNL     1      43.824  29.090  19.795  0.00  0.00    -0.033 A 
ATOM     28  C   UNL     1      42.475  29.018  20.330  0.00  0.00    +0.005 A 
ATOM     29  C   UNL     1      41.863  30.136  20.940  0.00  0.00    +0.013 A 
BRANCH  18  19
ATOM     19  C   UNL     1      44.399  27.826  19.128  0.00  0.00    +0.119 C 
BRANCH  19  20
ATOM     20  N   UNL     1      43.495  27.063  18.217  0.00  0.00    -0.302 NA
ATOM     21  C   UNL     1      43.910  25.594  18.094  0.00  0.00    +0.066 C 
ATOM     22  C   UNL     1      42.940  24.805  17.155  0.00  0.00    -0.064 C 
ATOM     23  N   UNL     1      42.908  25.475  15.781  0.00  0.00    +0.379 N 
ATOM     24  C   UNL     1      42.043  24.702  14.878  0.00  0.00    -0.096 C 
ATOM     25  H   UNL     1      43.943  25.445  15.366  0.00  0.00    -0.082 HD
ATOM     26  C   UNL     1      42.499  26.937  15.894  0.00  0.00    -0.064 C 
ATOM     27  C   UNL     1      43.451  27.705  16.852  0.00  0.00    +0.066 C 
ENDBRANCH  19  20
ENDBRANCH  18  19
ENDBRANCH  14  15
ENDBRANCH  12  13
TORSDOF 6
ENDMDL
MODEL 2
REMARK VINA RESULT:      -9.4      3.635      7.224
REMARK  Name = C:\Users\Docking\Desktop\test protocol\1iep_ligandH.pdb
REMARK  8 active torsions:
REMARK  status: ('A' for Active; 'I' for Inactive)
REMARK    1  A    between atoms: _5  and  _11
REMARK    2  A    between atoms: _19  and  _21
REMARK    3  A    between atoms: _22  and  _66
REMARK    4  A    between atoms: _27  and  _30
REMARK    5  A    between atoms: _32  and  _33
REMARK    6  A    between atoms: _38  and  _43
REMARK    7  A    between atoms: _43  and  _46
REMARK    8  A    between atoms: _53  and  _55
REMARK                            x       y       z     vdW  Elec       q    Type
REMARK                         _______ _______ _______ _____ _____    ______ ____
ROOT
ATOM     10  C   UNL     1      32.662  37.303  19.277  0.00  0.00    +0.038 A 
ATOM     11  C   UNL     1      33.885  36.612  19.477  0.00  0.00    +0.047 A 
ATOM     12  C   UNL     1      33.904  35.251  19.990  0.00  0.00    +0.035 A 
ATOM     32  C   UNL     1      32.659  34.622  20.286  0.00  0.00    +0.024 A 
ATOM     33  C   UNL     1      31.408  35.310  20.089  0.00  0.00    +0.007 A 
ATOM     34  C   UNL     1      31.382  36.654  19.586  0.00  0.00    -0.029 A 
ATOM     35  C   UNL     1      30.012  37.346  19.401  0.00  0.00    +0.045 C 
ENDROOT
BRANCH  10   9
ATOM      4  C   UNL     1      32.611  42.064  19.885  0.00  0.00    +0.077 A 
ATOM      5  C   UNL     1      32.466  41.940  21.307  0.00  0.00    +0.048 A 
ATOM      6  C   UNL     1      32.401  40.633  21.841  0.00  0.00    +0.116 A 
ATOM      7  N   UNL     1      32.477  39.539  21.006  0.00  0.00    -0.223 NA
ATOM      8  C   UNL     1      32.616  39.694  19.639  0.00  0.00    +0.220 A 
ATOM      9  N   UNL     1      32.702  38.608  18.782  0.00  0.00    -0.283 N 
ATOM     36  H   UNL     1      32.796  38.764  17.779  0.00  0.00    +0.155 HD
ATOM     37  N   UNL     1      32.678  40.931  19.105  0.00  0.00    -0.214 NA
BRANCH   4   3
ATOM      1  C   UNL     1      31.902  45.045  17.455  0.00  0.00    +0.020 A 
ATOM      2  C   UNL     1      31.775  43.765  18.113  0.00  0.00    +0.013 A 
ATOM      3  C   UNL     1      32.698  43.377  19.172  0.00  0.00    +0.019 A 
ATOM     38  C   UNL     1      33.745  44.315  19.545  0.00  0.00    +0.120 A 
ATOM     39  N   UNL     1      33.844  45.540  18.894  0.00  0.00    -0.263 NA
ATOM     40  C   UNL     1      32.963  45.924  17.872  0.00  0.00    +0.111 A 
ENDBRANCH   4   3
ENDBRANCH  10   9
BRANCH  12  13
ATOM     13  N   UNL     1      35.114  34.502  20.221  0.00  0.00    -0.281 N 
ATOM     14  C   UNL     1      35.823  34.373  21.405  0.00  0.00    +0.248 C 
ATOM     30  O   UNL     1      35.640  35.061  22.398  0.00  0.00    -0.270 OA
ATOM     31  H   UNL     1      35.495  34.006  19.415  0.00  0.00    +0.155 HD
BRANCH  14  15
ATOM     15  C   UNL     1      36.902  33.342  21.492  0.00  0.00    +0.037 A 
ATOM     16  C   UNL     1      36.767  32.044  20.827  0.00  0.00    +0.013 A 
ATOM     17  C   UNL     1      37.815  31.060  20.941  0.00  0.00    +0.005 A 
ATOM     18  C   UNL     1      39.008  31.373  21.724  0.00  0.00    -0.033 A 
ATOM     28  C   UNL     1      39.118  32.671  22.369  0.00  0.00    +0.005 A 
ATOM     29  C   UNL     1      38.092  33.637  22.260  0.00  0.00    +0.013 A 
BRANCH  18  19
ATOM     19  C   UNL     1      40.166  30.377  21.918  0.00  0.00    +0.119 C 
BRANCH  19  20
ATOM     20  N   UNL     1      41.537  30.841  21.550  0.00  0.00    -0.302 NA
ATOM     21  C   UNL     1      42.195  29.926  20.514  0.00  0.00    +0.066 C 
ATOM     22  C   UNL     1      43.620  30.439  20.124  0.00  0.00    -0.064 C 
ATOM     23  N   UNL     1      44.484  30.543  21.383  0.00  0.00    +0.379 N 
ATOM     24  C   UNL     1      45.841  30.970  21.012  0.00  0.00    -0.096 C 
ATOM     25  H   UNL     1      44.559  29.523  21.826  0.00  0.00    -0.082 HD
ATOM     26  C   UNL     1      43.835  31.449  22.419  0.00  0.00    -0.064 C 
ATOM     27  C   UNL     1      42.408  30.947  22.777  0.00  0.00    +0.066 C 
ENDBRANCH  19  20
ENDBRANCH  18  19
ENDBRANCH  14  15
ENDBRANCH  12  13
TORSDOF 6
ENDMDL
MODEL 3
REMARK VINA RESULT:      -9.0      1.105      1.568
REMARK  Name = C:\Users\Docking\Desktop\test protocol\1iep_ligandH.pdb
REMARK  8 active torsions:
REMARK  status: ('A' for Active; 'I' for Inactive)
REMARK    1  A    between atoms: _5  and  _11
REMARK    2  A    between atoms: _19  and  _21
REMARK    3  A    between atoms: _22  and  _66
REMARK    4  A    between atoms: _27  and  _30
REMARK    5  A    between atoms: _32  and  _33
REMARK    6  A    between atoms: _38  and  _43
REMARK    7  A    between atoms: _43  and  _46
REMARK    8  A    between atoms: _53  and  _55
REMARK                            x       y       z     vdW  Elec       q    Type
REMARK                         _______ _______ _______ _____ _____    ______ ____
ROOT
ATOM     10  C   UNL     1      37.926  35.095  23.329  0.00  0.00    +0.038 A 
ATOM     11  C   UNL     1      38.649  34.229  22.469  0.00  0.00    +0.047 A 
ATOM     12  C   UNL     1      39.801  33.481  22.948  0.00  0.00    +0.035 A 
ATOM     32  C   UNL     1      40.188  33.637  24.311  0.00  0.00    +0.024 A 
ATOM     33  C   UNL     1      39.465  34.513  25.199  0.00  0.00    +0.007 A 
ATOM     34  C   UNL     1      38.329  35.255  24.732  0.00  0.00    -0.029 A 
ATOM     35  C   UNL     1      37.596  36.184  25.727  0.00  0.00    +0.045 C 
ENDROOT
BRANCH  10   9
ATOM      4  C   UNL     1      33.861  35.299  20.786  0.00  0.00    +0.077 A 
ATOM      5  C   UNL     1      33.946  33.913  20.426  0.00  0.00    +0.048 A 
ATOM      6  C   UNL     1      35.056  33.185  20.911  0.00  0.00    +0.116 A 
ATOM      7  N   UNL     1      36.003  33.806  21.695  0.00  0.00    -0.223 NA
ATOM      8  C   UNL     1      35.891  35.145  22.022  0.00  0.00    +0.220 A 
ATOM      9  N   UNL     1      36.828  35.788  22.816  0.00  0.00    -0.283 N 
ATOM     36  H   UNL     1      36.714  36.779  23.028  0.00  0.00    +0.155 HD
ATOM     37  N   UNL     1      34.842  35.863  21.571  0.00  0.00    -0.214 NA
BRANCH   4   3
ATOM      1  C   UNL     1      31.772  38.477  19.869  0.00  0.00    +0.020 A 
ATOM      2  C   UNL     1      32.879  37.651  20.294  0.00  0.00    +0.013 A 
ATOM      3  C   UNL     1      32.747  36.201  20.354  0.00  0.00    +0.019 A 
ATOM     38  C   UNL     1      31.471  35.613  19.975  0.00  0.00    +0.120 A 
ATOM     39  N   UNL     1      30.422  36.434  19.572  0.00  0.00    -0.263 NA
ATOM     40  C   UNL     1      30.537  37.831  19.511  0.00  0.00    +0.111 A 
ENDBRANCH   4   3
ENDBRANCH  10   9
BRANCH  12  13
ATOM     13  N   UNL     1      40.578  32.594  22.119  0.00  0.00    -0.281 N 
ATOM     14  C   UNL     1      41.909  32.718  21.753  0.00  0.00    +0.248 C 
ATOM     30  O   UNL     1      42.577  33.729  21.910  0.00  0.00    -0.270 OA
ATOM     31  H   UNL     1      40.088  31.776  21.758  0.00  0.00    +0.155 HD
BRANCH  14  15
ATOM     15  C   UNL     1      42.590  31.556  21.106  0.00  0.00    +0.037 A 
ATOM     16  C   UNL     1      43.946  31.676  20.562  0.00  0.00    +0.013 A 
ATOM     17  C   UNL     1      44.574  30.544  19.928  0.00  0.00    +0.005 A 
ATOM     18  C   UNL     1      43.847  29.281  19.836  0.00  0.00    -0.033 A 
ATOM     28  C   UNL     1      42.505  29.188  20.388  0.00  0.00    +0.005 A 
ATOM     29  C   UNL     1      41.886  30.295  21.009  0.00  0.00    +0.013 A 
BRANCH  18  19
ATOM     19  C   UNL     1      44.431  28.027  19.157  0.00  0.00    +0.119 C 
BRANCH  19  20
ATOM     20  N   UNL     1      43.677  26.749  19.318  0.00  0.00    -0.302 NA
ATOM     21  C   UNL     1      44.449  25.729  20.160  0.00  0.00    +0.066 C 
ATOM     22  C   UNL     1      43.636  24.405  20.337  0.00  0.00    -0.064 C 
ATOM     23  N   UNL     1      43.300  23.828  18.961  0.00  0.00    +0.379 N 
ATOM     24  C   UNL     1      42.586  22.553  19.125  0.00  0.00    -0.096 C 
ATOM     25  H   UNL     1      44.262  23.612  18.441  0.00  0.00    -0.082 HD
ATOM     26  C   UNL     1      42.535  24.837  18.116  0.00  0.00    -0.064 C 
ATOM     27  C   UNL     1      43.339  26.159  17.971  0.00  0.00    +0.066 C 
ENDBRANCH  19  20
ENDBRANCH  18  19
ENDBRANCH  14  15
ENDBRANCH  12  13
TORSDOF 6
ENDMDL
MODEL 4
REMARK VINA RESULT:      -8.9      1.812      2.535
REMARK  Name = C:\Users\Docking\Desktop\test protocol\1iep_ligandH.pdb
REMARK  8 active torsions:
REMARK  status: ('A' for Active; 'I' for Inactive)
REMARK    1  A    between atoms: _5  and  _11
REMARK    2  A    between atoms: _19  and  _21
REMARK    3  A    between atoms: _22  and  _66
REMARK    4  A    between atoms: _27  and  _30
REMARK    5  A    between atoms: _32  and  _33
REMARK    6  A    between atoms: _38  and  _43
REMARK    7  A    between atoms: _43  and  _46
REMARK    8  A    between atoms: _53  and  _55
REMARK                            x       y       z     vdW  Elec       q    Type
REMARK                         _______ _______ _______ _____ _____    ______ ____
ROOT
ATOM     10  C   UNL     1      38.503  35.131  23.688  0.00  0.00    +0.038 A 
ATOM     11  C   UNL     1      39.106  34.222  22.782  0.00  0.00    +0.047 A 
ATOM     12  C   UNL     1      40.360  33.559  23.103  0.00  0.00    +0.035 A 
ATOM     32  C   UNL     1      40.972  33.843  24.359  0.00  0.00    +0.024 A 
ATOM     33  C   UNL     1      40.373  34.764  25.292  0.00  0.00    +0.007 A 
ATOM     34  C   UNL     1      39.137  35.423  24.979  0.00  0.00    -0.029 A 
ATOM     35  C   UNL     1      38.545  36.407  26.015  0.00  0.00    +0.045 C 
ENDROOT
BRANCH  10   9
ATOM      4  C   UNL     1      35.990  38.780  21.843  0.00  0.00    +0.077 A 
ATOM      5  C   UNL     1      37.175  39.551  21.600  0.00  0.00    +0.048 A 
ATOM      6  C   UNL     1      38.411  38.975  21.972  0.00  0.00    +0.116 A 
ATOM      7  N   UNL     1      38.447  37.721  22.542  0.00  0.00    -0.223 NA
ATOM      8  C   UNL     1      37.285  37.005  22.764  0.00  0.00    +0.220 A 
ATOM      9  N   UNL     1      37.298  35.739  23.328  0.00  0.00    -0.283 N 
ATOM     36  H   UNL     1      36.419  35.246  23.483  0.00  0.00    +0.155 HD
ATOM     37  N   UNL     1      36.092  37.533  22.419  0.00  0.00    -0.214 NA
BRANCH   4   3
ATOM      1  C   UNL     1      32.800  41.007  21.432  0.00  0.00    +0.020 A 
ATOM      2  C   UNL     1      34.143  40.603  21.781  0.00  0.00    +0.013 A 
ATOM      3  C   UNL     1      34.610  39.250  21.503  0.00  0.00    +0.019 A 
ATOM     38  C   UNL     1      33.686  38.324  20.865  0.00  0.00    +0.120 A 
ATOM     39  N   UNL     1      32.399  38.741  20.542  0.00  0.00    -0.263 NA
ATOM     40  C   UNL     1      31.938  40.039  20.806  0.00  0.00    +0.111 A 
ENDBRANCH   4   3
ENDBRANCH  10   9
BRANCH  12  13
ATOM     13  N   UNL     1      41.024  32.633  22.219  0.00  0.00    -0.281 N 
ATOM     14  C   UNL     1      42.280  32.753  21.647  0.00  0.00    +0.248 C 
ATOM     30  O   UNL     1      42.941  33.780  21.640  0.00  0.00    -0.270 OA
ATOM     31  H   UNL     1      40.504  31.787  21.986  0.00  0.00    +0.155 HD
BRANCH  14  15
ATOM     15  C   UNL     1      42.883  31.562  20.974  0.00  0.00    +0.037 A 
ATOM     16  C   UNL     1      44.243  31.605  20.430  0.00  0.00    +0.013 A 
ATOM     17  C   UNL     1      44.794  30.448  19.770  0.00  0.00    +0.005 A 
ATOM     18  C   UNL     1      43.985  29.237  19.652  0.00  0.00    -0.033 A 
ATOM     28  C   UNL     1      42.641  29.221  20.205  0.00  0.00    +0.005 A 
ATOM     29  C   UNL     1      42.097  30.353  20.851  0.00  0.00    +0.013 A 
BRANCH  18  19
ATOM     19  C   UNL     1      44.484  27.963  18.945  0.00  0.00    +0.119 C 
BRANCH  19  20
ATOM     20  N   UNL     1      43.511  27.238  18.076  0.00  0.00    -0.302 NA
ATOM     21  C   UNL     1      43.853  25.751  17.947  0.00  0.00    +0.066 C 
ATOM     22  C   UNL     1      42.812  25.002  17.052  0.00  0.00    -0.064 C 
ATOM     23  N   UNL     1      42.756  25.666  15.675  0.00  0.00    +0.379 N 
ATOM     24  C   UNL     1      41.821  24.929  14.813  0.00  0.00    -0.096 C 
ATOM     25  H   UNL     1      43.771  25.586  15.220  0.00  0.00    -0.082 HD
ATOM     26  C   UNL     1      42.419  27.146  15.794  0.00  0.00    -0.064 C 
ATOM     27  C   UNL     1      43.443  27.874  16.709  0.00  0.00    +0.066 C 
ENDBRANCH  19  20
ENDBRANCH  18  19
ENDBRANCH  14  15
ENDBRANCH  12  13
TORSDOF 6
ENDMDL
MODEL 5
REMARK VINA RESULT:      -8.8      4.025      7.666
REMARK  Name = C:\Users\Docking\Desktop\test protocol\1iep_ligandH.pdb
REMARK  8 active torsions:
REMARK  status: ('A' for Active; 'I' for Inactive)
REMARK    1  A    between atoms: _5  and  _11
REMARK    2  A    between atoms: _19  and  _21
REMARK    3  A    between atoms: _22  and  _66
REMARK    4  A    between atoms: _27  and  _30
REMARK    5  A    between atoms: _32  and  _33
REMARK    6  A    between atoms: _38  and  _43
REMARK    7  A    between atoms: _43  and  _46
REMARK    8  A    between atoms: _53  and  _55
REMARK                            x       y       z     vdW  Elec       q    Type
REMARK                         _______ _______ _______ _____ _____    ______ ____
ROOT
ATOM     10  C   UNL     1      32.522  37.404  19.271  0.00  0.00    +0.038 A 
ATOM     11  C   UNL     1      33.764  36.759  19.504  0.00  0.00    +0.047 A 
ATOM     12  C   UNL     1      33.821  35.402  20.026  0.00  0.00    +0.035 A 
ATOM     32  C   UNL     1      32.593  34.730  20.297  0.00  0.00    +0.024 A 
ATOM     33  C   UNL     1      31.323  35.371  20.067  0.00  0.00    +0.007 A 
ATOM     34  C   UNL     1      31.260  36.710  19.555  0.00  0.00    -0.029 A 
ATOM     35  C   UNL     1      29.870  37.350  19.335  0.00  0.00    +0.045 C 
ENDROOT
BRANCH  10   9
ATOM      4  C   UNL     1      32.541  42.167  19.862  0.00  0.00    +0.077 A 
ATOM      5  C   UNL     1      32.513  42.049  21.291  0.00  0.00    +0.048 A 
ATOM      6  C   UNL     1      32.488  40.745  21.835  0.00  0.00    +0.116 A 
ATOM      7  N   UNL     1      32.490  39.648  21.001  0.00  0.00    -0.223 NA
ATOM      8  C   UNL     1      32.515  39.797  19.626  0.00  0.00    +0.220 A 
ATOM      9  N   UNL     1      32.526  38.707  18.769  0.00  0.00    -0.283 N 
ATOM     36  H   UNL     1      32.537  38.859  17.761  0.00  0.00    +0.155 HD
ATOM     37  N   UNL     1      32.538  41.031  19.083  0.00  0.00    -0.214 NA
BRANCH   4   3
ATOM      1  C   UNL     1      33.464  45.809  18.772  0.00  0.00    +0.020 A 
ATOM      2  C   UNL     1      33.473  44.563  19.505  0.00  0.00    +0.013 A 
ATOM      3  C   UNL     1      32.573  43.477  19.138  0.00  0.00    +0.019 A 
ATOM     38  C   UNL     1      31.670  43.684  18.015  0.00  0.00    +0.120 A 
ATOM     39  N   UNL     1      31.683  44.895  17.329  0.00  0.00    -0.263 NA
ATOM     40  C   UNL     1      32.544  45.948  17.675  0.00  0.00    +0.111 A 
ENDBRANCH   4   3
ENDBRANCH  10   9
BRANCH  12  13
ATOM     13  N   UNL     1      35.052  34.699  20.290  0.00  0.00    -0.281 N 
ATOM     14  C   UNL     1      35.653  34.465  21.516  0.00  0.00    +0.248 C 
ATOM     30  O   UNL     1      35.330  35.012  22.559  0.00  0.00    -0.270 OA
ATOM     31  H   UNL     1      35.540  34.330  19.473  0.00  0.00    +0.155 HD
BRANCH  14  15
ATOM     15  C   UNL     1      36.786  33.493  21.590  0.00  0.00    +0.037 A 
ATOM     16  C   UNL     1      38.036  33.834  22.273  0.00  0.00    +0.013 A 
ATOM     17  C   UNL     1      39.120  32.884  22.316  0.00  0.00    +0.005 A 
ATOM     18  C   UNL     1      38.956  31.582  21.674  0.00  0.00    -0.033 A 
ATOM     28  C   UNL     1      37.703  31.267  21.008  0.00  0.00    +0.005 A 
ATOM     29  C   UNL     1      36.639  32.196  20.964  0.00  0.00    +0.013 A 
BRANCH  18  19
ATOM     19  C   UNL     1      40.066  30.515  21.652  0.00  0.00    +0.119 C 
BRANCH  19  20
ATOM     20  N   UNL     1      40.868  30.336  22.899  0.00  0.00    -0.302 NA
ATOM     21  C   UNL     1      42.090  29.441  22.674  0.00  0.00    +0.066 C 
ATOM     22  C   UNL     1      42.929  29.283  23.983  0.00  0.00    -0.064 C 
ATOM     23  N   UNL     1      42.040  28.717  25.091  0.00  0.00    +0.379 N 
ATOM     24  C   UNL     1      42.841  28.513  26.307  0.00  0.00    -0.096 C 
ATOM     25  H   UNL     1      41.675  27.719  24.755  0.00  0.00    -0.082 HD
ATOM     26  C   UNL     1      40.821  29.600  25.320  0.00  0.00    -0.064 C 
ATOM     27  C   UNL     1      40.010  29.774  24.006  0.00  0.00    +0.066 C 
ENDBRANCH  19  20
ENDBRANCH  18  19
ENDBRANCH  14  15
ENDBRANCH  12  13
TORSDOF 6
ENDMDL
