MODEL 1
REMARK VINA RESULT:      -9.1      0.000      0.000
REMARK  Name = C:\Users\Docking\Desktop\test protocol\1iep_ligandH.pdb
REMARK  8 active torsions:
REMARK  status: ('A' for Active; 'I' for Inactive)
REMARK    1  A    between atoms: _5  and  _11
REMARK    2  A    between atoms: _19  and  _21
REMARK    3  A    between atoms: _22  and  _66
REMARK    4  A    between atoms: _27  and  _30
REMARK    5  A    between atoms: _32  and  _33
REMARK    6  A    between atoms: _38  and  _43
REMARK    7  A    between atoms: _43  and  _46
REMARK    8  A    between atoms: _53  and  _55
REMARK                            x       y       z     vdW  Elec       q    Type
REMARK                         _______ _______ _______ _____ _____    ______ ____
ROOT
ATOM     10  C   UNL     1     -21.019 -52.269  38.810  0.00  0.00    +0.038 A 
ATOM     11  C   UNL     1     -20.250 -52.671  39.932  0.00  0.00    +0.047 A 
ATOM     12  C   UNL     1     -19.465 -53.896  39.907  0.00  0.00    +0.035 A 
ATOM     32  C   UNL     1     -19.484 -54.686  38.720  0.00  0.00    +0.024 A 
ATOM     33  C   UNL     1     -20.261 -54.292  37.571  0.00  0.00    +0.007 A 
ATOM     34  C   UNL     1     -21.039 -53.087  37.591  0.00  0.00    -0.029 A 
ATOM     35  C   UNL     1     -21.857 -52.717  36.332  0.00  0.00    +0.045 C 
ENDROOT
BRANCH  10   9
ATOM      4  C   UNL     1     -24.980 -49.813  39.956  0.00  0.00    +0.077 A 
ATOM      5  C   UNL     1     -25.653 -50.996  40.411  0.00  0.00    +0.048 A 
ATOM      6  C   UNL     1     -24.947 -52.217  40.326  0.00  0.00    +0.116 A 
ATOM      7  N   UNL     1     -23.665 -52.242  39.823  0.00  0.00    -0.223 NA
ATOM      8  C   UNL     1     -23.045 -51.083  39.391  0.00  0.00    +0.220 A 
ATOM      9  N   UNL     1     -21.753 -51.084  38.889  0.00  0.00    -0.283 N 
ATOM     36  H   UNL     1     -21.334 -50.209  38.574  0.00  0.00    +0.155 HD
ATOM     37  N   UNL     1     -23.699 -49.905  39.460  0.00  0.00    -0.214 NA
BRANCH   4   3
ATOM      1  C   UNL     1     -26.240 -46.312  41.160  0.00  0.00    +0.020 A 
ATOM      2  C   UNL     1     -25.638 -47.624  41.186  0.00  0.00    +0.013 A 
ATOM      3  C   UNL     1     -25.593 -48.448  39.985  0.00  0.00    +0.019 A 
ATOM     38  C   UNL     1     -26.170 -47.909  38.763  0.00  0.00    +0.120 A 
ATOM     39  N   UNL     1     -26.746 -46.642  38.768  0.00  0.00    -0.263 NA
ATOM     40  C   UNL     1     -26.796 -45.841  39.919  0.00  0.00    +0.111 A 
ENDBRANCH   4   3
ENDBRANCH  10   9
BRANCH  12  13
ATOM     13  N   UNL     1     -18.672 -54.359  41.018  0.00  0.00    -0.281 N 
ATOM     14  C   UNL     1     -17.800 -55.435  41.052  0.00  0.00    +0.248 C 
ATOM     30  O   UNL     1     -17.731 -56.296  40.188  0.00  0.00    -0.270 OA
ATOM     31  H   UNL     1     -18.765 -53.830  41.885  0.00  0.00    +0.155 HD
BRANCH  14  15
ATOM     15  C   UNL     1     -16.883 -55.584  42.223  0.00  0.00    +0.037 A 
ATOM     16  C   UNL     1     -17.380 -56.031  43.526  0.00  0.00    +0.013 A 
ATOM     17  C   UNL     1     -16.476 -56.150  44.643  0.00  0.00    +0.005 A 
ATOM     18  C   UNL     1     -15.065 -55.822  44.460  0.00  0.00    -0.033 A 
ATOM     28  C   UNL     1     -14.597 -55.385  43.155  0.00  0.00    +0.005 A 
ATOM     29  C   UNL     1     -15.480 -55.266  42.058  0.00  0.00    +0.013 A 
BRANCH  18  19
ATOM     19  C   UNL     1     -14.033 -55.899  45.601  0.00  0.00    +0.119 C 
BRANCH  19  20
ATOM     20  N   UNL     1     -12.595 -56.019  45.217  0.00  0.00    -0.302 NA
ATOM     21  C   UNL     1     -12.115 -57.473  45.237  0.00  0.00    +0.066 C 
ATOM     22  C   UNL     1     -10.615 -57.582  44.810  0.00  0.00    -0.064 C 
ATOM     23  N   UNL     1      -9.759 -56.716  45.736  0.00  0.00    +0.379 N 
ATOM     24  C   UNL     1      -8.342 -56.862  45.374  0.00  0.00    -0.096 C 
ATOM     25  H   UNL     1      -9.885 -57.104  46.774  0.00  0.00    -0.082 HD
ATOM     26  C   UNL     1     -10.232 -55.269  45.724  0.00  0.00    -0.064 C 
ATOM     27  C   UNL     1     -11.732 -55.175  46.121  0.00  0.00    +0.066 C 
ENDBRANCH  19  20
ENDBRANCH  18  19
ENDBRANCH  14  15
ENDBRANCH  12  13
TORSDOF 6
ENDMDL
MODEL 2
REMARK VINA RESULT:      -9.0      4.480     14.255
REMARK  Name = C:\Users\Docking\Desktop\test protocol\1iep_ligandH.pdb
REMARK  8 active torsions:
REMARK  status: ('A' for Active; 'I' for Inactive)
REMARK    1  A    between atoms: _5  and  _11
REMARK    2  A    between atoms: _19  and  _21
REMARK    3  A    between atoms: _22  and  _66
REMARK    4  A    between atoms: _27  and  _30
REMARK    5  A    between atoms: _32  and  _33
REMARK    6  A    between atoms: _38  and  _43
REMARK    7  A    between atoms: _43  and  _46
REMARK    8  A    between atoms: _53  and  _55
REMARK                            x       y       z     vdW  Elec       q    Type
REMARK                         _______ _______ _______ _____ _____    ______ ____
ROOT
ATOM     10  C   UNL     1     -23.100 -54.714  40.044  0.00  0.00    +0.038 A 
ATOM     11  C   UNL     1     -23.332 -53.444  39.457  0.00  0.00    +0.047 A 
ATOM     12  C   UNL     1     -24.474 -53.214  38.585  0.00  0.00    +0.035 A 
ATOM     32  C   UNL     1     -25.362 -54.300  38.336  0.00  0.00    +0.024 A 
ATOM     33  C   UNL     1     -25.142 -55.598  38.924  0.00  0.00    +0.007 A 
ATOM     34  C   UNL     1     -24.015 -55.831  39.782  0.00  0.00    -0.029 A 
ATOM     35  C   UNL     1     -23.825 -57.245  40.380  0.00  0.00    +0.045 C 
ENDROOT
BRANCH  10   9
ATOM      4  C   UNL     1     -18.383 -55.265  40.737  0.00  0.00    +0.077 A 
ATOM      5  C   UNL     1     -18.115 -55.252  39.328  0.00  0.00    +0.048 A 
ATOM      6  C   UNL     1     -19.219 -55.108  38.458  0.00  0.00    +0.116 A 
ATOM      7  N   UNL     1     -20.492 -54.987  38.971  0.00  0.00    -0.223 NA
ATOM      8  C   UNL     1     -20.717 -55.006  40.335  0.00  0.00    +0.220 A 
ATOM      9  N   UNL     1     -21.988 -54.878  40.873  0.00  0.00    -0.283 N 
ATOM     36  H   UNL     1     -22.113 -54.904  41.885  0.00  0.00    +0.155 HD
ATOM     37  N   UNL     1     -19.679 -55.143  41.187  0.00  0.00    -0.214 NA
BRANCH   4   3
ATOM      1  C   UNL     1     -14.913 -55.566  42.517  0.00  0.00    +0.020 A 
ATOM      2  C   UNL     1     -15.898 -55.428  41.469  0.00  0.00    +0.013 A 
ATOM      3  C   UNL     1     -17.321 -55.406  41.783  0.00  0.00    +0.019 A 
ATOM     38  C   UNL     1     -17.717 -55.526  43.178  0.00  0.00    +0.120 A 
ATOM     39  N   UNL     1     -16.746 -55.659  44.166  0.00  0.00    -0.263 NA
ATOM     40  C   UNL     1     -15.373 -55.683  43.875  0.00  0.00    +0.111 A 
ENDBRANCH   4   3
ENDBRANCH  10   9
BRANCH  12  13
ATOM     13  N   UNL     1     -24.755 -51.949  37.954  0.00  0.00    -0.281 N 
ATOM     14  C   UNL     1     -23.950 -51.235  37.081  0.00  0.00    +0.248 C 
ATOM     30  O   UNL     1     -22.770 -51.476  36.875  0.00  0.00    -0.270 OA
ATOM     31  H   UNL     1     -25.657 -51.528  38.178  0.00  0.00    +0.155 HD
BRANCH  14  15
ATOM     15  C   UNL     1     -24.538 -50.078  36.339  0.00  0.00    +0.037 A 
ATOM     16  C   UNL     1     -23.870 -48.775  36.311  0.00  0.00    +0.013 A 
ATOM     17  C   UNL     1     -24.467 -47.671  35.603  0.00  0.00    +0.005 A 
ATOM     18  C   UNL     1     -25.741 -47.866  34.914  0.00  0.00    -0.033 A 
ATOM     28  C   UNL     1     -26.380 -49.171  34.954  0.00  0.00    +0.005 A 
ATOM     29  C   UNL     1     -25.798 -50.256  35.648  0.00  0.00    +0.013 A 
BRANCH  18  19
ATOM     19  C   UNL     1     -26.461 -46.739  34.151  0.00  0.00    +0.119 C 
BRANCH  19  20
ATOM     20  N   UNL     1     -27.098 -47.094  32.848  0.00  0.00    -0.302 NA
ATOM     21  C   UNL     1     -26.630 -46.180  31.712  0.00  0.00    +0.066 C 
ATOM     22  C   UNL     1     -27.289 -46.579  30.352  0.00  0.00    -0.064 C 
ATOM     23  N   UNL     1     -28.811 -46.532  30.492  0.00  0.00    +0.379 N 
ATOM     24  C   UNL     1     -29.434 -46.851  29.199  0.00  0.00    -0.096 C 
ATOM     25  H   UNL     1     -29.094 -45.487  30.755  0.00  0.00    -0.082 HD
ATOM     26  C   UNL     1     -29.285 -47.437  31.622  0.00  0.00    -0.064 C 
ATOM     27  C   UNL     1     -28.602 -47.050  32.963  0.00  0.00    +0.066 C 
ENDBRANCH  19  20
ENDBRANCH  18  19
ENDBRANCH  14  15
ENDBRANCH  12  13
TORSDOF 6
ENDMDL
MODEL 3
REMARK VINA RESULT:      -9.0     36.993     40.679
REMARK  Name = C:\Users\Docking\Desktop\test protocol\1iep_ligandH.pdb
REMARK  8 active torsions:
REMARK  status: ('A' for Active; 'I' for Inactive)
REMARK    1  A    between atoms: _5  and  _11
REMARK    2  A    between atoms: _19  and  _21
REMARK    3  A    between atoms: _22  and  _66
REMARK    4  A    between atoms: _27  and  _30
REMARK    5  A    between atoms: _32  and  _33
REMARK    6  A    between atoms: _38  and  _43
REMARK    7  A    between atoms: _43  and  _46
REMARK    8  A    between atoms: _53  and  _55
REMARK                            x       y       z     vdW  Elec       q    Type
REMARK                         _______ _______ _______ _____ _____    ______ ____
ROOT
ATOM     10  C   UNL     1     -28.172 -37.263   2.672  0.00  0.00    +0.038 A 
ATOM     11  C   UNL     1     -26.900 -37.853   2.885  0.00  0.00    +0.047 A 
ATOM     12  C   UNL     1     -26.670 -39.264   2.615  0.00  0.00    +0.035 A 
ATOM     32  C   UNL     1     -27.759 -40.044   2.126  0.00  0.00    +0.024 A 
ATOM     33  C   UNL     1     -29.058 -39.461   1.905  0.00  0.00    +0.007 A 
ATOM     34  C   UNL     1     -29.292 -38.070   2.172  0.00  0.00    -0.029 A 
ATOM     35  C   UNL     1     -30.707 -37.500   1.923  0.00  0.00    +0.045 C 
ENDROOT
BRANCH  10   9
ATOM      4  C   UNL     1     -29.261 -33.648   5.635  0.00  0.00    +0.077 A 
ATOM      5  C   UNL     1     -29.554 -34.544   6.717  0.00  0.00    +0.048 A 
ATOM      6  C   UNL     1     -29.418 -35.928   6.467  0.00  0.00    +0.116 A 
ATOM      7  N   UNL     1     -29.019 -36.372   5.225  0.00  0.00    -0.223 NA
ATOM      8  C   UNL     1     -28.747 -35.480   4.203  0.00  0.00    +0.220 A 
ATOM      9  N   UNL     1     -28.337 -35.904   2.949  0.00  0.00    -0.283 N 
ATOM     36  H   UNL     1     -28.153 -35.216   2.219  0.00  0.00    +0.155 HD
ATOM     37  N   UNL     1     -28.870 -34.154   4.416  0.00  0.00    -0.214 NA
BRANCH   4   3
ATOM      1  C   UNL     1     -28.329 -29.859   5.919  0.00  0.00    +0.020 A 
ATOM      2  C   UNL     1     -28.184 -31.293   5.815  0.00  0.00    +0.013 A 
ATOM      3  C   UNL     1     -29.355 -32.157   5.744  0.00  0.00    +0.019 A 
ATOM     38  C   UNL     1     -30.670 -31.534   5.780  0.00  0.00    +0.120 A 
ATOM     39  N   UNL     1     -30.779 -30.151   5.882  0.00  0.00    -0.263 NA
ATOM     40  C   UNL     1     -29.659 -29.309   5.953  0.00  0.00    +0.111 A 
ENDBRANCH   4   3
ENDBRANCH  10   9
BRANCH  12  13
ATOM     13  N   UNL     1     -25.403 -39.920   2.819  0.00  0.00    -0.281 N 
ATOM     14  C   UNL     1     -24.161 -39.545   2.331  0.00  0.00    +0.248 C 
ATOM     30  O   UNL     1     -23.985 -38.703   1.464  0.00  0.00    -0.270 OA
ATOM     31  H   UNL     1     -25.423 -40.763   3.393  0.00  0.00    +0.155 HD
BRANCH  14  15
ATOM     15  C   UNL     1     -22.940 -40.213   2.876  0.00  0.00    +0.037 A 
ATOM     16  C   UNL     1     -23.041 -41.331   3.818  0.00  0.00    +0.013 A 
ATOM     17  C   UNL     1     -21.847 -41.946   4.341  0.00  0.00    +0.005 A 
ATOM     18  C   UNL     1     -20.541 -41.445   3.921  0.00  0.00    -0.033 A 
ATOM     28  C   UNL     1     -20.469 -40.338   2.982  0.00  0.00    +0.005 A 
ATOM     29  C   UNL     1     -21.638 -39.732   2.468  0.00  0.00    +0.013 A 
BRANCH  18  19
ATOM     19  C   UNL     1     -19.214 -42.027   4.445  0.00  0.00    +0.119 C 
BRANCH  19  20
ATOM     20  N   UNL     1     -19.122 -43.512   4.571  0.00  0.00    -0.302 NA
ATOM     21  C   UNL     1     -19.264 -43.975   6.024  0.00  0.00    +0.066 C 
ATOM     22  C   UNL     1     -19.187 -45.533   6.135  0.00  0.00    -0.064 C 
ATOM     23  N   UNL     1     -17.866 -46.019   5.538  0.00  0.00    +0.379 N 
ATOM     24  C   UNL     1     -17.765 -47.478   5.693  0.00  0.00    -0.096 C 
ATOM     25  H   UNL     1     -17.039 -45.558   6.127  0.00  0.00    -0.082 HD
ATOM     26  C   UNL     1     -17.715 -45.561   4.094  0.00  0.00    -0.064 C 
ATOM     27  C   UNL     1     -17.822 -44.014   3.992  0.00  0.00    +0.066 C 
ENDBRANCH  19  20
ENDBRANCH  18  19
ENDBRANCH  14  15
ENDBRANCH  12  13
TORSDOF 6
ENDMDL
MODEL 4
REMARK VINA RESULT:      -8.9      4.547      8.418
REMARK  Name = C:\Users\Docking\Desktop\test protocol\1iep_ligandH.pdb
REMARK  8 active torsions:
REMARK  status: ('A' for Active; 'I' for Inactive)
REMARK    1  A    between atoms: _5  and  _11
REMARK    2  A    between atoms: _19  and  _21
REMARK    3  A    between atoms: _22  and  _66
REMARK    4  A    between atoms: _27  and  _30
REMARK    5  A    between atoms: _32  and  _33
REMARK    6  A    between atoms: _38  and  _43
REMARK    7  A    between atoms: _43  and  _46
REMARK    8  A    between atoms: _53  and  _55
REMARK                            x       y       z     vdW  Elec       q    Type
REMARK                         _______ _______ _______ _____ _____    ______ ____
ROOT
ATOM     10  C   UNL     1     -25.872 -47.439  37.385  0.00  0.00    +0.038 A 
ATOM     11  C   UNL     1     -24.858 -48.421  37.526  0.00  0.00    +0.047 A 
ATOM     12  C   UNL     1     -24.545 -48.997  38.824  0.00  0.00    +0.035 A 
ATOM     32  C   UNL     1     -25.286 -48.553  39.958  0.00  0.00    +0.024 A 
ATOM     33  C   UNL     1     -26.319 -47.555  39.832  0.00  0.00    +0.007 A 
ATOM     34  C   UNL     1     -26.631 -46.981  38.555  0.00  0.00    -0.029 A 
ATOM     35  C   UNL     1     -27.745 -45.910  38.480  0.00  0.00    +0.045 C 
ENDROOT
BRANCH  10   9
ATOM      4  C   UNL     1     -28.061 -47.590  33.116  0.00  0.00    +0.077 A 
ATOM      5  C   UNL     1     -28.723 -48.823  33.433  0.00  0.00    +0.048 A 
ATOM      6  C   UNL     1     -28.467 -49.389  34.702  0.00  0.00    +0.116 A 
ATOM      7  N   UNL     1     -27.612 -48.760  35.581  0.00  0.00    -0.223 NA
ATOM      8  C   UNL     1     -26.989 -47.573  35.243  0.00  0.00    +0.220 A 
ATOM      9  N   UNL     1     -26.132 -46.919  36.115  0.00  0.00    -0.283 N 
ATOM     36  H   UNL     1     -25.685 -46.049  35.825  0.00  0.00    +0.155 HD
ATOM     37  N   UNL     1     -27.215 -47.013  34.037  0.00  0.00    -0.214 NA
BRANCH   4   3
ATOM      1  C   UNL     1     -29.496 -45.341  30.256  0.00  0.00    +0.020 A 
ATOM      2  C   UNL     1     -29.379 -46.017  31.527  0.00  0.00    +0.013 A 
ATOM      3  C   UNL     1     -28.231 -46.867  31.816  0.00  0.00    +0.019 A 
ATOM     38  C   UNL     1     -27.210 -47.012  30.790  0.00  0.00    +0.120 A 
ATOM     39  N   UNL     1     -27.349 -46.349  29.574  0.00  0.00    -0.263 NA
ATOM     40  C   UNL     1     -28.451 -45.530  29.284  0.00  0.00    +0.111 A 
ENDBRANCH   4   3
ENDBRANCH  10   9
BRANCH  12  13
ATOM     13  N   UNL     1     -23.520 -49.991  39.030  0.00  0.00    -0.281 N 
ATOM     14  C   UNL     1     -23.438 -51.257  38.474  0.00  0.00    +0.248 C 
ATOM     30  O   UNL     1     -24.349 -51.810  37.876  0.00  0.00    -0.270 OA
ATOM     31  H   UNL     1     -22.765 -49.730  39.664  0.00  0.00    +0.155 HD
BRANCH  14  15
ATOM     15  C   UNL     1     -22.163 -52.025  38.613  0.00  0.00    +0.037 A 
ATOM     16  C   UNL     1     -21.273 -51.819  39.758  0.00  0.00    +0.013 A 
ATOM     17  C   UNL     1     -20.041 -52.561  39.860  0.00  0.00    +0.005 A 
ATOM     18  C   UNL     1     -19.693 -53.518  38.812  0.00  0.00    -0.033 A 
ATOM     28  C   UNL     1     -20.597 -53.706  37.690  0.00  0.00    +0.005 A 
ATOM     29  C   UNL     1     -21.805 -52.980  37.586  0.00  0.00    +0.013 A 
BRANCH  18  19
ATOM     19  C   UNL     1     -18.390 -54.338  38.828  0.00  0.00    +0.119 C 
BRANCH  19  20
ATOM     20  N   UNL     1     -18.478 -55.754  39.291  0.00  0.00    -0.302 NA
ATOM     21  C   UNL     1     -19.779 -56.031  40.050  0.00  0.00    +0.066 C 
ATOM     22  C   UNL     1     -19.866 -57.523  40.508  0.00  0.00    -0.064 C 
ATOM     23  N   UNL     1     -18.651 -57.858  41.375  0.00  0.00    +0.379 N 
ATOM     24  C   UNL     1     -18.759 -59.244  41.855  0.00  0.00    -0.096 C 
ATOM     25  H   UNL     1     -18.677 -57.189  42.266  0.00  0.00    -0.082 HD
ATOM     26  C   UNL     1     -17.353 -57.584  40.629  0.00  0.00    -0.064 C 
ATOM     27  C   UNL     1     -17.291 -56.106  40.153  0.00  0.00    +0.066 C 
ENDBRANCH  19  20
ENDBRANCH  18  19
ENDBRANCH  14  15
ENDBRANCH  12  13
TORSDOF 6
ENDMDL
MODEL 5
REMARK VINA RESULT:      -8.9      3.011     12.838
REMARK  Name = C:\Users\Docking\Desktop\test protocol\1iep_ligandH.pdb
REMARK  8 active torsions:
REMARK  status: ('A' for Active; 'I' for Inactive)
REMARK    1  A    between atoms: _5  and  _11
REMARK    2  A    between atoms: _19  and  _21
REMARK    3  A    between atoms: _22  and  _66
REMARK    4  A    between atoms: _27  and  _30
REMARK    5  A    between atoms: _32  and  _33
REMARK    6  A    between atoms: _38  and  _43
REMARK    7  A    between atoms: _43  and  _46
REMARK    8  A    between atoms: _53  and  _55
REMARK                            x       y       z     vdW  Elec       q    Type
REMARK                         _______ _______ _______ _____ _____    ______ ____
ROOT
ATOM     10  C   UNL     1     -20.323 -52.986  38.637  0.00  0.00    +0.038 A 
ATOM     11  C   UNL     1     -21.407 -52.257  39.189  0.00  0.00    +0.047 A 
ATOM     12  C   UNL     1     -22.535 -51.847  38.367  0.00  0.00    +0.035 A 
ATOM     32  C   UNL     1     -22.527 -52.200  36.985  0.00  0.00    +0.024 A 
ATOM     33  C   UNL     1     -21.433 -52.940  36.408  0.00  0.00    +0.007 A 
ATOM     34  C   UNL     1     -20.316 -53.344  37.213  0.00  0.00    -0.029 A 
ATOM     35  C   UNL     1     -19.168 -54.130  36.539  0.00  0.00    +0.045 C 
ENDROOT
BRANCH  10   9
ATOM      4  C   UNL     1     -17.980 -56.186  41.340  0.00  0.00    +0.077 A 
ATOM      5  C   UNL     1     -18.959 -57.204  41.088  0.00  0.00    +0.048 A 
ATOM      6  C   UNL     1     -20.054 -56.861  40.263  0.00  0.00    +0.116 A 
ATOM      7  N   UNL     1     -20.152 -55.592  39.735  0.00  0.00    -0.223 NA
ATOM      8  C   UNL     1     -19.191 -54.633  40.000  0.00  0.00    +0.220 A 
ATOM      9  N   UNL     1     -19.266 -53.353  39.473  0.00  0.00    -0.283 N 
ATOM     36  H   UNL     1     -18.541 -52.672  39.698  0.00  0.00    +0.155 HD
ATOM     37  N   UNL     1     -18.137 -54.935  40.785  0.00  0.00    -0.214 NA
BRANCH   4   3
ATOM      1  C   UNL     1     -14.394 -55.866  42.869  0.00  0.00    +0.020 A 
ATOM      2  C   UNL     1     -15.539 -55.624  42.022  0.00  0.00    +0.013 A 
ATOM      3  C   UNL     1     -16.765 -56.396  42.189  0.00  0.00    +0.019 A 
ATOM     38  C   UNL     1     -16.799 -57.412  43.230  0.00  0.00    +0.120 A 
ATOM     39  N   UNL     1     -15.680 -57.623  44.030  0.00  0.00    -0.263 NA
ATOM     40  C   UNL     1     -14.494 -56.888  43.877  0.00  0.00    +0.111 A 
ENDBRANCH   4   3
ENDBRANCH  10   9
BRANCH  12  13
ATOM     13  N   UNL     1     -23.660 -51.099  38.870  0.00  0.00    -0.281 N 
ATOM     14  C   UNL     1     -24.515 -51.439  39.904  0.00  0.00    +0.248 C 
ATOM     30  O   UNL     1     -24.572 -52.547  40.418  0.00  0.00    -0.270 OA
ATOM     31  H   UNL     1     -23.848 -50.209  38.407  0.00  0.00    +0.155 HD
BRANCH  14  15
ATOM     15  C   UNL     1     -25.453 -50.404  40.437  0.00  0.00    +0.037 A 
ATOM     16  C   UNL     1     -26.625 -50.778  41.232  0.00  0.00    +0.013 A 
ATOM     17  C   UNL     1     -27.523 -49.761  41.719  0.00  0.00    +0.005 A 
ATOM     18  C   UNL     1     -27.251 -48.359  41.412  0.00  0.00    -0.033 A 
ATOM     28  C   UNL     1     -26.077 -48.016  40.626  0.00  0.00    +0.005 A 
ATOM     29  C   UNL     1     -25.196 -49.010  40.146  0.00  0.00    +0.013 A 
BRANCH  18  19
ATOM     19  C   UNL     1     -28.166 -47.209  41.873  0.00  0.00    +0.119 C 
BRANCH  19  20
ATOM     20  N   UNL     1     -28.452 -47.106  43.335  0.00  0.00    -0.302 NA
ATOM     21  C   UNL     1     -29.644 -46.189  43.624  0.00  0.00    +0.066 C 
ATOM     22  C   UNL     1     -29.943 -46.111  45.156  0.00  0.00    -0.064 C 
ATOM     23  N   UNL     1     -28.694 -45.624  45.893  0.00  0.00    +0.379 N 
ATOM     24  C   UNL     1     -28.990 -45.494  47.327  0.00  0.00    -0.096 C 
ATOM     25  H   UNL     1     -28.447 -44.609  45.505  0.00  0.00    -0.082 HD
ATOM     26  C   UNL     1     -27.503 -46.529  45.609  0.00  0.00    -0.064 C 
ATOM     27  C   UNL     1     -27.233 -46.623  44.081  0.00  0.00    +0.066 C 
ENDBRANCH  19  20
ENDBRANCH  18  19
ENDBRANCH  14  15
ENDBRANCH  12  13
TORSDOF 6
ENDMDL
