MODEL 1
REMARK VINA RESULT:      -7.7      0.000      0.000
REMARK  Name = C:\Users\Docking\Desktop\test protocol\1iep_ligandH.pdb
REMARK  8 active torsions:
REMARK  status: ('A' for Active; 'I' for Inactive)
REMARK    1  A    between atoms: _5  and  _11
REMARK    2  A    between atoms: _19  and  _21
REMARK    3  A    between atoms: _22  and  _66
REMARK    4  A    between atoms: _27  and  _30
REMARK    5  A    between atoms: _32  and  _33
REMARK    6  A    between atoms: _38  and  _43
REMARK    7  A    between atoms: _43  and  _46
REMARK    8  A    between atoms: _53  and  _55
REMARK                            x       y       z     vdW  Elec       q    Type
REMARK                         _______ _______ _______ _____ _____    ______ ____
ROOT
ATOM     10  C   UNL     1       9.729   6.042  -2.430  0.00  0.00    +0.038 A 
ATOM     11  C   UNL     1       8.849   7.004  -2.989  0.00  0.00    +0.047 A 
ATOM     12  C   UNL     1       9.312   8.341  -3.327  0.00  0.00    +0.035 A 
ATOM     32  C   UNL     1      10.679   8.664  -3.083  0.00  0.00    +0.024 A 
ATOM     33  C   UNL     1      11.587   7.699  -2.515  0.00  0.00    +0.007 A 
ATOM     34  C   UNL     1      11.135   6.379  -2.178  0.00  0.00    -0.029 A 
ATOM     35  C   UNL     1      12.151   5.387  -1.565  0.00  0.00    +0.045 C 
ENDROOT
BRANCH  10   9
ATOM      4  C   UNL     1       7.504   2.959   0.499  0.00  0.00    +0.077 A 
ATOM      5  C   UNL     1       7.344   3.954   1.521  0.00  0.00    +0.048 A 
ATOM      6  C   UNL     1       7.854   5.244   1.255  0.00  0.00    +0.116 A 
ATOM      7  N   UNL     1       8.476   5.509   0.055  0.00  0.00    -0.223 NA
ATOM      8  C   UNL     1       8.616   4.527  -0.908  0.00  0.00    +0.220 A 
ATOM      9  N   UNL     1       9.231   4.773  -2.126  0.00  0.00    -0.283 N 
ATOM     36  H   UNL     1       9.321   4.019  -2.807  0.00  0.00    +0.155 HD
ATOM     37  N   UNL     1       8.139   3.286  -0.678  0.00  0.00    -0.214 NA
BRANCH   4   3
ATOM      1  C   UNL     1       5.554  -0.383  -0.071  0.00  0.00    +0.020 A 
ATOM      2  C   UNL     1       5.990   0.984  -0.238  0.00  0.00    +0.013 A 
ATOM      3  C   UNL     1       7.015   1.550   0.629  0.00  0.00    +0.019 A 
ATOM     38  C   UNL     1       7.583   0.700   1.665  0.00  0.00    +0.120 A 
ATOM     39  N   UNL     1       7.142  -0.613   1.803  0.00  0.00    -0.263 NA
ATOM     40  C   UNL     1       6.155  -1.168   0.975  0.00  0.00    +0.111 A 
ENDBRANCH   4   3
ENDBRANCH  10   9
BRANCH  12  13
ATOM     13  N   UNL     1       8.463   9.362  -3.889  0.00  0.00    -0.281 N 
ATOM     14  C   UNL     1       7.912   9.406  -5.159  0.00  0.00    +0.248 C 
ATOM     30  O   UNL     1       8.241   8.675  -6.081  0.00  0.00    -0.270 OA
ATOM     31  H   UNL     1       8.242  10.147  -3.276  0.00  0.00    +0.155 HD
BRANCH  14  15
ATOM     15  C   UNL     1       6.851  10.418  -5.450  0.00  0.00    +0.037 A 
ATOM     16  C   UNL     1       5.525  10.015  -5.923  0.00  0.00    +0.013 A 
ATOM     17  C   UNL     1       4.526  11.013  -6.213  0.00  0.00    +0.005 A 
ATOM     18  C   UNL     1       4.850  12.425  -6.030  0.00  0.00    -0.033 A 
ATOM     28  C   UNL     1       6.173  12.798  -5.555  0.00  0.00    +0.005 A 
ATOM     29  C   UNL     1       7.154  11.822  -5.270  0.00  0.00    +0.013 A 
BRANCH  18  19
ATOM     19  C   UNL     1       3.853  13.559  -6.335  0.00  0.00    +0.119 C 
BRANCH  19  20
ATOM     20  N   UNL     1       3.714  14.641  -5.314  0.00  0.00    -0.302 NA
ATOM     21  C   UNL     1       2.997  14.152  -4.053  0.00  0.00    +0.066 C 
ATOM     22  C   UNL     1       2.880  15.290  -2.987  0.00  0.00    -0.064 C 
ATOM     23  N   UNL     1       2.147  16.485  -3.599  0.00  0.00    +0.379 N 
ATOM     24  C   UNL     1       1.985  17.534  -2.582  0.00  0.00    -0.096 C 
ATOM     25  H   UNL     1       1.129  16.140  -3.896  0.00  0.00    -0.082 HD
ATOM     26  C   UNL     1       2.853  16.975  -4.856  0.00  0.00    -0.064 C 
ATOM     27  C   UNL     1       2.989  15.829  -5.896  0.00  0.00    +0.066 C 
ENDBRANCH  19  20
ENDBRANCH  18  19
ENDBRANCH  14  15
ENDBRANCH  12  13
TORSDOF 6
ENDMDL
MODEL 2
REMARK VINA RESULT:      -7.4     17.443     19.332
REMARK  Name = C:\Users\Docking\Desktop\test protocol\1iep_ligandH.pdb
REMARK  8 active torsions:
REMARK  status: ('A' for Active; 'I' for Inactive)
REMARK    1  A    between atoms: _5  and  _11
REMARK    2  A    between atoms: _19  and  _21
REMARK    3  A    between atoms: _22  and  _66
REMARK    4  A    between atoms: _27  and  _30
REMARK    5  A    between atoms: _32  and  _33
REMARK    6  A    between atoms: _38  and  _43
REMARK    7  A    between atoms: _43  and  _46
REMARK    8  A    between atoms: _53  and  _55
REMARK                            x       y       z     vdW  Elec       q    Type
REMARK                         _______ _______ _______ _____ _____    ______ ____
ROOT
ATOM     10  C   UNL     1      -1.109  -9.251   3.962  0.00  0.00    +0.038 A 
ATOM     11  C   UNL     1      -1.372  -8.766   2.655  0.00  0.00    +0.047 A 
ATOM     12  C   UNL     1      -2.690  -8.898   2.055  0.00  0.00    +0.035 A 
ATOM     32  C   UNL     1      -3.719  -9.526   2.816  0.00  0.00    +0.024 A 
ATOM     33  C   UNL     1      -3.469 -10.025   4.145  0.00  0.00    +0.007 A 
ATOM     34  C   UNL     1      -2.170  -9.901   4.741  0.00  0.00    -0.029 A 
ATOM     35  C   UNL     1      -1.957 -10.460   6.167  0.00  0.00    +0.045 C 
ENDROOT
BRANCH  10   9
ATOM      4  C   UNL     1       2.256  -6.692   6.235  0.00  0.00    +0.077 A 
ATOM      5  C   UNL     1       1.392  -5.554   6.359  0.00  0.00    +0.048 A 
ATOM      6  C   UNL     1       0.091  -5.666   5.818  0.00  0.00    +0.116 A 
ATOM      7  N   UNL     1      -0.305  -6.833   5.202  0.00  0.00    -0.223 NA
ATOM      8  C   UNL     1       0.555  -7.911   5.098  0.00  0.00    +0.220 A 
ATOM      9  N   UNL     1       0.175  -9.098   4.489  0.00  0.00    -0.283 N 
ATOM     36  H   UNL     1       0.841  -9.868   4.426  0.00  0.00    +0.155 HD
ATOM     37  N   UNL     1       1.803  -7.830   5.605  0.00  0.00    -0.214 NA
BRANCH   4   3
ATOM      1  C   UNL     1       5.936  -7.792   6.977  0.00  0.00    +0.020 A 
ATOM      2  C   UNL     1       4.593  -7.804   6.446  0.00  0.00    +0.013 A 
ATOM      3  C   UNL     1       3.659  -6.730   6.759  0.00  0.00    +0.019 A 
ATOM     38  C   UNL     1       4.119  -5.650   7.618  0.00  0.00    +0.120 A 
ATOM     39  N   UNL     1       5.418  -5.666   8.117  0.00  0.00    -0.263 NA
ATOM     40  C   UNL     1       6.325  -6.695   7.824  0.00  0.00    +0.111 A 
ENDBRANCH   4   3
ENDBRANCH  10   9
BRANCH  12  13
ATOM     13  N   UNL     1      -3.014  -8.432   0.729  0.00  0.00    -0.281 N 
ATOM     14  C   UNL     1      -2.998  -7.130   0.256  0.00  0.00    +0.248 C 
ATOM     30  O   UNL     1      -2.907  -6.139   0.965  0.00  0.00    -0.270 OA
ATOM     31  H   UNL     1      -3.290  -9.149   0.058  0.00  0.00    +0.155 HD
BRANCH  14  15
ATOM     15  C   UNL     1      -3.113  -6.895  -1.215  0.00  0.00    +0.037 A 
ATOM     16  C   UNL     1      -4.146  -7.562  -2.013  0.00  0.00    +0.013 A 
ATOM     17  C   UNL     1      -4.224  -7.331  -3.433  0.00  0.00    +0.005 A 
ATOM     18  C   UNL     1      -3.267  -6.427  -4.066  0.00  0.00    -0.033 A 
ATOM     28  C   UNL     1      -2.256  -5.774  -3.250  0.00  0.00    +0.005 A 
ATOM     29  C   UNL     1      -2.176  -5.999  -1.858  0.00  0.00    +0.013 A 
BRANCH  18  19
ATOM     19  C   UNL     1      -3.263  -6.138  -5.578  0.00  0.00    +0.119 C 
BRANCH  19  20
ATOM     20  N   UNL     1      -4.490  -6.503  -6.348  0.00  0.00    -0.302 NA
ATOM     21  C   UNL     1      -4.350  -6.183  -7.838  0.00  0.00    +0.066 C 
ATOM     22  C   UNL     1      -5.634  -6.592  -8.631  0.00  0.00    -0.064 C 
ATOM     23  N   UNL     1      -6.848  -5.877  -8.036  0.00  0.00    +0.379 N 
ATOM     24  C   UNL     1      -8.048  -6.215  -8.815  0.00  0.00    -0.096 C 
ATOM     25  H   UNL     1      -6.676  -4.780  -8.136  0.00  0.00    -0.082 HD
ATOM     26  C   UNL     1      -6.993  -6.188  -6.553  0.00  0.00    -0.064 C 
ATOM     27  C   UNL     1      -5.701  -5.804  -5.779  0.00  0.00    +0.066 C 
ENDBRANCH  19  20
ENDBRANCH  18  19
ENDBRANCH  14  15
ENDBRANCH  12  13
TORSDOF 6
ENDMDL
MODEL 3
REMARK VINA RESULT:      -7.4      6.617      9.799
REMARK  Name = C:\Users\Docking\Desktop\test protocol\1iep_ligandH.pdb
REMARK  8 active torsions:
REMARK  status: ('A' for Active; 'I' for Inactive)
REMARK    1  A    between atoms: _5  and  _11
REMARK    2  A    between atoms: _19  and  _21
REMARK    3  A    between atoms: _22  and  _66
REMARK    4  A    between atoms: _27  and  _30
REMARK    5  A    between atoms: _32  and  _33
REMARK    6  A    between atoms: _38  and  _43
REMARK    7  A    between atoms: _43  and  _46
REMARK    8  A    between atoms: _53  and  _55
REMARK                            x       y       z     vdW  Elec       q    Type
REMARK                         _______ _______ _______ _____ _____    ______ ____
ROOT
ATOM     10  C   UNL     1       6.388  11.928  -5.862  0.00  0.00    +0.038 A 
ATOM     11  C   UNL     1       5.673  13.149  -5.958  0.00  0.00    +0.047 A 
ATOM     12  C   UNL     1       4.223  13.184  -5.838  0.00  0.00    +0.035 A 
ATOM     32  C   UNL     1       3.534  11.956  -5.619  0.00  0.00    +0.024 A 
ATOM     33  C   UNL     1       4.245  10.705  -5.520  0.00  0.00    +0.007 A 
ATOM     34  C   UNL     1       5.675  10.665  -5.639  0.00  0.00    -0.029 A 
ATOM     35  C   UNL     1       6.384   9.295  -5.531  0.00  0.00    +0.045 C 
ENDROOT
BRANCH  10   9
ATOM      4  C   UNL     1      10.779  12.711  -4.089  0.00  0.00    +0.077 A 
ATOM      5  C   UNL     1      10.256  13.132  -2.821  0.00  0.00    +0.048 A 
ATOM      6  C   UNL     1       8.852  13.139  -2.668  0.00  0.00    +0.116 A 
ATOM      7  N   UNL     1       8.040  12.752  -3.712  0.00  0.00    -0.223 NA
ATOM      8  C   UNL     1       8.576  12.354  -4.923  0.00  0.00    +0.220 A 
ATOM      9  N   UNL     1       7.779  11.953  -5.984  0.00  0.00    -0.283 N 
ATOM     36  H   UNL     1       8.213  11.673  -6.863  0.00  0.00    +0.155 HD
ATOM     37  N   UNL     1       9.915  12.339  -5.095  0.00  0.00    -0.214 NA
BRANCH   4   3
ATOM      1  C   UNL     1      14.228  13.073  -5.899  0.00  0.00    +0.020 A 
ATOM      2  C   UNL     1      12.808  13.160  -5.644  0.00  0.00    +0.013 A 
ATOM      3  C   UNL     1      12.241  12.647  -4.404  0.00  0.00    +0.019 A 
ATOM     38  C   UNL     1      13.145  12.047  -3.434  0.00  0.00    +0.120 A 
ATOM     39  N   UNL     1      14.508  11.976  -3.707  0.00  0.00    -0.263 NA
ATOM     40  C   UNL     1      15.064  12.465  -4.898  0.00  0.00    +0.111 A 
ENDBRANCH   4   3
ENDBRANCH  10   9
BRANCH  12  13
ATOM     13  N   UNL     1       3.443  14.392  -5.935  0.00  0.00    -0.281 N 
ATOM     14  C   UNL     1       3.278  15.379  -4.977  0.00  0.00    +0.248 C 
ATOM     30  O   UNL     1       3.608  15.266  -3.805  0.00  0.00    -0.270 OA
ATOM     31  H   UNL     1       2.952  14.538  -6.817  0.00  0.00    +0.155 HD
BRANCH  14  15
ATOM     15  C   UNL     1       2.642  16.672  -5.373  0.00  0.00    +0.037 A 
ATOM     16  C   UNL     1       3.351  17.945  -5.223  0.00  0.00    +0.013 A 
ATOM     17  C   UNL     1       2.708  19.180  -5.597  0.00  0.00    +0.005 A 
ATOM     18  C   UNL     1       1.347  19.146  -6.128  0.00  0.00    -0.033 A 
ATOM     28  C   UNL     1       0.669  17.869  -6.272  0.00  0.00    +0.005 A 
ATOM     29  C   UNL     1       1.296  16.657  -5.905  0.00  0.00    +0.013 A 
BRANCH  18  19
ATOM     19  C   UNL     1       0.576  20.416  -6.533  0.00  0.00    +0.119 C 
BRANCH  19  20
ATOM     20  N   UNL     1       1.079  21.172  -7.720  0.00  0.00    -0.302 NA
ATOM     21  C   UNL     1       1.402  20.246  -8.896  0.00  0.00    +0.066 C 
ATOM     22  C   UNL     1       1.905  21.055 -10.135  0.00  0.00    -0.064 C 
ATOM     23  N   UNL     1       3.132  21.878  -9.740  0.00  0.00    +0.379 N 
ATOM     24  C   UNL     1       3.642  22.595 -10.918  0.00  0.00    -0.096 C 
ATOM     25  H   UNL     1       3.924  21.166  -9.409  0.00  0.00    -0.082 HD
ATOM     26  C   UNL     1       2.820  22.799  -8.570  0.00  0.00    -0.064 C 
ATOM     27  C   UNL     1       2.293  21.988  -7.353  0.00  0.00    +0.066 C 
ENDBRANCH  19  20
ENDBRANCH  18  19
ENDBRANCH  14  15
ENDBRANCH  12  13
TORSDOF 6
ENDMDL
MODEL 4
REMARK VINA RESULT:      -7.3     16.982     21.431
REMARK  Name = C:\Users\Docking\Desktop\test protocol\1iep_ligandH.pdb
REMARK  8 active torsions:
REMARK  status: ('A' for Active; 'I' for Inactive)
REMARK    1  A    between atoms: _5  and  _11
REMARK    2  A    between atoms: _19  and  _21
REMARK    3  A    between atoms: _22  and  _66
REMARK    4  A    between atoms: _27  and  _30
REMARK    5  A    between atoms: _32  and  _33
REMARK    6  A    between atoms: _38  and  _43
REMARK    7  A    between atoms: _43  and  _46
REMARK    8  A    between atoms: _53  and  _55
REMARK                            x       y       z     vdW  Elec       q    Type
REMARK                         _______ _______ _______ _____ _____    ______ ____
ROOT
ATOM     10  C   UNL     1      -2.596  -9.504   3.682  0.00  0.00    +0.038 A 
ATOM     11  C   UNL     1      -1.326  -9.299   4.278  0.00  0.00    +0.047 A 
ATOM     12  C   UNL     1      -1.109  -9.553   5.694  0.00  0.00    +0.035 A 
ATOM     32  C   UNL     1      -2.209 -10.017   6.473  0.00  0.00    +0.024 A 
ATOM     33  C   UNL     1      -3.508 -10.229   5.883  0.00  0.00    +0.007 A 
ATOM     34  C   UNL     1      -3.728  -9.978   4.488  0.00  0.00    -0.029 A 
ATOM     35  C   UNL     1      -5.143 -10.217   3.911  0.00  0.00    +0.045 C 
ENDROOT
BRANCH  10   9
ATOM      4  C   UNL     1      -2.947  -6.495  -0.041  0.00  0.00    +0.077 A 
ATOM      5  C   UNL     1      -2.847  -5.341   0.806  0.00  0.00    +0.048 A 
ATOM      6  C   UNL     1      -2.713  -5.565   2.194  0.00  0.00    +0.116 A 
ATOM      7  N   UNL     1      -2.683  -6.851   2.688  0.00  0.00    -0.223 NA
ATOM      8  C   UNL     1      -2.784  -7.942   1.844  0.00  0.00    +0.220 A 
ATOM      9  N   UNL     1      -2.748  -9.244   2.318  0.00  0.00    -0.283 N 
ATOM     36  H   UNL     1      -2.832 -10.022   1.663  0.00  0.00    +0.155 HD
ATOM     37  N   UNL     1      -2.913  -7.754   0.514  0.00  0.00    -0.214 NA
BRANCH   4   3
ATOM      1  C   UNL     1      -2.219  -5.877  -3.835  0.00  0.00    +0.020 A 
ATOM      2  C   UNL     1      -2.032  -5.927  -2.403  0.00  0.00    +0.013 A 
ATOM      3  C   UNL     1      -3.089  -6.421  -1.530  0.00  0.00    +0.019 A 
ATOM     38  C   UNL     1      -4.333  -6.862  -2.142  0.00  0.00    +0.120 A 
ATOM     39  N   UNL     1      -4.486  -6.801  -3.523  0.00  0.00    -0.263 NA
ATOM     40  C   UNL     1      -3.476  -6.326  -4.374  0.00  0.00    +0.111 A 
ENDBRANCH   4   3
ENDBRANCH  10   9
BRANCH  12  13
ATOM     13  N   UNL     1       0.156  -9.356   6.356  0.00  0.00    -0.281 N 
ATOM     14  C   UNL     1       1.383  -9.909   6.030  0.00  0.00    +0.248 C 
ATOM     30  O   UNL     1       1.539 -10.830   5.242  0.00  0.00    -0.270 OA
ATOM     31  H   UNL     1       0.146  -8.733   7.164  0.00  0.00    +0.155 HD
BRANCH  14  15
ATOM     15  C   UNL     1       2.615  -9.370   6.683  0.00  0.00    +0.037 A 
ATOM     16  C   UNL     1       2.811  -9.467   8.132  0.00  0.00    +0.013 A 
ATOM     17  C   UNL     1       4.000  -8.924   8.739  0.00  0.00    +0.005 A 
ATOM     18  C   UNL     1       5.004  -8.280   7.895  0.00  0.00    -0.033 A 
ATOM     28  C   UNL     1       4.787  -8.202   6.460  0.00  0.00    +0.005 A 
ATOM     29  C   UNL     1       3.622  -8.732   5.862  0.00  0.00    +0.013 A 
BRANCH  18  19
ATOM     19  C   UNL     1       6.294  -7.654   8.460  0.00  0.00    +0.119 C 
BRANCH  19  20
ATOM     20  N   UNL     1       7.406  -7.396   7.497  0.00  0.00    -0.302 NA
ATOM     21  C   UNL     1       8.750  -7.912   8.020  0.00  0.00    +0.066 C 
ATOM     22  C   UNL     1       9.898  -7.654   6.992  0.00  0.00    -0.064 C 
ATOM     23  N   UNL     1       9.976  -6.158   6.683  0.00  0.00    +0.379 N 
ATOM     24  C   UNL     1      11.093  -5.905   5.761  0.00  0.00    -0.096 C 
ATOM     25  H   UNL     1      10.199  -5.628   7.638  0.00  0.00    -0.082 HD
ATOM     26  C   UNL     1       8.644  -5.635   6.165  0.00  0.00    -0.064 C 
ATOM     27  C   UNL     1       7.504  -5.923   7.182  0.00  0.00    +0.066 C 
ENDBRANCH  19  20
ENDBRANCH  18  19
ENDBRANCH  14  15
ENDBRANCH  12  13
TORSDOF 6
ENDMDL
MODEL 5
REMARK VINA RESULT:      -7.2      6.526      9.867
REMARK  Name = C:\Users\Docking\Desktop\test protocol\1iep_ligandH.pdb
REMARK  8 active torsions:
REMARK  status: ('A' for Active; 'I' for Inactive)
REMARK    1  A    between atoms: _5  and  _11
REMARK    2  A    between atoms: _19  and  _21
REMARK    3  A    between atoms: _22  and  _66
REMARK    4  A    between atoms: _27  and  _30
REMARK    5  A    between atoms: _32  and  _33
REMARK    6  A    between atoms: _38  and  _43
REMARK    7  A    between atoms: _43  and  _46
REMARK    8  A    between atoms: _53  and  _55
REMARK                            x       y       z     vdW  Elec       q    Type
REMARK                         _______ _______ _______ _____ _____    ______ ____
ROOT
ATOM     10  C   UNL     1       6.536  11.847  -5.773  0.00  0.00    +0.038 A 
ATOM     11  C   UNL     1       5.774  13.032  -5.938  0.00  0.00    +0.047 A 
ATOM     12  C   UNL     1       4.326  13.022  -5.794  0.00  0.00    +0.035 A 
ATOM     32  C   UNL     1       3.688  11.787  -5.479  0.00  0.00    +0.024 A 
ATOM     33  C   UNL     1       4.447  10.573  -5.309  0.00  0.00    +0.007 A 
ATOM     34  C   UNL     1       5.875  10.577  -5.452  0.00  0.00    -0.029 A 
ATOM     35  C   UNL     1       6.637   9.244  -5.265  0.00  0.00    +0.045 C 
ENDROOT
BRANCH  10   9
ATOM      4  C   UNL     1      10.936  12.758  -4.085  0.00  0.00    +0.077 A 
ATOM      5  C   UNL     1      10.426  13.158  -2.805  0.00  0.00    +0.048 A 
ATOM      6  C   UNL     1       9.025  13.123  -2.624  0.00  0.00    +0.116 A 
ATOM      7  N   UNL     1       8.205  12.715  -3.653  0.00  0.00    -0.223 NA
ATOM      8  C   UNL     1       8.729  12.336  -4.876  0.00  0.00    +0.220 A 
ATOM      9  N   UNL     1       7.923  11.915  -5.922  0.00  0.00    -0.283 N 
ATOM     36  H   UNL     1       8.348  11.651  -6.811  0.00  0.00    +0.155 HD
ATOM     37  N   UNL     1      10.063  12.363  -5.074  0.00  0.00    -0.214 NA
BRANCH   4   3
ATOM      1  C   UNL     1      14.321  13.092  -6.016  0.00  0.00    +0.020 A 
ATOM      2  C   UNL     1      12.904  13.129  -5.736  0.00  0.00    +0.013 A 
ATOM      3  C   UNL     1      12.393  12.738  -4.428  0.00  0.00    +0.019 A 
ATOM     38  C   UNL     1      13.350  12.313  -3.418  0.00  0.00    +0.120 A 
ATOM     39  N   UNL     1      14.708  12.287  -3.717  0.00  0.00    -0.263 NA
ATOM     40  C   UNL     1      15.212  12.658  -4.973  0.00  0.00    +0.111 A 
ENDBRANCH   4   3
ENDBRANCH  10   9
BRANCH  12  13
ATOM     13  N   UNL     1       3.499  14.191  -5.957  0.00  0.00    -0.281 N 
ATOM     14  C   UNL     1       3.329  15.244  -5.073  0.00  0.00    +0.248 C 
ATOM     30  O   UNL     1       3.699  15.236  -3.909  0.00  0.00    -0.270 OA
ATOM     31  H   UNL     1       2.976  14.250  -6.831  0.00  0.00    +0.155 HD
BRANCH  14  15
ATOM     15  C   UNL     1       2.633  16.479  -5.547  0.00  0.00    +0.037 A 
ATOM     16  C   UNL     1       1.311  16.414  -6.174  0.00  0.00    +0.013 A 
ATOM     17  C   UNL     1       0.670  17.619  -6.638  0.00  0.00    +0.005 A 
ATOM     18  C   UNL     1       1.351  18.901  -6.475  0.00  0.00    -0.033 A 
ATOM     28  C   UNL     1       2.660  18.938  -5.845  0.00  0.00    +0.005 A 
ATOM     29  C   UNL     1       3.292  17.759  -5.390  0.00  0.00    +0.013 A 
BRANCH  18  19
ATOM     19  C   UNL     1       0.752  20.234  -6.959  0.00  0.00    +0.119 C 
BRANCH  19  20
ATOM     20  N   UNL     1       1.039  20.642  -8.366  0.00  0.00    -0.302 NA
ATOM     21  C   UNL     1       1.322  22.143  -8.483  0.00  0.00    +0.066 C 
ATOM     22  C   UNL     1       1.643  22.548  -9.959  0.00  0.00    -0.064 C 
ATOM     23  N   UNL     1       0.475  22.146 -10.861  0.00  0.00    +0.379 N 
ATOM     24  C   UNL     1       0.749  22.578 -12.239  0.00  0.00    -0.096 C 
ATOM     25  H   UNL     1      -0.429  22.693 -10.508  0.00  0.00    -0.082 HD
ATOM     26  C   UNL     1       0.185  20.656 -10.749  0.00  0.00    -0.064 C 
ATOM     27  C   UNL     1      -0.103  20.258  -9.274  0.00  0.00    +0.066 C 
ENDBRANCH  19  20
ENDBRANCH  18  19
ENDBRANCH  14  15
ENDBRANCH  12  13
TORSDOF 6
ENDMDL
