MODEL 1
REMARK VINA RESULT:      -7.6      0.000      0.000
REMARK  Name = C:\Users\Docking\Desktop\test protocol\1iep_ligandH.pdb
REMARK  8 active torsions:
REMARK  status: ('A' for Active; 'I' for Inactive)
REMARK    1  A    between atoms: _5  and  _11
REMARK    2  A    between atoms: _19  and  _21
REMARK    3  A    between atoms: _22  and  _66
REMARK    4  A    between atoms: _27  and  _30
REMARK    5  A    between atoms: _32  and  _33
REMARK    6  A    between atoms: _38  and  _43
REMARK    7  A    between atoms: _43  and  _46
REMARK    8  A    between atoms: _53  and  _55
REMARK                            x       y       z     vdW  Elec       q    Type
REMARK                         _______ _______ _______ _____ _____    ______ ____
ROOT
ATOM     10  C   UNL     1     -32.428 -41.121   6.547  0.00  0.00    +0.038 A 
ATOM     11  C   UNL     1     -31.512 -40.046   6.428  0.00  0.00    +0.047 A 
ATOM     12  C   UNL     1     -30.858 -39.480   7.598  0.00  0.00    +0.035 A 
ATOM     32  C   UNL     1     -31.160 -40.037   8.875  0.00  0.00    +0.024 A 
ATOM     33  C   UNL     1     -32.090 -41.130   9.015  0.00  0.00    +0.007 A 
ATOM     34  C   UNL     1     -32.739 -41.690   7.864  0.00  0.00    -0.029 A 
ATOM     35  C   UNL     1     -33.732 -42.857   8.074  0.00  0.00    +0.045 C 
ENDROOT
BRANCH  10   9
ATOM      4  C   UNL     1     -36.027 -41.298   3.376  0.00  0.00    +0.077 A 
ATOM      5  C   UNL     1     -36.791 -40.323   4.099  0.00  0.00    +0.048 A 
ATOM      6  C   UNL     1     -36.225 -39.806   5.286  0.00  0.00    +0.116 A 
ATOM      7  N   UNL     1     -34.987 -40.239   5.709  0.00  0.00    -0.223 NA
ATOM      8  C   UNL     1     -34.277 -41.182   4.988  0.00  0.00    +0.220 A 
ATOM      9  N   UNL     1     -33.027 -41.625   5.390  0.00  0.00    -0.283 N 
ATOM     36  H   UNL     1     -32.538 -42.328   4.835  0.00  0.00    +0.155 HD
ATOM     37  N   UNL     1     -34.796 -41.692   3.852  0.00  0.00    -0.214 NA
BRANCH   4   3
ATOM      1  C   UNL     1     -36.986 -43.943   0.658  0.00  0.00    +0.020 A 
ATOM      2  C   UNL     1     -36.532 -43.378   1.908  0.00  0.00    +0.013 A 
ATOM      3  C   UNL     1     -36.488 -41.934   2.102  0.00  0.00    +0.019 A 
ATOM     38  C   UNL     1     -36.914 -41.082   1.002  0.00  0.00    +0.120 A 
ATOM     39  N   UNL     1     -37.346 -41.654  -0.191  0.00  0.00    -0.263 NA
ATOM     40  C   UNL     1     -37.391 -43.042  -0.389  0.00  0.00    +0.111 A 
ENDBRANCH   4   3
ENDBRANCH  10   9
BRANCH  12  13
ATOM     13  N   UNL     1     -29.925 -38.383   7.539  0.00  0.00    -0.281 N 
ATOM     14  C   UNL     1     -30.178 -37.037   7.749  0.00  0.00    +0.248 C 
ATOM     30  O   UNL     1     -31.296 -36.546   7.811  0.00  0.00    -0.270 OA
ATOM     31  H   UNL     1     -28.960 -38.628   7.315  0.00  0.00    +0.155 HD
BRANCH  14  15
ATOM     15  C   UNL     1     -29.024 -36.100   7.899  0.00  0.00    +0.037 A 
ATOM     16  C   UNL     1     -28.456 -35.798   9.215  0.00  0.00    +0.013 A 
ATOM     17  C   UNL     1     -27.353 -34.877   9.333  0.00  0.00    +0.005 A 
ATOM     18  C   UNL     1     -26.810 -34.252   8.129  0.00  0.00    -0.033 A 
ATOM     28  C   UNL     1     -27.390 -34.573   6.836  0.00  0.00    +0.005 A 
ATOM     29  C   UNL     1     -28.471 -35.474   6.716  0.00  0.00    +0.013 A 
BRANCH  18  19
ATOM     19  C   UNL     1     -25.649 -33.241   8.163  0.00  0.00    +0.119 C 
BRANCH  19  20
ATOM     20  N   UNL     1     -24.409 -33.599   7.412  0.00  0.00    -0.302 NA
ATOM     21  C   UNL     1     -23.735 -34.852   7.980  0.00  0.00    +0.066 C 
ATOM     22  C   UNL     1     -22.452 -35.225   7.168  0.00  0.00    -0.064 C 
ATOM     23  N   UNL     1     -21.485 -34.040   7.175  0.00  0.00    +0.379 N 
ATOM     24  C   UNL     1     -20.253 -34.408   6.462  0.00  0.00    -0.096 C 
ATOM     25  H   UNL     1     -21.213 -33.832   8.236  0.00  0.00    -0.082 HD
ATOM     26  C   UNL     1     -22.147 -32.789   6.615  0.00  0.00    -0.064 C 
ATOM     27  C   UNL     1     -23.438 -32.444   7.410  0.00  0.00    +0.066 C 
ENDBRANCH  19  20
ENDBRANCH  18  19
ENDBRANCH  14  15
ENDBRANCH  12  13
TORSDOF 6
ENDMDL
MODEL 2
REMARK VINA RESULT:      -7.5      3.331     12.944
REMARK  Name = C:\Users\Docking\Desktop\test protocol\1iep_ligandH.pdb
REMARK  8 active torsions:
REMARK  status: ('A' for Active; 'I' for Inactive)
REMARK    1  A    between atoms: _5  and  _11
REMARK    2  A    between atoms: _19  and  _21
REMARK    3  A    between atoms: _22  and  _66
REMARK    4  A    between atoms: _27  and  _30
REMARK    5  A    between atoms: _32  and  _33
REMARK    6  A    between atoms: _38  and  _43
REMARK    7  A    between atoms: _43  and  _46
REMARK    8  A    between atoms: _53  and  _55
REMARK                            x       y       z     vdW  Elec       q    Type
REMARK                         _______ _______ _______ _____ _____    ______ ____
ROOT
ATOM     10  C   UNL     1     -33.396 -41.280   6.202  0.00  0.00    +0.038 A 
ATOM     11  C   UNL     1     -33.820 -41.078   4.863  0.00  0.00    +0.047 A 
ATOM     12  C   UNL     1     -35.063 -41.652   4.373  0.00  0.00    +0.035 A 
ATOM     32  C   UNL     1     -35.853 -42.424   5.274  0.00  0.00    +0.024 A 
ATOM     33  C   UNL     1     -35.437 -42.640   6.637  0.00  0.00    +0.007 A 
ATOM     34  C   UNL     1     -34.210 -42.079   7.126  0.00  0.00    -0.029 A 
ATOM     35  C   UNL     1     -33.811 -42.349   8.596  0.00  0.00    +0.045 C 
ENDROOT
BRANCH  10   9
ATOM      4  C   UNL     1     -30.842 -37.624   7.976  0.00  0.00    +0.077 A 
ATOM      5  C   UNL     1     -31.997 -36.776   8.051  0.00  0.00    +0.048 A 
ATOM      6  C   UNL     1     -33.228 -37.317   7.616  0.00  0.00    +0.116 A 
ATOM      7  N   UNL     1     -33.288 -38.610   7.144  0.00  0.00    -0.223 NA
ATOM      8  C   UNL     1     -32.155 -39.401   7.084  0.00  0.00    +0.220 A 
ATOM      9  N   UNL     1     -32.194 -40.706   6.620  0.00  0.00    -0.283 N 
ATOM     36  H   UNL     1     -31.334 -41.254   6.584  0.00  0.00    +0.155 HD
ATOM     37  N   UNL     1     -30.967 -38.907   7.491  0.00  0.00    -0.214 NA
BRANCH   4   3
ATOM      1  C   UNL     1     -27.432 -35.724   8.219  0.00  0.00    +0.020 A 
ATOM      2  C   UNL     1     -28.754 -36.096   7.771  0.00  0.00    +0.013 A 
ATOM      3  C   UNL     1     -29.471 -37.198   8.400  0.00  0.00    +0.019 A 
ATOM     38  C   UNL     1     -28.818 -37.908   9.489  0.00  0.00    +0.120 A 
ATOM     39  N   UNL     1     -27.543 -37.529   9.899  0.00  0.00    -0.263 NA
ATOM     40  C   UNL     1     -26.843 -36.471   9.300  0.00  0.00    +0.111 A 
ENDBRANCH   4   3
ENDBRANCH  10   9
BRANCH  12  13
ATOM     13  N   UNL     1     -35.540 -41.487   3.022  0.00  0.00    -0.281 N 
ATOM     14  C   UNL     1     -36.248 -40.421   2.493  0.00  0.00    +0.248 C 
ATOM     30  O   UNL     1     -36.768 -39.538   3.159  0.00  0.00    -0.270 OA
ATOM     31  H   UNL     1     -35.330 -42.250   2.378  0.00  0.00    +0.155 HD
BRANCH  14  15
ATOM     15  C   UNL     1     -36.417 -40.331   1.010  0.00  0.00    +0.037 A 
ATOM     16  C   UNL     1     -37.501 -41.038   0.324  0.00  0.00    +0.013 A 
ATOM     17  C   UNL     1     -37.630 -40.948  -1.109  0.00  0.00    +0.005 A 
ATOM     18  C   UNL     1     -36.673 -40.144  -1.865  0.00  0.00    -0.033 A 
ATOM     28  C   UNL     1     -35.610 -39.448  -1.158  0.00  0.00    +0.005 A 
ATOM     29  C   UNL     1     -35.480 -39.535   0.246  0.00  0.00    +0.013 A 
BRANCH  18  19
ATOM     19  C   UNL     1     -36.722 -40.008  -3.398  0.00  0.00    +0.119 C 
BRANCH  19  20
ATOM     20  N   UNL     1     -37.223 -41.182  -4.173  0.00  0.00    -0.302 NA
ATOM     21  C   UNL     1     -36.101 -41.885  -4.941  0.00  0.00    +0.066 C 
ATOM     22  C   UNL     1     -36.639 -43.124  -5.728  0.00  0.00    -0.064 C 
ATOM     23  N   UNL     1     -37.748 -42.677  -6.681  0.00  0.00    +0.379 N 
ATOM     24  C   UNL     1     -38.217 -43.830  -7.464  0.00  0.00    -0.096 C 
ATOM     25  H   UNL     1     -37.307 -41.941  -7.392  0.00  0.00    -0.082 HD
ATOM     26  C   UNL     1     -38.868 -41.974  -5.926  0.00  0.00    -0.064 C 
ATOM     27  C   UNL     1     -38.317 -40.762  -5.124  0.00  0.00    +0.066 C 
ENDBRANCH  19  20
ENDBRANCH  18  19
ENDBRANCH  14  15
ENDBRANCH  12  13
TORSDOF 6
ENDMDL
MODEL 3
REMARK VINA RESULT:      -7.4      8.017     11.363
REMARK  Name = C:\Users\Docking\Desktop\test protocol\1iep_ligandH.pdb
REMARK  8 active torsions:
REMARK  status: ('A' for Active; 'I' for Inactive)
REMARK    1  A    between atoms: _5  and  _11
REMARK    2  A    between atoms: _19  and  _21
REMARK    3  A    between atoms: _22  and  _66
REMARK    4  A    between atoms: _27  and  _30
REMARK    5  A    between atoms: _32  and  _33
REMARK    6  A    between atoms: _38  and  _43
REMARK    7  A    between atoms: _43  and  _46
REMARK    8  A    between atoms: _53  and  _55
REMARK                            x       y       z     vdW  Elec       q    Type
REMARK                         _______ _______ _______ _____ _____    ______ ____
ROOT
ATOM     10  C   UNL     1     -36.582 -39.827  -0.159  0.00  0.00    +0.038 A 
ATOM     11  C   UNL     1     -35.686 -38.983  -0.864  0.00  0.00    +0.047 A 
ATOM     12  C   UNL     1     -35.382 -39.214  -2.268  0.00  0.00    +0.035 A 
ATOM     32  C   UNL     1     -36.011 -40.313  -2.923  0.00  0.00    +0.024 A 
ATOM     33  C   UNL     1     -36.924 -41.181  -2.221  0.00  0.00    +0.007 A 
ATOM     34  C   UNL     1     -37.225 -40.959  -0.836  0.00  0.00    -0.029 A 
ATOM     35  C   UNL     1     -38.205 -41.926  -0.131  0.00  0.00    +0.045 C 
ENDROOT
BRANCH  10   9
ATOM      4  C   UNL     1     -35.695 -40.431   4.520  0.00  0.00    +0.077 A 
ATOM      5  C   UNL     1     -34.653 -41.382   4.260  0.00  0.00    +0.048 A 
ATOM      6  C   UNL     1     -34.381 -41.693   2.908  0.00  0.00    +0.116 A 
ATOM      7  N   UNL     1     -35.103 -41.092   1.901  0.00  0.00    -0.223 NA
ATOM      8  C   UNL     1     -36.103 -40.181   2.186  0.00  0.00    +0.220 A 
ATOM      9  N   UNL     1     -36.837 -39.559   1.188  0.00  0.00    -0.283 N 
ATOM     36  H   UNL     1     -37.571 -38.897   1.440  0.00  0.00    +0.155 HD
ATOM     37  N   UNL     1     -36.383 -39.868   3.468  0.00  0.00    -0.214 NA
BRANCH   4   3
ATOM      1  C   UNL     1     -35.574 -39.279   8.256  0.00  0.00    +0.020 A 
ATOM      2  C   UNL     1     -35.133 -39.696   6.945  0.00  0.00    +0.013 A 
ATOM      3  C   UNL     1     -36.098 -39.997   5.895  0.00  0.00    +0.019 A 
ATOM     38  C   UNL     1     -37.513 -39.864   6.206  0.00  0.00    +0.120 A 
ATOM     39  N   UNL     1     -37.908 -39.463   7.478  0.00  0.00    -0.263 NA
ATOM     40  C   UNL     1     -36.989 -39.172   8.497  0.00  0.00    +0.111 A 
ENDBRANCH   4   3
ENDBRANCH  10   9
BRANCH  12  13
ATOM     13  N   UNL     1     -34.475 -38.396  -3.034  0.00  0.00    -0.281 N 
ATOM     14  C   UNL     1     -34.563 -37.038  -3.291  0.00  0.00    +0.248 C 
ATOM     30  O   UNL     1     -35.556 -36.357  -3.078  0.00  0.00    -0.270 OA
ATOM     31  H   UNL     1     -33.670 -38.877  -3.435  0.00  0.00    +0.155 HD
BRANCH  14  15
ATOM     15  C   UNL     1     -33.384 -36.337  -3.883  0.00  0.00    +0.037 A 
ATOM     16  C   UNL     1     -32.141 -36.168  -3.126  0.00  0.00    +0.013 A 
ATOM     17  C   UNL     1     -31.024 -35.473  -3.715  0.00  0.00    +0.005 A 
ATOM     18  C   UNL     1     -31.145 -34.943  -5.071  0.00  0.00    -0.033 A 
ATOM     28  C   UNL     1     -32.387 -35.129  -5.802  0.00  0.00    +0.005 A 
ATOM     29  C   UNL     1     -33.485 -35.809  -5.227  0.00  0.00    +0.013 A 
BRANCH  18  19
ATOM     19  C   UNL     1     -30.011 -34.169  -5.771  0.00  0.00    +0.119 C 
BRANCH  19  20
ATOM     20  N   UNL     1     -29.239 -34.893  -6.825  0.00  0.00    -0.302 NA
ATOM     21  C   UNL     1     -27.740 -34.588  -6.749  0.00  0.00    +0.066 C 
ATOM     22  C   UNL     1     -26.945 -35.371  -7.844  0.00  0.00    -0.064 C 
ATOM     23  N   UNL     1     -27.501 -35.017  -9.225  0.00  0.00    +0.379 N 
ATOM     24  C   UNL     1     -26.717 -35.706 -10.260  0.00  0.00    -0.096 C 
ATOM     25  H   UNL     1     -27.366 -33.920  -9.373  0.00  0.00    -0.082 HD
ATOM     26  C   UNL     1     -28.991 -35.314  -9.308  0.00  0.00    -0.064 C 
ATOM     27  C   UNL     1     -29.769 -34.555  -8.197  0.00  0.00    +0.066 C 
ENDBRANCH  19  20
ENDBRANCH  18  19
ENDBRANCH  14  15
ENDBRANCH  12  13
TORSDOF 6
ENDMDL
MODEL 4
REMARK VINA RESULT:      -7.4     13.825     19.516
REMARK  Name = C:\Users\Docking\Desktop\test protocol\1iep_ligandH.pdb
REMARK  8 active torsions:
REMARK  status: ('A' for Active; 'I' for Inactive)
REMARK    1  A    between atoms: _5  and  _11
REMARK    2  A    between atoms: _19  and  _21
REMARK    3  A    between atoms: _22  and  _66
REMARK    4  A    between atoms: _27  and  _30
REMARK    5  A    between atoms: _32  and  _33
REMARK    6  A    between atoms: _38  and  _43
REMARK    7  A    between atoms: _43  and  _46
REMARK    8  A    between atoms: _53  and  _55
REMARK                            x       y       z     vdW  Elec       q    Type
REMARK                         _______ _______ _______ _____ _____    ______ ____
ROOT
ATOM     10  C   UNL     1     -27.174 -23.702  -4.602  0.00  0.00    +0.038 A 
ATOM     11  C   UNL     1     -27.668 -25.019  -4.422  0.00  0.00    +0.047 A 
ATOM     12  C   UNL     1     -27.158 -26.129  -5.212  0.00  0.00    +0.035 A 
ATOM     32  C   UNL     1     -26.142 -25.861  -6.175  0.00  0.00    +0.024 A 
ATOM     33  C   UNL     1     -25.629 -24.528  -6.372  0.00  0.00    +0.007 A 
ATOM     34  C   UNL     1     -26.130 -23.429  -5.597  0.00  0.00    -0.029 A 
ATOM     35  C   UNL     1     -25.548 -22.020  -5.855  0.00  0.00    +0.045 C 
ENDROOT
BRANCH  10   9
ATOM      4  C   UNL     1     -27.888 -21.552  -0.370  0.00  0.00    +0.077 A 
ATOM      5  C   UNL     1     -27.175 -22.576   0.337  0.00  0.00    +0.048 A 
ATOM      6  C   UNL     1     -26.647 -23.643  -0.424  0.00  0.00    +0.116 A 
ATOM      7  N   UNL     1     -26.824 -23.673  -1.790  0.00  0.00    -0.223 NA
ATOM      8  C   UNL     1     -27.517 -22.669  -2.441  0.00  0.00    +0.220 A 
ATOM      9  N   UNL     1     -27.700 -22.674  -3.816  0.00  0.00    -0.283 N 
ATOM     36  H   UNL     1     -28.224 -21.919  -4.257  0.00  0.00    +0.155 HD
ATOM     37  N   UNL     1     -28.033 -21.640  -1.737  0.00  0.00    -0.214 NA
BRANCH   4   3
ATOM      1  C   UNL     1     -29.792 -19.254   2.159  0.00  0.00    +0.020 A 
ATOM      2  C   UNL     1     -29.218 -20.437   1.560  0.00  0.00    +0.013 A 
ATOM      3  C   UNL     1     -28.501 -20.358   0.293  0.00  0.00    +0.019 A 
ATOM     38  C   UNL     1     -28.381 -19.057  -0.346  0.00  0.00    +0.120 A 
ATOM     39  N   UNL     1     -28.945 -17.935   0.254  0.00  0.00    -0.263 NA
ATOM     40  C   UNL     1     -29.639 -17.999   1.472  0.00  0.00    +0.111 A 
ENDBRANCH   4   3
ENDBRANCH  10   9
BRANCH  12  13
ATOM     13  N   UNL     1     -27.626 -27.486  -5.079  0.00  0.00    -0.281 N 
ATOM     14  C   UNL     1     -28.654 -28.103  -5.773  0.00  0.00    +0.248 C 
ATOM     30  O   UNL     1     -29.471 -27.516  -6.466  0.00  0.00    -0.270 OA
ATOM     31  H   UNL     1     -27.141 -28.061  -4.390  0.00  0.00    +0.155 HD
BRANCH  14  15
ATOM     15  C   UNL     1     -28.805 -29.587  -5.670  0.00  0.00    +0.037 A 
ATOM     16  C   UNL     1     -27.636 -30.468  -5.619  0.00  0.00    +0.013 A 
ATOM     17  C   UNL     1     -27.809 -31.897  -5.537  0.00  0.00    +0.005 A 
ATOM     18  C   UNL     1     -29.160 -32.453  -5.505  0.00  0.00    -0.033 A 
ATOM     28  C   UNL     1     -30.302 -31.556  -5.552  0.00  0.00    +0.005 A 
ATOM     29  C   UNL     1     -30.136 -30.155  -5.633  0.00  0.00    +0.013 A 
BRANCH  18  19
ATOM     19  C   UNL     1     -29.439 -33.966  -5.440  0.00  0.00    +0.119 C 
BRANCH  19  20
ATOM     20  N   UNL     1     -30.767 -34.394  -4.906  0.00  0.00    -0.302 NA
ATOM     21  C   UNL     1     -30.639 -35.121  -3.564  0.00  0.00    +0.066 C 
ATOM     22  C   UNL     1     -32.039 -35.541  -3.009  0.00  0.00    -0.064 C 
ATOM     23  N   UNL     1     -32.749 -36.423  -4.038  0.00  0.00    +0.379 N 
ATOM     24  C   UNL     1     -34.041 -36.868  -3.495  0.00  0.00    -0.096 C 
ATOM     25  H   UNL     1     -32.119 -37.329  -4.197  0.00  0.00    -0.082 HD
ATOM     26  C   UNL     1     -32.877 -35.709  -5.376  0.00  0.00    -0.064 C 
ATOM     27  C   UNL     1     -31.483 -35.270  -5.904  0.00  0.00    +0.066 C 
ENDBRANCH  19  20
ENDBRANCH  18  19
ENDBRANCH  14  15
ENDBRANCH  12  13
TORSDOF 6
ENDMDL
MODEL 5
REMARK VINA RESULT:      -7.4     10.923     16.185
REMARK  Name = C:\Users\Docking\Desktop\test protocol\1iep_ligandH.pdb
REMARK  8 active torsions:
REMARK  status: ('A' for Active; 'I' for Inactive)
REMARK    1  A    between atoms: _5  and  _11
REMARK    2  A    between atoms: _19  and  _21
REMARK    3  A    between atoms: _22  and  _66
REMARK    4  A    between atoms: _27  and  _30
REMARK    5  A    between atoms: _32  and  _33
REMARK    6  A    between atoms: _38  and  _43
REMARK    7  A    between atoms: _43  and  _46
REMARK    8  A    between atoms: _53  and  _55
REMARK                            x       y       z     vdW  Elec       q    Type
REMARK                         _______ _______ _______ _____ _____    ______ ____
ROOT
ATOM     10  C   UNL     1     -39.312 -36.643  -2.658  0.00  0.00    +0.038 A 
ATOM     11  C   UNL     1     -39.692 -36.704  -1.293  0.00  0.00    +0.047 A 
ATOM     12  C   UNL     1     -40.991 -37.225  -0.896  0.00  0.00    +0.035 A 
ATOM     32  C   UNL     1     -41.877 -37.678  -1.917  0.00  0.00    +0.024 A 
ATOM     33  C   UNL     1     -41.507 -37.623  -3.309  0.00  0.00    +0.007 A 
ATOM     34  C   UNL     1     -40.228 -37.107  -3.706  0.00  0.00    -0.029 A 
ATOM     35  C   UNL     1     -39.887 -37.066  -5.214  0.00  0.00    +0.045 C 
ENDROOT
BRANCH  10   9
ATOM      4  C   UNL     1     -34.596 -37.161  -3.390  0.00  0.00    +0.077 A 
ATOM      5  C   UNL     1     -34.641 -38.560  -3.074  0.00  0.00    +0.048 A 
ATOM      6  C   UNL     1     -35.895 -39.106  -2.721  0.00  0.00    +0.116 A 
ATOM      7  N   UNL     1     -37.015 -38.303  -2.690  0.00  0.00    -0.223 NA
ATOM      8  C   UNL     1     -36.937 -36.958  -2.999  0.00  0.00    +0.220 A 
ATOM      9  N   UNL     1     -38.052 -36.134  -2.982  0.00  0.00    -0.283 N 
ATOM     36  H   UNL     1     -37.952 -35.145  -3.209  0.00  0.00    +0.155 HD
ATOM     37  N   UNL     1     -35.751 -36.412  -3.338  0.00  0.00    -0.214 NA
BRANCH   4   3
ATOM      1  C   UNL     1     -31.008 -35.605  -3.332  0.00  0.00    +0.020 A 
ATOM      2  C   UNL     1     -32.192 -36.312  -2.902  0.00  0.00    +0.013 A 
ATOM      3  C   UNL     1     -33.345 -36.439  -3.784  0.00  0.00    +0.019 A 
ATOM     38  C   UNL     1     -33.267 -35.835  -5.106  0.00  0.00    +0.120 A 
ATOM     39  N   UNL     1     -32.114 -35.159  -5.492  0.00  0.00    -0.263 NA
ATOM     40  C   UNL     1     -30.999 -35.029  -4.651  0.00  0.00    +0.111 A 
ENDBRANCH   4   3
ENDBRANCH  10   9
BRANCH  12  13
ATOM     13  N   UNL     1     -41.435 -37.304   0.473  0.00  0.00    -0.281 N 
ATOM     14  C   UNL     1     -42.212 -36.392   1.170  0.00  0.00    +0.248 C 
ATOM     30  O   UNL     1     -42.465 -35.261   0.783  0.00  0.00    -0.270 OA
ATOM     31  H   UNL     1     -41.142 -38.132   0.991  0.00  0.00    +0.155 HD
BRANCH  14  15
ATOM     15  C   UNL     1     -42.776 -36.790   2.496  0.00  0.00    +0.037 A 
ATOM     16  C   UNL     1     -43.461 -38.073   2.676  0.00  0.00    +0.013 A 
ATOM     17  C   UNL     1     -44.011 -38.424   3.961  0.00  0.00    +0.005 A 
ATOM     18  C   UNL     1     -43.878 -37.490   5.077  0.00  0.00    -0.033 A 
ATOM     28  C   UNL     1     -43.189 -36.227   4.871  0.00  0.00    +0.005 A 
ATOM     29  C   UNL     1     -42.650 -35.879   3.613  0.00  0.00    +0.013 A 
BRANCH  18  19
ATOM     19  C   UNL     1     -44.453 -37.773   6.478  0.00  0.00    +0.119 C 
BRANCH  19  20
ATOM     20  N   UNL     1     -45.902 -38.125   6.564  0.00  0.00    -0.302 NA
ATOM     21  C   UNL     1     -46.796 -37.022   5.990  0.00  0.00    +0.066 C 
ATOM     22  C   UNL     1     -48.307 -37.416   6.067  0.00  0.00    -0.064 C 
ATOM     23  N   UNL     1     -48.679 -37.713   7.521  0.00  0.00    +0.379 N 
ATOM     24  C   UNL     1     -50.113 -38.028   7.605  0.00  0.00    -0.096 C 
ATOM     25  H   UNL     1     -48.501 -36.785   8.112  0.00  0.00    -0.082 HD
ATOM     26  C   UNL     1     -47.794 -38.807   8.100  0.00  0.00    -0.064 C 
ATOM     27  C   UNL     1     -46.293 -38.419   7.991  0.00  0.00    +0.066 C 
ENDBRANCH  19  20
ENDBRANCH  18  19
ENDBRANCH  14  15
ENDBRANCH  12  13
TORSDOF 6
ENDMDL
