MODEL 1
REMARK VINA RESULT:      -8.7      0.000      0.000
REMARK  Name = C:\Users\Docking\Desktop\test protocol\1iep_ligandH.pdb
REMARK  8 active torsions:
REMARK  status: ('A' for Active; 'I' for Inactive)
REMARK    1  A    between atoms: _5  and  _11
REMARK    2  A    between atoms: _19  and  _21
REMARK    3  A    between atoms: _22  and  _66
REMARK    4  A    between atoms: _27  and  _30
REMARK    5  A    between atoms: _32  and  _33
REMARK    6  A    between atoms: _38  and  _43
REMARK    7  A    between atoms: _43  and  _46
REMARK    8  A    between atoms: _53  and  _55
REMARK                            x       y       z     vdW  Elec       q    Type
REMARK                         _______ _______ _______ _____ _____    ______ ____
ROOT
ATOM     10  C   UNL     1       9.294  23.159 -11.914  0.00  0.00    +0.038 A 
ATOM     11  C   UNL     1       8.210  23.857 -11.324  0.00  0.00    +0.047 A 
ATOM     12  C   UNL     1       6.929  23.972 -12.004  0.00  0.00    +0.035 A 
ATOM     32  C   UNL     1       6.788  23.361 -13.285  0.00  0.00    +0.024 A 
ATOM     33  C   UNL     1       7.880  22.649 -13.900  0.00  0.00    +0.007 A 
ATOM     34  C   UNL     1       9.146  22.535 -13.234  0.00  0.00    -0.029 A 
ATOM     35  C   UNL     1      10.284  21.765 -13.944  0.00  0.00    +0.045 C 
ENDROOT
BRANCH  10   9
ATOM      4  C   UNL     1      13.593  24.901 -10.681  0.00  0.00    +0.077 A 
ATOM      5  C   UNL     1      13.432  26.054 -11.519  0.00  0.00    +0.048 A 
ATOM      6  C   UNL     1      12.231  26.158 -12.257  0.00  0.00    +0.116 A 
ATOM      7  N   UNL     1      11.270  25.175 -12.155  0.00  0.00    -0.223 NA
ATOM      8  C   UNL     1      11.458  24.075 -11.339  0.00  0.00    +0.220 A 
ATOM      9  N   UNL     1      10.501  23.080 -11.216  0.00  0.00    -0.283 N 
ATOM     36  H   UNL     1      10.681  22.280 -10.608  0.00  0.00    +0.155 HD
ATOM     37  N   UNL     1      12.597  23.953 -10.625  0.00  0.00    -0.214 NA
BRANCH   4   3
ATOM      1  C   UNL     1      17.297  24.437  -9.512  0.00  0.00    +0.020 A 
ATOM      2  C   UNL     1      16.161  24.685 -10.370  0.00  0.00    +0.013 A 
ATOM      3  C   UNL     1      14.805  24.651  -9.837  0.00  0.00    +0.019 A 
ATOM     38  C   UNL     1      14.631  24.362  -8.422  0.00  0.00    +0.120 A 
ATOM     39  N   UNL     1      15.744  24.126  -7.621  0.00  0.00    -0.263 NA
ATOM     40  C   UNL     1      17.054  24.154  -8.122  0.00  0.00    +0.111 A 
ENDBRANCH   4   3
ENDBRANCH  10   9
BRANCH  12  13
ATOM     13  N   UNL     1       5.795  24.674 -11.458  0.00  0.00    -0.281 N 
ATOM     14  C   UNL     1       4.649  24.135 -10.895  0.00  0.00    +0.248 C 
ATOM     30  O   UNL     1       4.331  22.958 -10.970  0.00  0.00    -0.270 OA
ATOM     31  H   UNL     1       5.842  25.693 -11.490  0.00  0.00    +0.155 HD
BRANCH  14  15
ATOM     15  C   UNL     1       3.716  25.037 -10.154  0.00  0.00    +0.037 A 
ATOM     16  C   UNL     1       4.095  26.411  -9.815  0.00  0.00    +0.013 A 
ATOM     17  C   UNL     1       3.182  27.254  -9.085  0.00  0.00    +0.005 A 
ATOM     18  C   UNL     1       1.879  26.725  -8.690  0.00  0.00    -0.033 A 
ATOM     28  C   UNL     1       1.526  25.360  -9.044  0.00  0.00    +0.005 A 
ATOM     29  C   UNL     1       2.419  24.531  -9.759  0.00  0.00    +0.013 A 
BRANCH  18  19
ATOM     19  C   UNL     1       0.851  27.547  -7.890  0.00  0.00    +0.119 C 
BRANCH  19  20
ATOM     20  N   UNL     1       1.228  28.945  -7.524  0.00  0.00    -0.302 NA
ATOM     21  C   UNL     1       1.820  29.029  -6.115  0.00  0.00    +0.066 C 
ATOM     22  C   UNL     1       2.230  30.495  -5.757  0.00  0.00    -0.064 C 
ATOM     23  N   UNL     1       1.011  31.409  -5.888  0.00  0.00    +0.379 N 
ATOM     24  C   UNL     1       1.379  32.777  -5.496  0.00  0.00    -0.096 C 
ATOM     25  H   UNL     1       0.239  31.047  -5.169  0.00  0.00    -0.082 HD
ATOM     26  C   UNL     1       0.413  31.329  -7.285  0.00  0.00    -0.064 C 
ATOM     27  C   UNL     1       0.037  29.864  -7.642  0.00  0.00    +0.066 C 
ENDBRANCH  19  20
ENDBRANCH  18  19
ENDBRANCH  14  15
ENDBRANCH  12  13
TORSDOF 6
ENDMDL
MODEL 2
REMARK VINA RESULT:      -8.0      1.600      2.328
REMARK  Name = C:\Users\Docking\Desktop\test protocol\1iep_ligandH.pdb
REMARK  8 active torsions:
REMARK  status: ('A' for Active; 'I' for Inactive)
REMARK    1  A    between atoms: _5  and  _11
REMARK    2  A    between atoms: _19  and  _21
REMARK    3  A    between atoms: _22  and  _66
REMARK    4  A    between atoms: _27  and  _30
REMARK    5  A    between atoms: _32  and  _33
REMARK    6  A    between atoms: _38  and  _43
REMARK    7  A    between atoms: _43  and  _46
REMARK    8  A    between atoms: _53  and  _55
REMARK                            x       y       z     vdW  Elec       q    Type
REMARK                         _______ _______ _______ _____ _____    ______ ____
ROOT
ATOM     10  C   UNL     1      10.737  23.788 -11.124  0.00  0.00    +0.038 A 
ATOM     11  C   UNL     1       9.671  24.575 -10.619  0.00  0.00    +0.047 A 
ATOM     12  C   UNL     1       8.323  24.038 -10.516  0.00  0.00    +0.035 A 
ATOM     32  C   UNL     1       8.098  22.694 -10.933  0.00  0.00    +0.024 A 
ATOM     33  C   UNL     1       9.170  21.880 -11.450  0.00  0.00    +0.007 A 
ATOM     34  C   UNL     1      10.501  22.406 -11.557  0.00  0.00    -0.029 A 
ATOM     35  C   UNL     1      11.611  21.491 -12.125  0.00  0.00    +0.045 C 
ENDROOT
BRANCH  10   9
ATOM      4  C   UNL     1      15.118  24.612  -9.345  0.00  0.00    +0.077 A 
ATOM      5  C   UNL     1      14.836  23.874  -8.148  0.00  0.00    +0.048 A 
ATOM      6  C   UNL     1      13.549  23.304  -8.026  0.00  0.00    +0.116 A 
ATOM      7  N   UNL     1      12.621  23.466  -9.033  0.00  0.00    -0.223 NA
ATOM      8  C   UNL     1      12.926  24.186 -10.173  0.00  0.00    +0.220 A 
ATOM      9  N   UNL     1      12.012  24.355 -11.202  0.00  0.00    -0.283 N 
ATOM     36  H   UNL     1      12.272  24.899 -12.024  0.00  0.00    +0.155 HD
ATOM     37  N   UNL     1      14.148  24.741 -10.313  0.00  0.00    -0.214 NA
BRANCH   4   3
ATOM      1  C   UNL     1      17.841  27.192 -10.454  0.00  0.00    +0.020 A 
ATOM      2  C   UNL     1      16.546  26.601 -10.207  0.00  0.00    +0.013 A 
ATOM      3  C   UNL     1      16.434  25.271  -9.622  0.00  0.00    +0.019 A 
ATOM     38  C   UNL     1      17.661  24.560  -9.296  0.00  0.00    +0.120 A 
ATOM     39  N   UNL     1      18.894  25.154  -9.546  0.00  0.00    -0.263 NA
ATOM     40  C   UNL     1      19.014  26.433 -10.110  0.00  0.00    +0.111 A 
ENDBRANCH   4   3
ENDBRANCH  10   9
BRANCH  12  13
ATOM     13  N   UNL     1       7.199  24.791 -10.018  0.00  0.00    -0.281 N 
ATOM     14  C   UNL     1       5.931  24.891 -10.567  0.00  0.00    +0.248 C 
ATOM     30  O   UNL     1       5.633  24.516 -11.691  0.00  0.00    -0.270 OA
ATOM     31  H   UNL     1       7.357  25.315  -9.157  0.00  0.00    +0.155 HD
BRANCH  14  15
ATOM     15  C   UNL     1       4.840  25.511  -9.755  0.00  0.00    +0.037 A 
ATOM     16  C   UNL     1       4.627  25.136  -8.355  0.00  0.00    +0.013 A 
ATOM     17  C   UNL     1       3.557  25.737  -7.600  0.00  0.00    +0.005 A 
ATOM     18  C   UNL     1       2.690  26.721  -8.244  0.00  0.00    -0.033 A 
ATOM     28  C   UNL     1       2.926  27.078  -9.633  0.00  0.00    +0.005 A 
ATOM     29  C   UNL     1       3.974  26.491 -10.377  0.00  0.00    +0.013 A 
BRANCH  18  19
ATOM     19  C   UNL     1       1.511  27.397  -7.520  0.00  0.00    +0.119 C 
BRANCH  19  20
ATOM     20  N   UNL     1       1.661  28.840  -7.168  0.00  0.00    -0.302 NA
ATOM     21  C   UNL     1       2.013  29.037  -5.691  0.00  0.00    +0.066 C 
ATOM     22  C   UNL     1       2.189  30.551  -5.344  0.00  0.00    -0.064 C 
ATOM     23  N   UNL     1       0.907  31.306  -5.701  0.00  0.00    +0.379 N 
ATOM     24  C   UNL     1       1.048  32.719  -5.323  0.00  0.00    -0.096 C 
ATOM     25  H   UNL     1       0.080  30.873  -5.091  0.00  0.00    -0.082 HD
ATOM     26  C   UNL     1       0.548  31.113  -7.167  0.00  0.00    -0.064 C 
ATOM     27  C   UNL     1       0.405  29.603  -7.508  0.00  0.00    +0.066 C 
ENDBRANCH  19  20
ENDBRANCH  18  19
ENDBRANCH  14  15
ENDBRANCH  12  13
TORSDOF 6
ENDMDL
MODEL 3
REMARK VINA RESULT:      -7.7      7.340     13.326
REMARK  Name = C:\Users\Docking\Desktop\test protocol\1iep_ligandH.pdb
REMARK  8 active torsions:
REMARK  status: ('A' for Active; 'I' for Inactive)
REMARK    1  A    between atoms: _5  and  _11
REMARK    2  A    between atoms: _19  and  _21
REMARK    3  A    between atoms: _22  and  _66
REMARK    4  A    between atoms: _27  and  _30
REMARK    5  A    between atoms: _32  and  _33
REMARK    6  A    between atoms: _38  and  _43
REMARK    7  A    between atoms: _43  and  _46
REMARK    8  A    between atoms: _53  and  _55
REMARK                            x       y       z     vdW  Elec       q    Type
REMARK                         _______ _______ _______ _____ _____    ______ ____
ROOT
ATOM     10  C   UNL     1      10.536  21.668 -10.076  0.00  0.00    +0.038 A 
ATOM     11  C   UNL     1      10.942  20.318 -10.235  0.00  0.00    +0.047 A 
ATOM     12  C   UNL     1      10.035  19.318 -10.776  0.00  0.00    +0.035 A 
ATOM     32  C   UNL     1       8.721  19.728 -11.148  0.00  0.00    +0.024 A 
ATOM     33  C   UNL     1       8.291  21.096 -10.992  0.00  0.00    +0.007 A 
ATOM     34  C   UNL     1       9.181  22.086 -10.456  0.00  0.00    -0.029 A 
ATOM     35  C   UNL     1       8.664  23.536 -10.305  0.00  0.00    +0.045 C 
ENDROOT
BRANCH  10   9
ATOM      4  C   UNL     1      13.867  25.086 -10.583  0.00  0.00    +0.077 A 
ATOM      5  C   UNL     1      13.805  25.017 -12.014  0.00  0.00    +0.048 A 
ATOM      6  C   UNL     1      12.908  24.083 -12.581  0.00  0.00    +0.116 A 
ATOM      7  N   UNL     1      12.135  23.284 -11.766  0.00  0.00    -0.223 NA
ATOM      8  C   UNL     1      12.221  23.375 -10.389  0.00  0.00    +0.220 A 
ATOM      9  N   UNL     1      11.448  22.586  -9.551  0.00  0.00    -0.283 N 
ATOM     36  H   UNL     1      11.546  22.678  -8.540  0.00  0.00    +0.155 HD
ATOM     37  N   UNL     1      13.071  24.257  -9.824  0.00  0.00    -0.214 NA
BRANCH   4   3
ATOM      1  C   UNL     1      16.748  26.520  -8.359  0.00  0.00    +0.020 A 
ATOM      2  C   UNL     1      15.914  25.573  -9.062  0.00  0.00    +0.013 A 
ATOM      3  C   UNL     1      14.764  26.023  -9.835  0.00  0.00    +0.019 A 
ATOM     38  C   UNL     1      14.484  27.451  -9.878  0.00  0.00    +0.120 A 
ATOM     39  N   UNL     1      15.304  28.339  -9.190  0.00  0.00    -0.263 NA
ATOM     40  C   UNL     1      16.412  27.917  -8.441  0.00  0.00    +0.111 A 
ENDBRANCH   4   3
ENDBRANCH  10   9
BRANCH  12  13
ATOM     13  N   UNL     1      10.389  17.932 -10.953  0.00  0.00    -0.281 N 
ATOM     14  C   UNL     1      10.953  17.071 -10.025  0.00  0.00    +0.248 C 
ATOM     30  O   UNL     1      11.438  17.425  -8.961  0.00  0.00    -0.270 OA
ATOM     31  H   UNL     1      10.200  17.536 -11.874  0.00  0.00    +0.155 HD
BRANCH  14  15
ATOM     15  C   UNL     1      10.997  15.609 -10.330  0.00  0.00    +0.037 A 
ATOM     16  C   UNL     1       9.771  14.808 -10.392  0.00  0.00    +0.013 A 
ATOM     17  C   UNL     1       9.843  13.396 -10.671  0.00  0.00    +0.005 A 
ATOM     18  C   UNL     1      11.147  12.775 -10.891  0.00  0.00    -0.033 A 
ATOM     28  C   UNL     1      12.347  13.594 -10.829  0.00  0.00    +0.005 A 
ATOM     29  C   UNL     1      12.280  14.978 -10.555  0.00  0.00    +0.013 A 
BRANCH  18  19
ATOM     19  C   UNL     1      11.321  11.271 -11.174  0.00  0.00    +0.119 C 
BRANCH  19  20
ATOM     20  N   UNL     1      12.268  10.884 -12.262  0.00  0.00    -0.302 NA
ATOM     21  C   UNL     1      11.641   9.889 -13.243  0.00  0.00    +0.066 C 
ATOM     22  C   UNL     1      12.637   9.513 -14.387  0.00  0.00    -0.064 C 
ATOM     23  N   UNL     1      13.917   8.939 -13.776  0.00  0.00    +0.379 N 
ATOM     24  C   UNL     1      14.833   8.530 -14.852  0.00  0.00    -0.096 C 
ATOM     25  H   UNL     1      13.637   8.024 -13.204  0.00  0.00    -0.082 HD
ATOM     26  C   UNL     1      14.545   9.921 -12.798  0.00  0.00    -0.064 C 
ATOM     27  C   UNL     1      13.537  10.311 -11.682  0.00  0.00    +0.066 C 
ENDBRANCH  19  20
ENDBRANCH  18  19
ENDBRANCH  14  15
ENDBRANCH  12  13
TORSDOF 6
ENDMDL
MODEL 4
REMARK VINA RESULT:      -7.6      7.375     10.228
REMARK  Name = C:\Users\Docking\Desktop\test protocol\1iep_ligandH.pdb
REMARK  8 active torsions:
REMARK  status: ('A' for Active; 'I' for Inactive)
REMARK    1  A    between atoms: _5  and  _11
REMARK    2  A    between atoms: _19  and  _21
REMARK    3  A    between atoms: _22  and  _66
REMARK    4  A    between atoms: _27  and  _30
REMARK    5  A    between atoms: _32  and  _33
REMARK    6  A    between atoms: _38  and  _43
REMARK    7  A    between atoms: _43  and  _46
REMARK    8  A    between atoms: _53  and  _55
REMARK                            x       y       z     vdW  Elec       q    Type
REMARK                         _______ _______ _______ _____ _____    ______ ____
ROOT
ATOM     10  C   UNL     1      16.514  25.955  -8.660  0.00  0.00    +0.038 A 
ATOM     11  C   UNL     1      16.025  27.284  -8.582  0.00  0.00    +0.047 A 
ATOM     12  C   UNL     1      16.735  28.386  -9.211  0.00  0.00    +0.035 A 
ATOM     32  C   UNL     1      17.940  28.098  -9.916  0.00  0.00    +0.024 A 
ATOM     33  C   UNL     1      18.452  26.753 -10.006  0.00  0.00    +0.007 A 
ATOM     34  C   UNL     1      17.757  25.663  -9.384  0.00  0.00    -0.029 A 
ATOM     35  C   UNL     1      18.355  24.242  -9.507  0.00  0.00    +0.045 C 
ENDROOT
BRANCH  10   9
ATOM      4  C   UNL     1      12.905  22.794  -8.533  0.00  0.00    +0.077 A 
ATOM      5  C   UNL     1      12.400  23.228  -9.804  0.00  0.00    +0.048 A 
ATOM      6  C   UNL     1      13.095  24.273 -10.454  0.00  0.00    +0.116 A 
ATOM      7  N   UNL     1      14.209  24.833  -9.868  0.00  0.00    -0.223 NA
ATOM      8  C   UNL     1      14.668  24.392  -8.641  0.00  0.00    +0.220 A 
ATOM      9  N   UNL     1      15.791  24.936  -8.037  0.00  0.00    -0.283 N 
ATOM     36  H   UNL     1      16.093  24.587  -7.127  0.00  0.00    +0.155 HD
ATOM     37  N   UNL     1      14.021  23.396  -7.999  0.00  0.00    -0.214 NA
BRANCH   4   3
ATOM      1  C   UNL     1      12.127  19.301  -6.951  0.00  0.00    +0.020 A 
ATOM      2  C   UNL     1      12.763  20.322  -7.752  0.00  0.00    +0.013 A 
ATOM      3  C   UNL     1      12.282  21.698  -7.724  0.00  0.00    +0.019 A 
ATOM     38  C   UNL     1      11.148  22.010  -6.868  0.00  0.00    +0.120 A 
ATOM     39  N   UNL     1      10.554  21.007  -6.109  0.00  0.00    -0.263 NA
ATOM     40  C   UNL     1      11.007  19.679  -6.129  0.00  0.00    +0.111 A 
ENDBRANCH   4   3
ENDBRANCH  10   9
BRANCH  12  13
ATOM     13  N   UNL     1      16.291  29.757  -9.158  0.00  0.00    -0.281 N 
ATOM     14  C   UNL     1      15.768  30.523 -10.187  0.00  0.00    +0.248 C 
ATOM     30  O   UNL     1      15.801  30.210 -11.368  0.00  0.00    -0.270 OA
ATOM     31  H   UNL     1      16.373  30.219  -8.252  0.00  0.00    +0.155 HD
BRANCH  14  15
ATOM     15  C   UNL     1      15.129  31.834  -9.858  0.00  0.00    +0.037 A 
ATOM     16  C   UNL     1      15.533  32.601  -8.677  0.00  0.00    +0.013 A 
ATOM     17  C   UNL     1      14.888  33.854  -8.373  0.00  0.00    +0.005 A 
ATOM     18  C   UNL     1      13.832  34.348  -9.254  0.00  0.00    -0.033 A 
ATOM     28  C   UNL     1      13.454  33.569 -10.421  0.00  0.00    +0.005 A 
ATOM     29  C   UNL     1      14.084  32.340 -10.722  0.00  0.00    +0.013 A 
BRANCH  18  19
ATOM     19  C   UNL     1      13.075  35.664  -8.995  0.00  0.00    +0.119 C 
BRANCH  19  20
ATOM     20  N   UNL     1      11.671  35.756  -9.498  0.00  0.00    -0.302 NA
ATOM     21  C   UNL     1      11.480  36.934 -10.456  0.00  0.00    +0.066 C 
ATOM     22  C   UNL     1      10.012  37.002 -10.989  0.00  0.00    -0.064 C 
ATOM     23  N   UNL     1       9.047  37.103  -9.807  0.00  0.00    +0.379 N 
ATOM     24  C   UNL     1       7.669  37.225 -10.307  0.00  0.00    -0.096 C 
ATOM     25  H   UNL     1       9.289  38.039  -9.252  0.00  0.00    -0.082 HD
ATOM     26  C   UNL     1       9.232  35.936  -8.847  0.00  0.00    -0.064 C 
ATOM     27  C   UNL     1      10.701  35.860  -8.346  0.00  0.00    +0.066 C 
ENDBRANCH  19  20
ENDBRANCH  18  19
ENDBRANCH  14  15
ENDBRANCH  12  13
TORSDOF 6
ENDMDL
MODEL 5
REMARK VINA RESULT:      -7.6      6.826     10.214
REMARK  Name = C:\Users\Docking\Desktop\test protocol\1iep_ligandH.pdb
REMARK  8 active torsions:
REMARK  status: ('A' for Active; 'I' for Inactive)
REMARK    1  A    between atoms: _5  and  _11
REMARK    2  A    between atoms: _19  and  _21
REMARK    3  A    between atoms: _22  and  _66
REMARK    4  A    between atoms: _27  and  _30
REMARK    5  A    between atoms: _32  and  _33
REMARK    6  A    between atoms: _38  and  _43
REMARK    7  A    between atoms: _43  and  _46
REMARK    8  A    between atoms: _53  and  _55
REMARK                            x       y       z     vdW  Elec       q    Type
REMARK                         _______ _______ _______ _____ _____    ______ ____
ROOT
ATOM     10  C   UNL     1      15.485  26.146 -10.497  0.00  0.00    +0.038 A 
ATOM     11  C   UNL     1      15.074  27.487 -10.291  0.00  0.00    +0.047 A 
ATOM     12  C   UNL     1      15.876  28.407  -9.499  0.00  0.00    +0.035 A 
ATOM     32  C   UNL     1      17.093  27.927  -8.933  0.00  0.00    +0.024 A 
ATOM     33  C   UNL     1      17.525  26.566  -9.131  0.00  0.00    +0.007 A 
ATOM     34  C   UNL     1      16.737  25.653  -9.909  0.00  0.00    -0.029 A 
ATOM     35  C   UNL     1      17.246  24.203 -10.083  0.00  0.00    +0.045 C 
ENDROOT
BRANCH  10   9
ATOM      4  C   UNL     1      11.815  23.092 -10.989  0.00  0.00    +0.077 A 
ATOM      5  C   UNL     1      11.499  23.154  -9.591  0.00  0.00    +0.048 A 
ATOM      6  C   UNL     1      12.309  23.978  -8.779  0.00  0.00    +0.116 A 
ATOM      7  N   UNL     1      13.355  24.683  -9.333  0.00  0.00    -0.223 NA
ATOM      8  C   UNL     1      13.634  24.599 -10.685  0.00  0.00    +0.220 A 
ATOM      9  N   UNL     1      14.676  25.306 -11.266  0.00  0.00    -0.283 N 
ATOM     36  H   UNL     1      14.854  25.211 -12.265  0.00  0.00    +0.155 HD
ATOM     37  N   UNL     1      12.876  23.818 -11.482  0.00  0.00    -0.214 NA
BRANCH   4   3
ATOM      1  C   UNL     1       9.502  22.014 -13.954  0.00  0.00    +0.020 A 
ATOM      2  C   UNL     1      10.221  22.854 -13.024  0.00  0.00    +0.013 A 
ATOM      3  C   UNL     1      11.049  22.268 -11.977  0.00  0.00    +0.019 A 
ATOM     38  C   UNL     1      11.129  20.817 -11.899  0.00  0.00    +0.120 A 
ATOM     39  N   UNL     1      10.424  20.034 -12.807  0.00  0.00    -0.263 NA
ATOM     40  C   UNL     1       9.623  20.586 -13.817  0.00  0.00    +0.111 A 
ENDBRANCH   4   3
ENDBRANCH  10   9
BRANCH  12  13
ATOM     13  N   UNL     1      15.506  29.778  -9.250  0.00  0.00    -0.281 N 
ATOM     14  C   UNL     1      15.752  30.885 -10.046  0.00  0.00    +0.248 C 
ATOM     30  O   UNL     1      16.519  30.895 -10.997  0.00  0.00    -0.270 OA
ATOM     31  H   UNL     1      15.002  29.954  -8.381  0.00  0.00    +0.155 HD
BRANCH  14  15
ATOM     15  C   UNL     1      15.056  32.170  -9.731  0.00  0.00    +0.037 A 
ATOM     16  C   UNL     1      15.409  32.954  -8.545  0.00  0.00    +0.013 A 
ATOM     17  C   UNL     1      14.710  34.181  -8.256  0.00  0.00    +0.005 A 
ATOM     18  C   UNL     1      13.651  34.632  -9.156  0.00  0.00    -0.033 A 
ATOM     28  C   UNL     1      13.325  33.837 -10.328  0.00  0.00    +0.005 A 
ATOM     29  C   UNL     1      14.007  32.633 -10.615  0.00  0.00    +0.013 A 
BRANCH  18  19
ATOM     19  C   UNL     1      12.838  35.918  -8.914  0.00  0.00    +0.119 C 
BRANCH  19  20
ATOM     20  N   UNL     1      11.457  35.970  -9.478  0.00  0.00    -0.302 NA
ATOM     21  C   UNL     1      11.282  37.127 -10.465  0.00  0.00    +0.066 C 
ATOM     22  C   UNL     1       9.838  37.153 -11.063  0.00  0.00    -0.064 C 
ATOM     23  N   UNL     1       8.820  37.254  -9.925  0.00  0.00    +0.379 N 
ATOM     24  C   UNL     1       7.464  37.337 -10.486  0.00  0.00    -0.096 C 
ATOM     25  H   UNL     1       9.019  38.204  -9.378  0.00  0.00    -0.082 HD
ATOM     26  C   UNL     1       8.988  36.108  -8.937  0.00  0.00    -0.064 C 
ATOM     27  C   UNL     1      10.436  36.074  -8.371  0.00  0.00    +0.066 C 
ENDBRANCH  19  20
ENDBRANCH  18  19
ENDBRANCH  14  15
ENDBRANCH  12  13
TORSDOF 6
ENDMDL
