MODEL 1
REMARK VINA RESULT:      -9.4      0.000      0.000
REMARK  Name = C:\Users\Docking\Desktop\test protocol\1iep_ligandH.pdb
REMARK  8 active torsions:
REMARK  status: ('A' for Active; 'I' for Inactive)
REMARK    1  A    between atoms: _5  and  _11
REMARK    2  A    between atoms: _19  and  _21
REMARK    3  A    between atoms: _22  and  _66
REMARK    4  A    between atoms: _27  and  _30
REMARK    5  A    between atoms: _32  and  _33
REMARK    6  A    between atoms: _38  and  _43
REMARK    7  A    between atoms: _43  and  _46
REMARK    8  A    between atoms: _53  and  _55
REMARK                            x       y       z     vdW  Elec       q    Type
REMARK                         _______ _______ _______ _____ _____    ______ ____
ROOT
ATOM     10  C   UNL     1      22.485  41.380  44.475  0.00  0.00    +0.038 A 
ATOM     11  C   UNL     1      22.853  40.088  44.020  0.00  0.00    +0.047 A 
ATOM     12  C   UNL     1      22.682  39.703  42.628  0.00  0.00    +0.035 A 
ATOM     32  C   UNL     1      22.135  40.661  41.725  0.00  0.00    +0.024 A 
ATOM     33  C   UNL     1      21.755  41.978  42.170  0.00  0.00    +0.007 A 
ATOM     34  C   UNL     1      21.919  42.363  43.543  0.00  0.00    -0.029 A 
ATOM     35  C   UNL     1      21.487  43.786  43.965  0.00  0.00    +0.045 C 
ENDROOT
BRANCH  10   9
ATOM      4  C   UNL     1      21.078  41.346  49.064  0.00  0.00    +0.077 A 
ATOM      5  C   UNL     1      19.857  40.664  48.746  0.00  0.00    +0.048 A 
ATOM      6  C   UNL     1      19.625  40.347  47.389  0.00  0.00    +0.116 A 
ATOM      7  N   UNL     1      20.553  40.690  46.429  0.00  0.00    -0.223 NA
ATOM      8  C   UNL     1      21.720  41.349  46.770  0.00  0.00    +0.220 A 
ATOM      9  N   UNL     1      22.671  41.696  45.822  0.00  0.00    -0.283 N 
ATOM     36  H   UNL     1      23.516  42.188  46.113  0.00  0.00    +0.155 HD
ATOM     37  N   UNL     1      21.964  41.665  48.059  0.00  0.00    -0.214 NA
BRANCH   4   3
ATOM      1  C   UNL     1      20.949  42.178  52.884  0.00  0.00    +0.020 A 
ATOM      2  C   UNL     1      20.522  41.784  51.561  0.00  0.00    +0.013 A 
ATOM      3  C   UNL     1      21.468  41.747  50.453  0.00  0.00    +0.019 A 
ATOM     38  C   UNL     1      22.850  42.116  50.719  0.00  0.00    +0.120 A 
ATOM     39  N   UNL     1      23.232  42.492  52.002  0.00  0.00    -0.263 NA
ATOM     40  C   UNL     1      22.330  42.533  53.076  0.00  0.00    +0.111 A 
ENDBRANCH   4   3
ENDBRANCH  10   9
BRANCH  12  13
ATOM     13  N   UNL     1      23.030  38.403  42.110  0.00  0.00    -0.281 N 
ATOM     14  C   UNL     1      22.244  37.264  42.072  0.00  0.00    +0.248 C 
ATOM     30  O   UNL     1      21.189  37.131  42.674  0.00  0.00    -0.270 OA
ATOM     31  H   UNL     1      23.971  38.312  41.726  0.00  0.00    +0.155 HD
BRANCH  14  15
ATOM     15  C   UNL     1      22.703  36.097  41.258  0.00  0.00    +0.037 A 
ATOM     16  C   UNL     1      23.447  34.991  41.866  0.00  0.00    +0.013 A 
ATOM     17  C   UNL     1      23.892  33.886  41.055  0.00  0.00    +0.005 A 
ATOM     18  C   UNL     1      23.593  33.881  39.625  0.00  0.00    -0.033 A 
ATOM     28  C   UNL     1      22.849  34.989  39.048  0.00  0.00    +0.005 A 
ATOM     29  C   UNL     1      22.411  36.074  39.840  0.00  0.00    +0.013 A 
BRANCH  18  19
ATOM     19  C   UNL     1      24.048  32.754  38.679  0.00  0.00    +0.119 C 
BRANCH  19  20
ATOM     20  N   UNL     1      25.431  32.844  38.123  0.00  0.00    -0.302 NA
ATOM     21  C   UNL     1      25.960  34.281  38.128  0.00  0.00    +0.066 C 
ATOM     22  C   UNL     1      27.416  34.354  37.564  0.00  0.00    -0.064 C 
ATOM     23  N   UNL     1      27.442  33.772  36.150  0.00  0.00    +0.379 N 
ATOM     24  C   UNL     1      28.798  33.892  35.595  0.00  0.00    -0.096 C 
ATOM     25  H   UNL     1      26.762  34.390  35.518  0.00  0.00    -0.082 HD
ATOM     26  C   UNL     1      26.915  32.344  36.135  0.00  0.00    -0.064 C 
ATOM     27  C   UNL     1      25.479  32.279  36.725  0.00  0.00    +0.066 C 
ENDBRANCH  19  20
ENDBRANCH  18  19
ENDBRANCH  14  15
ENDBRANCH  12  13
TORSDOF 6
ENDMDL
MODEL 2
REMARK VINA RESULT:      -8.7     18.144     21.045
REMARK  Name = C:\Users\Docking\Desktop\test protocol\1iep_ligandH.pdb
REMARK  8 active torsions:
REMARK  status: ('A' for Active; 'I' for Inactive)
REMARK    1  A    between atoms: _5  and  _11
REMARK    2  A    between atoms: _19  and  _21
REMARK    3  A    between atoms: _22  and  _66
REMARK    4  A    between atoms: _27  and  _30
REMARK    5  A    between atoms: _32  and  _33
REMARK    6  A    between atoms: _38  and  _43
REMARK    7  A    between atoms: _43  and  _46
REMARK    8  A    between atoms: _53  and  _55
REMARK                            x       y       z     vdW  Elec       q    Type
REMARK                         _______ _______ _______ _____ _____    ______ ____
ROOT
ATOM     10  C   UNL     1       7.514  36.751  60.062  0.00  0.00    +0.038 A 
ATOM     11  C   UNL     1       8.492  35.845  59.577  0.00  0.00    +0.047 A 
ATOM     12  C   UNL     1       9.260  35.009  60.486  0.00  0.00    +0.035 A 
ATOM     32  C   UNL     1       9.005  35.120  61.884  0.00  0.00    +0.024 A 
ATOM     33  C   UNL     1       8.016  36.036  62.395  0.00  0.00    +0.007 A 
ATOM     34  C   UNL     1       7.257  36.865  61.503  0.00  0.00    -0.029 A 
ATOM     35  C   UNL     1       6.214  37.835  62.107  0.00  0.00    +0.045 C 
ENDROOT
BRANCH  10   9
ATOM      4  C   UNL     1       6.803  40.825  57.625  0.00  0.00    +0.077 A 
ATOM      5  C   UNL     1       7.923  41.466  58.254  0.00  0.00    +0.048 A 
ATOM      6  C   UNL     1       8.651  40.715  59.204  0.00  0.00    +0.116 A 
ATOM      7  N   UNL     1       8.279  39.420  59.495  0.00  0.00    -0.223 NA
ATOM      8  C   UNL     1       7.193  38.833  58.872  0.00  0.00    +0.220 A 
ATOM      9  N   UNL     1       6.806  37.530  59.144  0.00  0.00    -0.283 N 
ATOM     36  H   UNL     1       5.994  37.135  58.669  0.00  0.00    +0.155 HD
ATOM     37  N   UNL     1       6.480  39.530  57.963  0.00  0.00    -0.214 NA
BRANCH   4   3
ATOM      1  C   UNL     1       4.699  41.516  54.401  0.00  0.00    +0.020 A 
ATOM      2  C   UNL     1       5.537  40.832  55.360  0.00  0.00    +0.013 A 
ATOM      3  C   UNL     1       5.938  41.487  56.599  0.00  0.00    +0.019 A 
ATOM     38  C   UNL     1       5.469  42.843  56.840  0.00  0.00    +0.120 A 
ATOM     39  N   UNL     1       4.665  43.477  55.898  0.00  0.00    -0.263 NA
ATOM     40  C   UNL     1       4.274  42.858  54.701  0.00  0.00    +0.111 A 
ENDBRANCH   4   3
ENDBRANCH  10   9
BRANCH  12  13
ATOM     13  N   UNL     1      10.271  34.077  60.052  0.00  0.00    -0.281 N 
ATOM     14  C   UNL     1      10.331  32.714  60.291  0.00  0.00    +0.248 C 
ATOM     30  O   UNL     1       9.632  32.123  61.100  0.00  0.00    -0.270 OA
ATOM     31  H   UNL     1      11.035  34.470  59.501  0.00  0.00    +0.155 HD
BRANCH  14  15
ATOM     15  C   UNL     1      11.322  31.891  59.532  0.00  0.00    +0.037 A 
ATOM     16  C   UNL     1      12.745  31.904  59.879  0.00  0.00    +0.013 A 
ATOM     17  C   UNL     1      13.682  31.114  59.119  0.00  0.00    +0.005 A 
ATOM     18  C   UNL     1      13.196  30.302  58.006  0.00  0.00    -0.033 A 
ATOM     28  C   UNL     1      11.778  30.304  57.687  0.00  0.00    +0.005 A 
ATOM     29  C   UNL     1      10.857  31.078  58.428  0.00  0.00    +0.013 A 
BRANCH  18  19
ATOM     19  C   UNL     1      14.127  29.445  57.128  0.00  0.00    +0.119 C 
BRANCH  19  20
ATOM     20  N   UNL     1      15.561  29.356  57.535  0.00  0.00    -0.302 NA
ATOM     21  C   UNL     1      16.451  30.293  56.714  0.00  0.00    +0.066 C 
ATOM     22  C   UNL     1      17.944  30.203  57.169  0.00  0.00    -0.064 C 
ATOM     23  N   UNL     1      18.425  28.756  57.048  0.00  0.00    +0.379 N 
ATOM     24  C   UNL     1      19.845  28.679  57.420  0.00  0.00    -0.096 C 
ATOM     25  H   UNL     1      18.339  28.460  55.977  0.00  0.00    -0.082 HD
ATOM     26  C   UNL     1      17.544  27.817  57.860  0.00  0.00    -0.064 C 
ATOM     27  C   UNL     1      16.058  27.935  57.420  0.00  0.00    +0.066 C 
ENDBRANCH  19  20
ENDBRANCH  18  19
ENDBRANCH  14  15
ENDBRANCH  12  13
TORSDOF 6
ENDMDL
MODEL 3
REMARK VINA RESULT:      -8.7     18.056     22.901
REMARK  Name = C:\Users\Docking\Desktop\test protocol\1iep_ligandH.pdb
REMARK  8 active torsions:
REMARK  status: ('A' for Active; 'I' for Inactive)
REMARK    1  A    between atoms: _5  and  _11
REMARK    2  A    between atoms: _19  and  _21
REMARK    3  A    between atoms: _22  and  _66
REMARK    4  A    between atoms: _27  and  _30
REMARK    5  A    between atoms: _32  and  _33
REMARK    6  A    between atoms: _38  and  _43
REMARK    7  A    between atoms: _43  and  _46
REMARK    8  A    between atoms: _53  and  _55
REMARK                            x       y       z     vdW  Elec       q    Type
REMARK                         _______ _______ _______ _____ _____    ______ ____
ROOT
ATOM     10  C   UNL     1      11.891  33.486  61.753  0.00  0.00    +0.038 A 
ATOM     11  C   UNL     1      11.000  34.383  61.111  0.00  0.00    +0.047 A 
ATOM     12  C   UNL     1       9.909  35.011  61.840  0.00  0.00    +0.035 A 
ATOM     32  C   UNL     1       9.757  34.704  63.223  0.00  0.00    +0.024 A 
ATOM     33  C   UNL     1      10.653  33.794  63.892  0.00  0.00    +0.007 A 
ATOM     34  C   UNL     1      11.729  33.170  63.177  0.00  0.00    -0.029 A 
ATOM     35  C   UNL     1      12.655  32.196  63.943  0.00  0.00    +0.045 C 
ENDROOT
BRANCH  10   9
ATOM      4  C   UNL     1      13.485  30.683  58.197  0.00  0.00    +0.077 A 
ATOM      5  C   UNL     1      12.153  30.310  57.815  0.00  0.00    +0.048 A 
ATOM      6  C   UNL     1      11.086  30.855  58.564  0.00  0.00    +0.116 A 
ATOM      7  N   UNL     1      11.344  31.710  59.614  0.00  0.00    -0.223 NA
ATOM      8  C   UNL     1      12.640  32.048  59.957  0.00  0.00    +0.220 A 
ATOM      9  N   UNL     1      12.921  32.912  61.004  0.00  0.00    -0.283 N 
ATOM     36  H   UNL     1      13.891  33.131  61.231  0.00  0.00    +0.155 HD
ATOM     37  N   UNL     1      13.676  31.539  59.259  0.00  0.00    -0.214 NA
BRANCH   4   3
ATOM      1  C   UNL     1      15.942  29.316  55.478  0.00  0.00    +0.020 A 
ATOM      2  C   UNL     1      14.726  29.782  56.103  0.00  0.00    +0.013 A 
ATOM      3  C   UNL     1      14.716  30.192  57.502  0.00  0.00    +0.019 A 
ATOM     38  C   UNL     1      15.964  30.118  58.246  0.00  0.00    +0.120 A 
ATOM     39  N   UNL     1      17.120  29.664  57.618  0.00  0.00    -0.263 NA
ATOM     40  C   UNL     1      17.141  29.265  56.273  0.00  0.00    +0.111 A 
ENDBRANCH   4   3
ENDBRANCH  10   9
BRANCH  12  13
ATOM     13  N   UNL     1       8.968  35.924  61.239  0.00  0.00    -0.281 N 
ATOM     14  C   UNL     1       9.181  37.239  60.860  0.00  0.00    +0.248 C 
ATOM     30  O   UNL     1      10.159  37.900  61.177  0.00  0.00    -0.270 OA
ATOM     31  H   UNL     1       8.031  35.556  61.074  0.00  0.00    +0.155 HD
BRANCH  14  15
ATOM     15  C   UNL     1       8.153  37.923  60.018  0.00  0.00    +0.037 A 
ATOM     16  C   UNL     1       8.082  39.385  59.943  0.00  0.00    +0.013 A 
ATOM     17  C   UNL     1       7.070  40.020  59.137  0.00  0.00    +0.005 A 
ATOM     18  C   UNL     1       6.120  39.192  58.398  0.00  0.00    -0.033 A 
ATOM     28  C   UNL     1       6.216  37.744  58.486  0.00  0.00    +0.005 A 
ATOM     29  C   UNL     1       7.206  37.119  59.276  0.00  0.00    +0.013 A 
BRANCH  18  19
ATOM     19  C   UNL     1       4.993  39.784  57.530  0.00  0.00    +0.119 C 
BRANCH  19  20
ATOM     20  N   UNL     1       5.387  40.763  56.473  0.00  0.00    -0.302 NA
ATOM     21  C   UNL     1       4.174  41.307  55.714  0.00  0.00    +0.066 C 
ATOM     22  C   UNL     1       4.602  42.346  54.627  0.00  0.00    -0.064 C 
ATOM     23  N   UNL     1       5.596  41.694  53.664  0.00  0.00    +0.379 N 
ATOM     24  C   UNL     1       5.956  42.651  52.608  0.00  0.00    -0.096 C 
ATOM     25  H   UNL     1       5.080  40.832  53.180  0.00  0.00    -0.082 HD
ATOM     26  C   UNL     1       6.804  41.147  54.412  0.00  0.00    -0.064 C 
ATOM     27  C   UNL     1       6.365  40.138  55.509  0.00  0.00    +0.066 C 
ENDBRANCH  19  20
ENDBRANCH  18  19
ENDBRANCH  14  15
ENDBRANCH  12  13
TORSDOF 6
ENDMDL
MODEL 4
REMARK VINA RESULT:      -8.6      2.650     13.649
REMARK  Name = C:\Users\Docking\Desktop\test protocol\1iep_ligandH.pdb
REMARK  8 active torsions:
REMARK  status: ('A' for Active; 'I' for Inactive)
REMARK    1  A    between atoms: _5  and  _11
REMARK    2  A    between atoms: _19  and  _21
REMARK    3  A    between atoms: _22  and  _66
REMARK    4  A    between atoms: _27  and  _30
REMARK    5  A    between atoms: _32  and  _33
REMARK    6  A    between atoms: _38  and  _43
REMARK    7  A    between atoms: _43  and  _46
REMARK    8  A    between atoms: _53  and  _55
REMARK                            x       y       z     vdW  Elec       q    Type
REMARK                         _______ _______ _______ _____ _____    ______ ____
ROOT
ATOM     10  C   UNL     1      24.631  34.456  39.087  0.00  0.00    +0.038 A 
ATOM     11  C   UNL     1      24.433  35.677  39.780  0.00  0.00    +0.047 A 
ATOM     12  C   UNL     1      23.740  35.713  41.059  0.00  0.00    +0.035 A 
ATOM     32  C   UNL     1      23.265  34.485  41.604  0.00  0.00    +0.024 A 
ATOM     33  C   UNL     1      23.456  33.234  40.913  0.00  0.00    +0.007 A 
ATOM     34  C   UNL     1      24.136  33.193  39.650  0.00  0.00    -0.029 A 
ATOM     35  C   UNL     1      24.308  31.825  38.949  0.00  0.00    +0.045 C 
ENDROOT
BRANCH  10   9
ATOM      4  C   UNL     1      24.707  34.912  34.310  0.00  0.00    +0.077 A 
ATOM      5  C   UNL     1      23.285  35.091  34.245  0.00  0.00    +0.048 A 
ATOM      6  C   UNL     1      22.570  35.052  35.463  0.00  0.00    +0.116 A 
ATOM      7  N   UNL     1      23.238  34.848  36.651  0.00  0.00    -0.223 NA
ATOM      8  C   UNL     1      24.610  34.677  36.678  0.00  0.00    +0.220 A 
ATOM      9  N   UNL     1      25.302  34.480  37.863  0.00  0.00    -0.283 N 
ATOM     36  H   UNL     1      26.313  34.350  37.840  0.00  0.00    +0.155 HD
ATOM     37  N   UNL     1      25.315  34.709  35.529  0.00  0.00    -0.214 NA
BRANCH   4   3
ATOM      1  C   UNL     1      27.611  34.140  31.805  0.00  0.00    +0.020 A 
ATOM      2  C   UNL     1      26.781  34.083  32.986  0.00  0.00    +0.013 A 
ATOM      3  C   UNL     1      25.602  34.931  33.109  0.00  0.00    +0.019 A 
ATOM     38  C   UNL     1      25.287  35.830  32.010  0.00  0.00    +0.120 A 
ATOM     39  N   UNL     1      26.106  35.864  30.885  0.00  0.00    -0.263 NA
ATOM     40  C   UNL     1      27.244  35.055  30.757  0.00  0.00    +0.111 A 
ENDBRANCH   4   3
ENDBRANCH  10   9
BRANCH  12  13
ATOM     13  N   UNL     1      23.503  36.924  41.805  0.00  0.00    -0.281 N 
ATOM     14  C   UNL     1      23.694  38.231  41.390  0.00  0.00    +0.248 C 
ATOM     30  O   UNL     1      24.305  38.553  40.382  0.00  0.00    -0.270 OA
ATOM     31  H   UNL     1      23.150  36.802  42.755  0.00  0.00    +0.155 HD
BRANCH  14  15
ATOM     15  C   UNL     1      23.140  39.342  42.222  0.00  0.00    +0.037 A 
ATOM     16  C   UNL     1      22.569  40.542  41.605  0.00  0.00    +0.013 A 
ATOM     17  C   UNL     1      22.057  41.606  42.431  0.00  0.00    +0.005 A 
ATOM     18  C   UNL     1      22.112  41.473  43.885  0.00  0.00    -0.033 A 
ATOM     28  C   UNL     1      22.678  40.270  44.471  0.00  0.00    +0.005 A 
ATOM     29  C   UNL     1      23.183  39.225  43.664  0.00  0.00    +0.013 A 
BRANCH  18  19
ATOM     19  C   UNL     1      21.607  42.568  44.845  0.00  0.00    +0.119 C 
BRANCH  19  20
ATOM     20  N   UNL     1      21.271  42.153  46.239  0.00  0.00    -0.302 NA
ATOM     21  C   UNL     1      19.851  42.566  46.635  0.00  0.00    +0.066 C 
ATOM     22  C   UNL     1      19.508  42.104  48.089  0.00  0.00    -0.064 C 
ATOM     23  N   UNL     1      20.533  42.690  49.062  0.00  0.00    +0.379 N 
ATOM     24  C   UNL     1      20.180  42.305  50.436  0.00  0.00    -0.096 C 
ATOM     25  H   UNL     1      20.467  43.800  48.994  0.00  0.00    -0.082 HD
ATOM     26  C   UNL     1      21.948  42.286  48.674  0.00  0.00    -0.064 C 
ATOM     27  C   UNL     1      22.268  42.724  47.217  0.00  0.00    +0.066 C 
ENDBRANCH  19  20
ENDBRANCH  18  19
ENDBRANCH  14  15
ENDBRANCH  12  13
TORSDOF 6
ENDMDL
MODEL 5
REMARK VINA RESULT:      -8.6     15.994     20.537
REMARK  Name = C:\Users\Docking\Desktop\test protocol\1iep_ligandH.pdb
REMARK  8 active torsions:
REMARK  status: ('A' for Active; 'I' for Inactive)
REMARK    1  A    between atoms: _5  and  _11
REMARK    2  A    between atoms: _19  and  _21
REMARK    3  A    between atoms: _22  and  _66
REMARK    4  A    between atoms: _27  and  _30
REMARK    5  A    between atoms: _32  and  _33
REMARK    6  A    between atoms: _38  and  _43
REMARK    7  A    between atoms: _43  and  _46
REMARK    8  A    between atoms: _53  and  _55
REMARK                            x       y       z     vdW  Elec       q    Type
REMARK                         _______ _______ _______ _____ _____    ______ ____
ROOT
ATOM     10  C   UNL     1       8.716  34.871  60.688  0.00  0.00    +0.038 A 
ATOM     11  C   UNL     1       9.670  34.098  59.978  0.00  0.00    +0.047 A 
ATOM     12  C   UNL     1      10.613  33.240  60.678  0.00  0.00    +0.035 A 
ATOM     32  C   UNL     1      10.555  33.190  62.101  0.00  0.00    +0.024 A 
ATOM     33  C   UNL     1       9.592  33.970  62.838  0.00  0.00    +0.007 A 
ATOM     34  C   UNL     1       8.661  34.820  62.154  0.00  0.00    -0.029 A 
ATOM     35  C   UNL     1       7.654  35.639  62.996  0.00  0.00    +0.045 C 
ENDROOT
BRANCH  10   9
ATOM      4  C   UNL     1       7.359  39.113  58.899  0.00  0.00    +0.077 A 
ATOM      5  C   UNL     1       8.489  39.784  59.475  0.00  0.00    +0.048 A 
ATOM      6  C   UNL     1       9.392  39.002  60.230  0.00  0.00    +0.116 A 
ATOM      7  N   UNL     1       9.172  37.652  60.391  0.00  0.00    -0.223 NA
ATOM      8  C   UNL     1       8.071  37.036  59.824  0.00  0.00    +0.220 A 
ATOM      9  N   UNL     1       7.834  35.678  59.966  0.00  0.00    -0.283 N 
ATOM     36  H   UNL     1       7.006  35.263  59.538  0.00  0.00    +0.155 HD
ATOM     37  N   UNL     1       7.193  37.761  59.099  0.00  0.00    -0.214 NA
BRANCH   4   3
ATOM      1  C   UNL     1       5.275  40.435  55.865  0.00  0.00    +0.020 A 
ATOM      2  C   UNL     1       6.303  39.752  56.616  0.00  0.00    +0.013 A 
ATOM      3  C   UNL     1       6.319  39.802  58.073  0.00  0.00    +0.019 A 
ATOM     38  C   UNL     1       5.271  40.557  58.744  0.00  0.00    +0.120 A 
ATOM     39  N   UNL     1       4.294  41.205  57.994  0.00  0.00    -0.263 NA
ATOM     40  C   UNL     1       4.270  41.165  56.591  0.00  0.00    +0.111 A 
ENDBRANCH   4   3
ENDBRANCH  10   9
BRANCH  12  13
ATOM     13  N   UNL     1      11.610  32.439  60.011  0.00  0.00    -0.281 N 
ATOM     14  C   UNL     1      12.880  32.113  60.459  0.00  0.00    +0.248 C 
ATOM     30  O   UNL     1      13.433  32.640  61.412  0.00  0.00    -0.270 OA
ATOM     31  H   UNL     1      11.347  32.067  59.098  0.00  0.00    +0.155 HD
BRANCH  14  15
ATOM     15  C   UNL     1      13.652  31.058  59.734  0.00  0.00    +0.037 A 
ATOM     16  C   UNL     1      14.667  30.254  60.419  0.00  0.00    +0.013 A 
ATOM     17  C   UNL     1      15.409  29.254  59.693  0.00  0.00    +0.005 A 
ATOM     18  C   UNL     1      15.138  29.053  58.271  0.00  0.00    -0.033 A 
ATOM     28  C   UNL     1      14.122  29.861  57.618  0.00  0.00    +0.005 A 
ATOM     29  C   UNL     1      13.393  30.842  58.326  0.00  0.00    +0.013 A 
BRANCH  18  19
ATOM     19  C   UNL     1      15.897  28.024  57.413  0.00  0.00    +0.119 C 
BRANCH  19  20
ATOM     20  N   UNL     1      16.604  28.534  56.200  0.00  0.00    -0.302 NA
ATOM     21  C   UNL     1      16.422  27.606  54.996  0.00  0.00    +0.066 C 
ATOM     22  C   UNL     1      17.150  28.166  53.731  0.00  0.00    -0.064 C 
ATOM     23  N   UNL     1      18.634  28.362  54.044  0.00  0.00    +0.379 N 
ATOM     24  C   UNL     1      19.332  28.834  52.839  0.00  0.00    -0.096 C 
ATOM     25  H   UNL     1      19.057  27.366  54.312  0.00  0.00    -0.082 HD
ATOM     26  C   UNL     1      18.824  29.282  55.242  0.00  0.00    -0.064 C 
ATOM     27  C   UNL     1      18.073  28.731  56.486  0.00  0.00    +0.066 C 
ENDBRANCH  19  20
ENDBRANCH  18  19
ENDBRANCH  14  15
ENDBRANCH  12  13
TORSDOF 6
ENDMDL
