MODEL 1
REMARK VINA RESULT:      -9.3      0.000      0.000
REMARK  Name = C:\Users\Docking\Desktop\test protocol\1iep_ligandH.pdb
REMARK  8 active torsions:
REMARK  status: ('A' for Active; 'I' for Inactive)
REMARK    1  A    between atoms: _5  and  _11
REMARK    2  A    between atoms: _19  and  _21
REMARK    3  A    between atoms: _22  and  _66
REMARK    4  A    between atoms: _27  and  _30
REMARK    5  A    between atoms: _32  and  _33
REMARK    6  A    between atoms: _38  and  _43
REMARK    7  A    between atoms: _43  and  _46
REMARK    8  A    between atoms: _53  and  _55
REMARK                            x       y       z     vdW  Elec       q    Type
REMARK                         _______ _______ _______ _____ _____    ______ ____
ROOT
ATOM     10  C   UNL     1      14.375  22.350  16.284  0.00  0.00    +0.038 A 
ATOM     11  C   UNL     1      13.296  22.327  15.364  0.00  0.00    +0.047 A 
ATOM     12  C   UNL     1      12.260  21.309  15.444  0.00  0.00    +0.035 A 
ATOM     32  C   UNL     1      12.353  20.331  16.477  0.00  0.00    +0.024 A 
ATOM     33  C   UNL     1      13.443  20.339  17.420  0.00  0.00    +0.007 A 
ATOM     34  C   UNL     1      14.469  21.339  17.345  0.00  0.00    -0.029 A 
ATOM     35  C   UNL     1      15.618  21.296  18.379  0.00  0.00    +0.045 C 
ENDROOT
BRANCH  10   9
ATOM      4  C   UNL     1      18.426  24.113  14.408  0.00  0.00    +0.077 A 
ATOM      5  C   UNL     1      18.649  22.930  13.628  0.00  0.00    +0.048 A 
ATOM      6  C   UNL     1      17.702  21.888  13.743  0.00  0.00    +0.116 A 
ATOM      7  N   UNL     1      16.616  22.030  14.580  0.00  0.00    -0.223 NA
ATOM      8  C   UNL     1      16.431  23.183  15.320  0.00  0.00    +0.220 A 
ATOM      9  N   UNL     1      15.342  23.351  16.161  0.00  0.00    -0.283 N 
ATOM     36  H   UNL     1      15.246  24.214  16.696  0.00  0.00    +0.155 HD
ATOM     37  N   UNL     1      17.323  24.192  15.228  0.00  0.00    -0.214 NA
BRANCH   4   3
ATOM      1  C   UNL     1      21.614  26.376  14.542  0.00  0.00    +0.020 A 
ATOM      2  C   UNL     1      20.780  25.196  14.567  0.00  0.00    +0.013 A 
ATOM      3  C   UNL     1      19.336  25.301  14.392  0.00  0.00    +0.019 A 
ATOM     38  C   UNL     1      18.765  26.624  14.191  0.00  0.00    +0.120 A 
ATOM     39  N   UNL     1      19.593  27.742  14.174  0.00  0.00    -0.263 NA
ATOM     40  C   UNL     1      20.983  27.654  14.343  0.00  0.00    +0.111 A 
ENDBRANCH   4   3
ENDBRANCH  10   9
BRANCH  12  13
ATOM     13  N   UNL     1      11.146  21.231  14.533  0.00  0.00    -0.281 N 
ATOM     14  C   UNL     1       9.795  21.291  14.832  0.00  0.00    +0.248 C 
ATOM     30  O   UNL     1       9.333  21.207  15.960  0.00  0.00    -0.270 OA
ATOM     31  H   UNL     1      11.382  21.117  13.547  0.00  0.00    +0.155 HD
BRANCH  14  15
ATOM     15  C   UNL     1       8.814  21.453  13.716  0.00  0.00    +0.037 A 
ATOM     16  C   UNL     1       8.479  20.336  12.830  0.00  0.00    +0.013 A 
ATOM     17  C   UNL     1       7.543  20.524  11.751  0.00  0.00    +0.005 A 
ATOM     18  C   UNL     1       6.933  21.837  11.552  0.00  0.00    -0.033 A 
ATOM     28  C   UNL     1       7.280  22.927  12.449  0.00  0.00    +0.005 A 
ATOM     29  C   UNL     1       8.198  22.746  13.507  0.00  0.00    +0.013 A 
BRANCH  18  19
ATOM     19  C   UNL     1       5.940  22.134  10.413  0.00  0.00    +0.119 C 
BRANCH  19  20
ATOM     20  N   UNL     1       6.513  22.540   9.095  0.00  0.00    -0.302 NA
ATOM     21  C   UNL     1       6.730  24.053   9.004  0.00  0.00    +0.066 C 
ATOM     22  C   UNL     1       7.351  24.456   7.627  0.00  0.00    -0.064 C 
ATOM     23  N   UNL     1       6.440  23.971   6.498  0.00  0.00    +0.379 N 
ATOM     24  C   UNL     1       6.991  24.400   5.204  0.00  0.00    -0.096 C 
ATOM     25  H   UNL     1       5.450  24.468   6.625  0.00  0.00    -0.082 HD
ATOM     26  C   UNL     1       6.216  22.468   6.583  0.00  0.00    -0.064 C 
ATOM     27  C   UNL     1       5.627  22.074   7.966  0.00  0.00    +0.066 C 
ENDBRANCH  19  20
ENDBRANCH  18  19
ENDBRANCH  14  15
ENDBRANCH  12  13
TORSDOF 6
ENDMDL
MODEL 2
REMARK VINA RESULT:      -8.7      8.570     16.277
REMARK  Name = C:\Users\Docking\Desktop\test protocol\1iep_ligandH.pdb
REMARK  8 active torsions:
REMARK  status: ('A' for Active; 'I' for Inactive)
REMARK    1  A    between atoms: _5  and  _11
REMARK    2  A    between atoms: _19  and  _21
REMARK    3  A    between atoms: _22  and  _66
REMARK    4  A    between atoms: _27  and  _30
REMARK    5  A    between atoms: _32  and  _33
REMARK    6  A    between atoms: _38  and  _43
REMARK    7  A    between atoms: _43  and  _46
REMARK    8  A    between atoms: _53  and  _55
REMARK                            x       y       z     vdW  Elec       q    Type
REMARK                         _______ _______ _______ _____ _____    ______ ____
ROOT
ATOM     10  C   UNL     1      20.405  25.259  14.782  0.00  0.00    +0.038 A 
ATOM     11  C   UNL     1      21.742  25.732  14.776  0.00  0.00    +0.047 A 
ATOM     12  C   UNL     1      22.038  27.153  14.871  0.00  0.00    +0.035 A 
ATOM     32  C   UNL     1      20.947  28.065  14.974  0.00  0.00    +0.024 A 
ATOM     33  C   UNL     1      19.582  27.601  14.981  0.00  0.00    +0.007 A 
ATOM     34  C   UNL     1      19.284  26.201  14.885  0.00  0.00    -0.029 A 
ATOM     35  C   UNL     1      17.801  25.761  14.890  0.00  0.00    +0.045 C 
ENDROOT
BRANCH  10   9
ATOM      4  C   UNL     1      19.073  21.345  12.343  0.00  0.00    +0.077 A 
ATOM      5  C   UNL     1      18.777  22.108  11.165  0.00  0.00    +0.048 A 
ATOM      6  C   UNL     1      18.974  23.506  11.230  0.00  0.00    +0.116 A 
ATOM      7  N   UNL     1      19.434  24.086  12.392  0.00  0.00    -0.223 NA
ATOM      8  C   UNL     1      19.708  23.322  13.511  0.00  0.00    +0.220 A 
ATOM      9  N   UNL     1      20.179  23.884  14.688  0.00  0.00    -0.283 N 
ATOM     36  H   UNL     1      20.362  23.286  15.494  0.00  0.00    +0.155 HD
ATOM     37  N   UNL     1      19.526  21.985  13.475  0.00  0.00    -0.214 NA
BRANCH   4   3
ATOM      1  C   UNL     1      19.610  17.501  11.857  0.00  0.00    +0.020 A 
ATOM      2  C   UNL     1      19.803  18.929  11.740  0.00  0.00    +0.013 A 
ATOM      3  C   UNL     1      18.918  19.859  12.430  0.00  0.00    +0.019 A 
ATOM     38  C   UNL     1      17.840  19.308  13.237  0.00  0.00    +0.120 A 
ATOM     39  N   UNL     1      17.678  17.929  13.330  0.00  0.00    -0.263 NA
ATOM     40  C   UNL     1      18.522  17.024  12.669  0.00  0.00    +0.111 A 
ENDBRANCH   4   3
ENDBRANCH  10   9
BRANCH  12  13
ATOM     13  N   UNL     1      23.375  27.693  14.861  0.00  0.00    -0.281 N 
ATOM     14  C   UNL     1      24.180  27.992  15.948  0.00  0.00    +0.248 C 
ATOM     30  O   UNL     1      23.790  28.041  17.105  0.00  0.00    -0.270 OA
ATOM     31  H   UNL     1      23.777  27.876  13.942  0.00  0.00    +0.155 HD
BRANCH  14  15
ATOM     15  C   UNL     1      25.625  28.295  15.714  0.00  0.00    +0.037 A 
ATOM     16  C   UNL     1      26.178  29.623  15.992  0.00  0.00    +0.013 A 
ATOM     17  C   UNL     1      27.571  29.894  15.742  0.00  0.00    +0.005 A 
ATOM     18  C   UNL     1      28.423  28.832  15.211  0.00  0.00    -0.033 A 
ATOM     28  C   UNL     1      27.850  27.522  14.950  0.00  0.00    +0.005 A 
ATOM     29  C   UNL     1      26.484  27.253  15.193  0.00  0.00    +0.013 A 
BRANCH  18  19
ATOM     19  C   UNL     1      29.916  29.037  14.894  0.00  0.00    +0.119 C 
BRANCH  19  20
ATOM     20  N   UNL     1      30.306  29.109  13.454  0.00  0.00    -0.302 NA
ATOM     21  C   UNL     1      30.899  27.789  12.953  0.00  0.00    +0.066 C 
ATOM     22  C   UNL     1      31.280  27.875  11.439  0.00  0.00    -0.064 C 
ATOM     23  N   UNL     1      32.265  29.027  11.229  0.00  0.00    +0.379 N 
ATOM     24  C   UNL     1      32.670  29.074   9.816  0.00  0.00    -0.096 C 
ATOM     25  H   UNL     1      33.175  28.808  11.834  0.00  0.00    -0.082 HD
ATOM     26  C   UNL     1      31.684  30.342  11.727  0.00  0.00    -0.064 C 
ATOM     27  C   UNL     1      31.281  30.237  13.224  0.00  0.00    +0.066 C 
ENDBRANCH  19  20
ENDBRANCH  18  19
ENDBRANCH  14  15
ENDBRANCH  12  13
TORSDOF 6
ENDMDL
MODEL 3
REMARK VINA RESULT:      -8.5      7.127     11.808
REMARK  Name = C:\Users\Docking\Desktop\test protocol\1iep_ligandH.pdb
REMARK  8 active torsions:
REMARK  status: ('A' for Active; 'I' for Inactive)
REMARK    1  A    between atoms: _5  and  _11
REMARK    2  A    between atoms: _19  and  _21
REMARK    3  A    between atoms: _22  and  _66
REMARK    4  A    between atoms: _27  and  _30
REMARK    5  A    between atoms: _32  and  _33
REMARK    6  A    between atoms: _38  and  _43
REMARK    7  A    between atoms: _43  and  _46
REMARK    8  A    between atoms: _53  and  _55
REMARK                            x       y       z     vdW  Elec       q    Type
REMARK                         _______ _______ _______ _____ _____    ______ ____
ROOT
ATOM     10  C   UNL     1       9.374  25.639  19.461  0.00  0.00    +0.038 A 
ATOM     11  C   UNL     1      10.644  25.349  18.899  0.00  0.00    +0.047 A 
ATOM     12  C   UNL     1      11.224  24.018  18.996  0.00  0.00    +0.035 A 
ATOM     32  C   UNL     1      10.481  23.006  19.671  0.00  0.00    +0.024 A 
ATOM     33  C   UNL     1       9.190  23.283  20.248  0.00  0.00    +0.007 A 
ATOM     34  C   UNL     1       8.614  24.595  20.158  0.00  0.00    -0.029 A 
ATOM     35  C   UNL     1       7.229  24.837  20.801  0.00  0.00    +0.045 C 
ENDROOT
BRANCH  10   9
ATOM      4  C   UNL     1       8.320  29.961  21.263  0.00  0.00    +0.077 A 
ATOM      5  C   UNL     1       8.799  29.600  22.566  0.00  0.00    +0.048 A 
ATOM      6  C   UNL     1       9.302  28.290  22.733  0.00  0.00    +0.116 A 
ATOM      7  N   UNL     1       9.320  27.415  21.668  0.00  0.00    -0.223 NA
ATOM      8  C   UNL     1       8.849  27.795  20.425  0.00  0.00    +0.220 A 
ATOM      9  N   UNL     1       8.866  26.934  19.338  0.00  0.00    -0.283 N 
ATOM     36  H   UNL     1       8.502  27.250  18.439  0.00  0.00    +0.155 HD
ATOM     37  N   UNL     1       8.362  29.040  20.240  0.00  0.00    -0.214 NA
BRANCH   4   3
ATOM      1  C   UNL     1       7.659  33.401  19.521  0.00  0.00    +0.020 A 
ATOM      2  C   UNL     1       8.233  32.104  19.801  0.00  0.00    +0.013 A 
ATOM      3  C   UNL     1       7.761  31.309  20.928  0.00  0.00    +0.019 A 
ATOM     38  C   UNL     1       6.700  31.858  21.758  0.00  0.00    +0.120 A 
ATOM     39  N   UNL     1       6.168  33.110  21.465  0.00  0.00    -0.263 NA
ATOM     40  C   UNL     1       6.615  33.885  20.384  0.00  0.00    +0.111 A 
ENDBRANCH   4   3
ENDBRANCH  10   9
BRANCH  12  13
ATOM     13  N   UNL     1      12.512  23.667  18.453  0.00  0.00    -0.281 N 
ATOM     14  C   UNL     1      12.782  22.929  17.312  0.00  0.00    +0.248 C 
ATOM     30  O   UNL     1      11.952  22.275  16.699  0.00  0.00    -0.270 OA
ATOM     31  H   UNL     1      13.323  24.003  18.972  0.00  0.00    +0.155 HD
BRANCH  14  15
ATOM     15  C   UNL     1      14.180  22.903  16.783  0.00  0.00    +0.037 A 
ATOM     16  C   UNL     1      15.313  23.332  17.608  0.00  0.00    +0.013 A 
ATOM     17  C   UNL     1      16.649  23.312  17.068  0.00  0.00    +0.005 A 
ATOM     18  C   UNL     1      16.860  22.861  15.695  0.00  0.00    -0.033 A 
ATOM     28  C   UNL     1      15.719  22.436  14.900  0.00  0.00    +0.005 A 
ATOM     29  C   UNL     1      14.408  22.455  15.426  0.00  0.00    +0.013 A 
BRANCH  18  19
ATOM     19  C   UNL     1      18.249  22.828  15.029  0.00  0.00    +0.119 C 
BRANCH  19  20
ATOM     20  N   UNL     1      19.062  24.079  15.081  0.00  0.00    -0.302 NA
ATOM     21  C   UNL     1      18.289  25.290  14.551  0.00  0.00    +0.066 C 
ATOM     22  C   UNL     1      19.147  26.594  14.634  0.00  0.00    -0.064 C 
ATOM     23  N   UNL     1      20.446  26.397  13.852  0.00  0.00    +0.379 N 
ATOM     24  C   UNL     1      21.229  27.641  13.880  0.00  0.00    -0.096 C 
ATOM     25  H   UNL     1      20.174  26.191  12.791  0.00  0.00    -0.082 HD
ATOM     26  C   UNL     1      21.220  25.193  14.371  0.00  0.00    -0.064 C 
ATOM     27  C   UNL     1      20.349  23.908  14.312  0.00  0.00    +0.066 C 
ENDBRANCH  19  20
ENDBRANCH  18  19
ENDBRANCH  14  15
ENDBRANCH  12  13
TORSDOF 6
ENDMDL
MODEL 4
REMARK VINA RESULT:      -8.5     16.100     18.735
REMARK  Name = C:\Users\Docking\Desktop\test protocol\1iep_ligandH.pdb
REMARK  8 active torsions:
REMARK  status: ('A' for Active; 'I' for Inactive)
REMARK    1  A    between atoms: _5  and  _11
REMARK    2  A    between atoms: _19  and  _21
REMARK    3  A    between atoms: _22  and  _66
REMARK    4  A    between atoms: _27  and  _30
REMARK    5  A    between atoms: _32  and  _33
REMARK    6  A    between atoms: _38  and  _43
REMARK    7  A    between atoms: _43  and  _46
REMARK    8  A    between atoms: _53  and  _55
REMARK                            x       y       z     vdW  Elec       q    Type
REMARK                         _______ _______ _______ _____ _____    ______ ____
ROOT
ATOM     10  C   UNL     1       3.146  36.662  22.536  0.00  0.00    +0.038 A 
ATOM     11  C   UNL     1       3.069  35.284  22.865  0.00  0.00    +0.047 A 
ATOM     12  C   UNL     1       2.952  34.846  24.247  0.00  0.00    +0.035 A 
ATOM     32  C   UNL     1       2.916  35.838  25.270  0.00  0.00    +0.024 A 
ATOM     33  C   UNL     1       2.995  37.243  24.953  0.00  0.00    +0.007 A 
ATOM     34  C   UNL     1       3.112  37.681  23.592  0.00  0.00    -0.029 A 
ATOM     35  C   UNL     1       3.200  39.199  23.312  0.00  0.00    +0.045 C 
ENDROOT
BRANCH  10   9
ATOM      4  C   UNL     1       5.443  36.647  18.321  0.00  0.00    +0.077 A 
ATOM      5  C   UNL     1       6.528  35.870  18.848  0.00  0.00    +0.048 A 
ATOM      6  C   UNL     1       6.460  35.501  20.210  0.00  0.00    +0.116 A 
ATOM      7  N   UNL     1       5.383  35.885  20.979  0.00  0.00    -0.223 NA
ATOM      8  C   UNL     1       4.354  36.636  20.440  0.00  0.00    +0.220 A 
ATOM      9  N   UNL     1       3.257  37.026  21.192  0.00  0.00    -0.283 N 
ATOM     36  H   UNL     1       2.522  37.586  20.760  0.00  0.00    +0.155 HD
ATOM     37  N   UNL     1       4.396  37.002  19.142  0.00  0.00    -0.214 NA
BRANCH   4   3
ATOM      1  C   UNL     1       5.657  36.768  14.418  0.00  0.00    +0.020 A 
ATOM      2  C   UNL     1       5.748  36.272  15.771  0.00  0.00    +0.013 A 
ATOM      3  C   UNL     1       5.369  37.112  16.900  0.00  0.00    +0.019 A 
ATOM     38  C   UNL     1       4.897  38.460  16.623  0.00  0.00    +0.120 A 
ATOM     39  N   UNL     1       4.821  38.912  15.309  0.00  0.00    -0.263 NA
ATOM     40  C   UNL     1       5.185  38.113  14.215  0.00  0.00    +0.111 A 
ENDBRANCH   4   3
ENDBRANCH  10   9
BRANCH  12  13
ATOM     13  N   UNL     1       2.878  33.461  24.642  0.00  0.00    -0.281 N 
ATOM     14  C   UNL     1       3.684  32.789  25.545  0.00  0.00    +0.248 C 
ATOM     30  O   UNL     1       4.734  33.226  25.994  0.00  0.00    -0.270 OA
ATOM     31  H   UNL     1       2.140  32.910  24.202  0.00  0.00    +0.155 HD
BRANCH  14  15
ATOM     15  C   UNL     1       3.273  31.428  26.006  0.00  0.00    +0.037 A 
ATOM     16  C   UNL     1       2.067  30.780  25.483  0.00  0.00    +0.013 A 
ATOM     17  C   UNL     1       1.684  29.474  25.957  0.00  0.00    +0.005 A 
ATOM     18  C   UNL     1       2.510  28.805  26.960  0.00  0.00    -0.033 A 
ATOM     28  C   UNL     1       3.704  29.468  27.457  0.00  0.00    +0.005 A 
ATOM     29  C   UNL     1       4.082  30.749  26.996  0.00  0.00    +0.013 A 
BRANCH  18  19
ATOM     19  C   UNL     1       2.166  27.420  27.538  0.00  0.00    +0.119 C 
BRANCH  19  20
ATOM     20  N   UNL     1       2.374  26.237  26.650  0.00  0.00    -0.302 NA
ATOM     21  C   UNL     1       1.286  25.177  26.841  0.00  0.00    +0.066 C 
ATOM     22  C   UNL     1       1.507  23.957  25.889  0.00  0.00    -0.064 C 
ATOM     23  N   UNL     1       2.894  23.362  26.140  0.00  0.00    +0.379 N 
ATOM     24  C   UNL     1       3.082  22.179  25.287  0.00  0.00    -0.096 C 
ATOM     25  H   UNL     1       2.929  23.023  27.201  0.00  0.00    -0.082 HD
ATOM     26  C   UNL     1       3.981  24.410  25.955  0.00  0.00    -0.064 C 
ATOM     27  C   UNL     1       3.736  25.631  26.885  0.00  0.00    +0.066 C 
ENDBRANCH  19  20
ENDBRANCH  18  19
ENDBRANCH  14  15
ENDBRANCH  12  13
TORSDOF 6
ENDMDL
MODEL 5
REMARK VINA RESULT:      -8.5      8.171     13.109
REMARK  Name = C:\Users\Docking\Desktop\test protocol\1iep_ligandH.pdb
REMARK  8 active torsions:
REMARK  status: ('A' for Active; 'I' for Inactive)
REMARK    1  A    between atoms: _5  and  _11
REMARK    2  A    between atoms: _19  and  _21
REMARK    3  A    between atoms: _22  and  _66
REMARK    4  A    between atoms: _27  and  _30
REMARK    5  A    between atoms: _32  and  _33
REMARK    6  A    between atoms: _38  and  _43
REMARK    7  A    between atoms: _43  and  _46
REMARK    8  A    between atoms: _53  and  _55
REMARK                            x       y       z     vdW  Elec       q    Type
REMARK                         _______ _______ _______ _____ _____    ______ ____
ROOT
ATOM     10  C   UNL     1      26.182  28.087  16.151  0.00  0.00    +0.038 A 
ATOM     11  C   UNL     1      25.071  27.416  15.579  0.00  0.00    +0.047 A 
ATOM     12  C   UNL     1      24.001  26.887  16.411  0.00  0.00    +0.035 A 
ATOM     32  C   UNL     1      24.094  27.061  17.823  0.00  0.00    +0.024 A 
ATOM     33  C   UNL     1      25.217  27.740  18.421  0.00  0.00    +0.007 A 
ATOM     34  C   UNL     1      26.276  28.262  17.605  0.00  0.00    -0.029 A 
ATOM     35  C   UNL     1      27.459  28.975  18.301  0.00  0.00    +0.045 C 
ENDROOT
BRANCH  10   9
ATOM      4  C   UNL     1      30.383  27.654  13.870  0.00  0.00    +0.077 A 
ATOM      5  C   UNL     1      30.622  26.357  14.433  0.00  0.00    +0.048 A 
ATOM      6  C   UNL     1      29.643  25.839  15.311  0.00  0.00    +0.116 A 
ATOM      7  N   UNL     1      28.512  26.574  15.596  0.00  0.00    -0.223 NA
ATOM      8  C   UNL     1      28.313  27.823  15.038  0.00  0.00    +0.220 A 
ATOM      9  N   UNL     1      27.180  28.576  15.305  0.00  0.00    -0.283 N 
ATOM     36  H   UNL     1      27.074  29.496  14.879  0.00  0.00    +0.155 HD
ATOM     37  N   UNL     1      29.234  28.340  14.198  0.00  0.00    -0.214 NA
BRANCH   4   3
ATOM      1  C   UNL     1      31.911  30.153  11.278  0.00  0.00    +0.020 A 
ATOM      2  C   UNL     1      30.966  29.535  12.179  0.00  0.00    +0.013 A 
ATOM      3  C   UNL     1      31.323  28.334  12.924  0.00  0.00    +0.019 A 
ATOM     38  C   UNL     1      32.654  27.779  12.733  0.00  0.00    +0.120 A 
ATOM     39  N   UNL     1      33.543  28.395  11.857  0.00  0.00    -0.263 NA
ATOM     40  C   UNL     1      33.210  29.550  11.134  0.00  0.00    +0.111 A 
ENDBRANCH   4   3
ENDBRANCH  10   9
BRANCH  12  13
ATOM     13  N   UNL     1      22.853  26.189  15.887  0.00  0.00    -0.281 N 
ATOM     14  C   UNL     1      21.802  26.712  15.152  0.00  0.00    +0.248 C 
ATOM     30  O   UNL     1      21.581  27.906  15.014  0.00  0.00    -0.270 OA
ATOM     31  H   UNL     1      22.810  25.189  16.083  0.00  0.00    +0.155 HD
BRANCH  14  15
ATOM     15  C   UNL     1      20.850  25.772  14.485  0.00  0.00    +0.037 A 
ATOM     16  C   UNL     1      19.525  26.217  14.047  0.00  0.00    +0.013 A 
ATOM     17  C   UNL     1      18.619  25.285  13.421  0.00  0.00    +0.005 A 
ATOM     18  C   UNL     1      19.038  23.899  13.229  0.00  0.00    -0.033 A 
ATOM     28  C   UNL     1      20.361  23.486  13.669  0.00  0.00    +0.005 A 
ATOM     29  C   UNL     1      21.250  24.396  14.283  0.00  0.00    +0.013 A 
BRANCH  18  19
ATOM     19  C   UNL     1      18.130  22.832  12.590  0.00  0.00    +0.119 C 
BRANCH  19  20
ATOM     20  N   UNL     1      18.554  21.406  12.720  0.00  0.00    -0.302 NA
ATOM     21  C   UNL     1      19.226  20.888  11.444  0.00  0.00    +0.066 C 
ATOM     22  C   UNL     1      19.684  19.402  11.605  0.00  0.00    -0.064 C 
ATOM     23  N   UNL     1      18.477  18.536  11.972  0.00  0.00    +0.379 N 
ATOM     24  C   UNL     1      18.894  17.130  12.067  0.00  0.00    -0.096 C 
ATOM     25  H   UNL     1      17.740  18.616  11.140  0.00  0.00    -0.082 HD
ATOM     26  C   UNL     1      17.802  19.046  13.237  0.00  0.00    -0.064 C 
ATOM     27  C   UNL     1      17.377  20.532  13.077  0.00  0.00    +0.066 C 
ENDBRANCH  19  20
ENDBRANCH  18  19
ENDBRANCH  14  15
ENDBRANCH  12  13
TORSDOF 6
ENDMDL
