MODEL 1
REMARK VINA RESULT:      -8.5      0.000      0.000
REMARK  Name = C:\Users\Docking\Desktop\test protocol\1iep_ligandH.pdb
REMARK  8 active torsions:
REMARK  status: ('A' for Active; 'I' for Inactive)
REMARK    1  A    between atoms: _5  and  _11
REMARK    2  A    between atoms: _19  and  _21
REMARK    3  A    between atoms: _22  and  _66
REMARK    4  A    between atoms: _27  and  _30
REMARK    5  A    between atoms: _32  and  _33
REMARK    6  A    between atoms: _38  and  _43
REMARK    7  A    between atoms: _43  and  _46
REMARK    8  A    between atoms: _53  and  _55
REMARK                            x       y       z     vdW  Elec       q    Type
REMARK                         _______ _______ _______ _____ _____    ______ ____
ROOT
ATOM     10  C   UNL     1      21.854  15.087  44.035  0.00  0.00    +0.038 A 
ATOM     11  C   UNL     1      22.074  15.493  45.376  0.00  0.00    +0.047 A 
ATOM     12  C   UNL     1      21.919  16.883  45.776  0.00  0.00    +0.035 A 
ATOM     32  C   UNL     1      21.537  17.833  44.784  0.00  0.00    +0.024 A 
ATOM     33  C   UNL     1      21.311  17.437  43.416  0.00  0.00    +0.007 A 
ATOM     34  C   UNL     1      21.464  16.068  43.015  0.00  0.00    -0.029 A 
ATOM     35  C   UNL     1      21.215  15.702  41.533  0.00  0.00    +0.045 C 
ENDROOT
BRANCH  10   9
ATOM      4  C   UNL     1      24.595  11.244  43.164  0.00  0.00    +0.077 A 
ATOM      5  C   UNL     1      25.805  11.990  43.354  0.00  0.00    +0.048 A 
ATOM      6  C   UNL     1      25.679  13.362  43.667  0.00  0.00    +0.116 A 
ATOM      7  N   UNL     1      24.430  13.934  43.780  0.00  0.00    -0.223 NA
ATOM      8  C   UNL     1      23.283  13.186  43.589  0.00  0.00    +0.220 A 
ATOM      9  N   UNL     1      22.017  13.739  43.706  0.00  0.00    -0.283 N 
ATOM     36  H   UNL     1      21.196  13.155  43.550  0.00  0.00    +0.155 HD
ATOM     37  N   UNL     1      23.377  11.874  43.288  0.00  0.00    -0.214 NA
BRANCH   4   3
ATOM      1  C   UNL     1      25.354   7.407  43.126  0.00  0.00    +0.020 A 
ATOM      2  C   UNL     1      25.424   8.805  43.484  0.00  0.00    +0.013 A 
ATOM      3  C   UNL     1      24.564   9.784  42.832  0.00  0.00    +0.019 A 
ATOM     38  C   UNL     1      23.636   9.312  41.815  0.00  0.00    +0.120 A 
ATOM     39  N   UNL     1      23.591   7.960  41.490  0.00  0.00    -0.263 NA
ATOM     40  C   UNL     1      24.416   7.009  42.110  0.00  0.00    +0.111 A 
ENDBRANCH   4   3
ENDBRANCH  10   9
BRANCH  12  13
ATOM     13  N   UNL     1      22.136  17.356  47.120  0.00  0.00    -0.281 N 
ATOM     14  C   UNL     1      21.215  17.447  48.151  0.00  0.00    +0.248 C 
ATOM     30  O   UNL     1      20.006  17.335  48.008  0.00  0.00    -0.270 OA
ATOM     31  H   UNL     1      23.085  17.661  47.340  0.00  0.00    +0.155 HD
BRANCH  14  15
ATOM     15  C   UNL     1      21.705  17.716  49.537  0.00  0.00    +0.037 A 
ATOM     16  C   UNL     1      22.431  16.695  50.297  0.00  0.00    +0.013 A 
ATOM     17  C   UNL     1      22.878  16.975  51.639  0.00  0.00    +0.005 A 
ATOM     18  C   UNL     1      22.601  18.283  52.228  0.00  0.00    -0.033 A 
ATOM     28  C   UNL     1      21.883  19.278  51.449  0.00  0.00    +0.005 A 
ATOM     29  C   UNL     1      21.443  19.008  50.134  0.00  0.00    +0.013 A 
BRANCH  18  19
ATOM     19  C   UNL     1      23.022  18.661  53.661  0.00  0.00    +0.119 C 
BRANCH  19  20
ATOM     20  N   UNL     1      22.089  18.292  54.767  0.00  0.00    -0.302 NA
ATOM     21  C   UNL     1      22.374  16.891  55.316  0.00  0.00    +0.066 C 
ATOM     22  C   UNL     1      21.403  16.531  56.487  0.00  0.00    -0.064 C 
ATOM     23  N   UNL     1      19.957  16.639  56.000  0.00  0.00    +0.379 N 
ATOM     24  C   UNL     1      19.044  16.245  57.082  0.00  0.00    -0.096 C 
ATOM     25  H   UNL     1      19.827  15.911  55.165  0.00  0.00    -0.082 HD
ATOM     26  C   UNL     1      19.667  18.028  55.450  0.00  0.00    -0.064 C 
ATOM     27  C   UNL     1      20.656  18.388  54.306  0.00  0.00    +0.066 C 
ENDBRANCH  19  20
ENDBRANCH  18  19
ENDBRANCH  14  15
ENDBRANCH  12  13
TORSDOF 6
ENDMDL
MODEL 2
REMARK VINA RESULT:      -8.0      9.637     13.507
REMARK  Name = C:\Users\Docking\Desktop\test protocol\1iep_ligandH.pdb
REMARK  8 active torsions:
REMARK  status: ('A' for Active; 'I' for Inactive)
REMARK    1  A    between atoms: _5  and  _11
REMARK    2  A    between atoms: _19  and  _21
REMARK    3  A    between atoms: _22  and  _66
REMARK    4  A    between atoms: _27  and  _30
REMARK    5  A    between atoms: _32  and  _33
REMARK    6  A    between atoms: _38  and  _43
REMARK    7  A    between atoms: _43  and  _46
REMARK    8  A    between atoms: _53  and  _55
REMARK                            x       y       z     vdW  Elec       q    Type
REMARK                         _______ _______ _______ _____ _____    ______ ____
ROOT
ATOM     10  C   UNL     1      23.874   8.672  41.817  0.00  0.00    +0.038 A 
ATOM     11  C   UNL     1      23.723   7.321  42.220  0.00  0.00    +0.047 A 
ATOM     12  C   UNL     1      24.390   6.811  43.408  0.00  0.00    +0.035 A 
ATOM     32  C   UNL     1      25.202   7.706  44.163  0.00  0.00    +0.024 A 
ATOM     33  C   UNL     1      25.368   9.082  43.767  0.00  0.00    +0.007 A 
ATOM     34  C   UNL     1      24.714   9.590  42.595  0.00  0.00    -0.029 A 
ATOM     35  C   UNL     1      24.932  11.073  42.214  0.00  0.00    +0.045 C 
ENDROOT
BRANCH  10   9
ATOM      4  C   UNL     1      20.072  10.579  39.592  0.00  0.00    +0.077 A 
ATOM      5  C   UNL     1      19.337  10.691  40.819  0.00  0.00    +0.048 A 
ATOM      6  C   UNL     1      19.969  10.240  41.999  0.00  0.00    +0.116 A 
ATOM      7  N   UNL     1      21.244   9.718  41.944  0.00  0.00    -0.223 NA
ATOM      8  C   UNL     1      21.925   9.623  40.745  0.00  0.00    +0.220 A 
ATOM      9  N   UNL     1      23.210   9.108  40.668  0.00  0.00    -0.283 N 
ATOM     36  H   UNL     1      23.676   9.048  39.763  0.00  0.00    +0.155 HD
ATOM     37  N   UNL     1      21.342  10.045  39.604  0.00  0.00    -0.214 NA
BRANCH   4   3
ATOM      1  C   UNL     1      18.728  12.776  36.648  0.00  0.00    +0.020 A 
ATOM      2  C   UNL     1      19.240  12.407  37.948  0.00  0.00    +0.013 A 
ATOM      3  C   UNL     1      19.540  11.016  38.263  0.00  0.00    +0.019 A 
ATOM     38  C   UNL     1      19.311  10.015  37.232  0.00  0.00    +0.120 A 
ATOM     39  N   UNL     1      18.816  10.399  35.990  0.00  0.00    -0.263 NA
ATOM     40  C   UNL     1      18.522  11.734  35.676  0.00  0.00    +0.111 A 
ENDBRANCH   4   3
ENDBRANCH  10   9
BRANCH  12  13
ATOM     13  N   UNL     1      24.281   5.446  43.861  0.00  0.00    -0.281 N 
ATOM     14  C   UNL     1      25.085   4.370  43.524  0.00  0.00    +0.248 C 
ATOM     30  O   UNL     1      25.895   4.372  42.609  0.00  0.00    -0.270 OA
ATOM     31  H   UNL     1      23.518   5.251  44.510  0.00  0.00    +0.155 HD
BRANCH  14  15
ATOM     15  C   UNL     1      24.960   3.102  44.307  0.00  0.00    +0.037 A 
ATOM     16  C   UNL     1      23.743   2.791  45.061  0.00  0.00    +0.013 A 
ATOM     17  C   UNL     1      23.655   1.570  45.821  0.00  0.00    +0.005 A 
ATOM     18  C   UNL     1      24.790   0.649  45.830  0.00  0.00    -0.033 A 
ATOM     28  C   UNL     1      25.983   0.980  45.069  0.00  0.00    +0.005 A 
ATOM     29  C   UNL     1      26.073   2.177  44.324  0.00  0.00    +0.013 A 
BRANCH  18  19
ATOM     19  C   UNL     1      24.792  -0.667  46.631  0.00  0.00    +0.119 C 
BRANCH  19  20
ATOM     20  N   UNL     1      23.996  -0.700  47.894  0.00  0.00    -0.302 NA
ATOM     21  C   UNL     1      24.640   0.139  49.001  0.00  0.00    +0.066 C 
ATOM     22  C   UNL     1      23.782   0.111  50.308  0.00  0.00    -0.064 C 
ATOM     23  N   UNL     1      23.599  -1.338  50.763  0.00  0.00    +0.379 N 
ATOM     24  C   UNL     1      22.842  -1.364  52.023  0.00  0.00    -0.096 C 
ATOM     25  H   UNL     1      24.611  -1.759  50.968  0.00  0.00    -0.082 HD
ATOM     26  C   UNL     1      22.962  -2.180  49.667  0.00  0.00    -0.064 C 
ATOM     27  C   UNL     1      23.806  -2.121  48.364  0.00  0.00    +0.066 C 
ENDBRANCH  19  20
ENDBRANCH  18  19
ENDBRANCH  14  15
ENDBRANCH  12  13
TORSDOF 6
ENDMDL
MODEL 3
REMARK VINA RESULT:      -8.0      8.869     14.821
REMARK  Name = C:\Users\Docking\Desktop\test protocol\1iep_ligandH.pdb
REMARK  8 active torsions:
REMARK  status: ('A' for Active; 'I' for Inactive)
REMARK    1  A    between atoms: _5  and  _11
REMARK    2  A    between atoms: _19  and  _21
REMARK    3  A    between atoms: _22  and  _66
REMARK    4  A    between atoms: _27  and  _30
REMARK    5  A    between atoms: _32  and  _33
REMARK    6  A    between atoms: _38  and  _43
REMARK    7  A    between atoms: _43  and  _46
REMARK    8  A    between atoms: _53  and  _55
REMARK                            x       y       z     vdW  Elec       q    Type
REMARK                         _______ _______ _______ _____ _____    ______ ____
ROOT
ATOM     10  C   UNL     1      25.673   4.572  43.022  0.00  0.00    +0.038 A 
ATOM     11  C   UNL     1      25.157   3.807  44.099  0.00  0.00    +0.047 A 
ATOM     12  C   UNL     1      24.969   2.369  43.979  0.00  0.00    +0.035 A 
ATOM     32  C   UNL     1      25.319   1.743  42.747  0.00  0.00    +0.024 A 
ATOM     33  C   UNL     1      25.843   2.506  41.641  0.00  0.00    +0.007 A 
ATOM     34  C   UNL     1      26.029   3.924  41.754  0.00  0.00    -0.029 A 
ATOM     35  C   UNL     1      26.589   4.693  40.534  0.00  0.00    +0.045 C 
ENDROOT
BRANCH  10   9
ATOM      4  C   UNL     1      24.170   9.103  42.520  0.00  0.00    +0.077 A 
ATOM      5  C   UNL     1      22.978   8.694  41.835  0.00  0.00    +0.048 A 
ATOM      6  C   UNL     1      22.792   7.309  41.626  0.00  0.00    +0.116 A 
ATOM      7  N   UNL     1      23.735   6.409  42.073  0.00  0.00    -0.223 NA
ATOM      8  C   UNL     1      24.875   6.837  42.728  0.00  0.00    +0.220 A 
ATOM      9  N   UNL     1      25.833   5.949  43.193  0.00  0.00    -0.283 N 
ATOM     36  H   UNL     1      26.664   6.305  43.665  0.00  0.00    +0.155 HD
ATOM     37  N   UNL     1      25.076   8.154  42.939  0.00  0.00    -0.214 NA
BRANCH   4   3
ATOM      1  C   UNL     1      26.077  12.505  42.815  0.00  0.00    +0.020 A 
ATOM      2  C   UNL     1      25.803  11.121  42.506  0.00  0.00    +0.013 A 
ATOM      3  C   UNL     1      24.507  10.531  42.818  0.00  0.00    +0.019 A 
ATOM     38  C   UNL     1      23.503  11.375  43.447  0.00  0.00    +0.120 A 
ATOM     39  N   UNL     1      23.796  12.705  43.735  0.00  0.00    -0.263 NA
ATOM     40  C   UNL     1      25.040  13.283  43.440  0.00  0.00    +0.111 A 
ENDBRANCH   4   3
ENDBRANCH  10   9
BRANCH  12  13
ATOM     13  N   UNL     1      24.441   1.542  45.035  0.00  0.00    -0.281 N 
ATOM     14  C   UNL     1      25.147   0.793  45.963  0.00  0.00    +0.248 C 
ATOM     30  O   UNL     1      26.343   0.552  45.891  0.00  0.00    -0.270 OA
ATOM     31  H   UNL     1      23.425   1.503  45.108  0.00  0.00    +0.155 HD
BRANCH  14  15
ATOM     15  C   UNL     1      24.416   0.218  47.133  0.00  0.00    +0.037 A 
ATOM     16  C   UNL     1      24.710  -1.131  47.624  0.00  0.00    +0.013 A 
ATOM     17  C   UNL     1      23.978  -1.669  48.743  0.00  0.00    +0.005 A 
ATOM     18  C   UNL     1      22.945  -0.856  49.380  0.00  0.00    -0.033 A 
ATOM     28  C   UNL     1      22.677   0.481  48.876  0.00  0.00    +0.005 A 
ATOM     29  C   UNL     1      23.392   1.011  47.778  0.00  0.00    +0.013 A 
BRANCH  18  19
ATOM     19  C   UNL     1      22.100  -1.356  50.566  0.00  0.00    +0.119 C 
BRANCH  19  20
ATOM     20  N   UNL     1      22.810  -2.111  51.642  0.00  0.00    -0.302 NA
ATOM     21  C   UNL     1      22.503  -3.610  51.590  0.00  0.00    +0.066 C 
ATOM     22  C   UNL     1      23.272  -4.387  52.708  0.00  0.00    -0.064 C 
ATOM     23  N   UNL     1      22.905  -3.806  54.075  0.00  0.00    +0.379 N 
ATOM     24  C   UNL     1      23.581  -4.571  55.132  0.00  0.00    -0.096 C 
ATOM     25  H   UNL     1      21.806  -3.936  54.213  0.00  0.00    -0.082 HD
ATOM     26  C   UNL     1      23.204  -2.314  54.134  0.00  0.00    -0.064 C 
ATOM     27  C   UNL     1      22.458  -1.556  53.000  0.00  0.00    +0.066 C 
ENDBRANCH  19  20
ENDBRANCH  18  19
ENDBRANCH  14  15
ENDBRANCH  12  13
TORSDOF 6
ENDMDL
MODEL 4
REMARK VINA RESULT:      -8.0     41.499     45.589
REMARK  Name = C:\Users\Docking\Desktop\test protocol\1iep_ligandH.pdb
REMARK  8 active torsions:
REMARK  status: ('A' for Active; 'I' for Inactive)
REMARK    1  A    between atoms: _5  and  _11
REMARK    2  A    between atoms: _19  and  _21
REMARK    3  A    between atoms: _22  and  _66
REMARK    4  A    between atoms: _27  and  _30
REMARK    5  A    between atoms: _32  and  _33
REMARK    6  A    between atoms: _38  and  _43
REMARK    7  A    between atoms: _43  and  _46
REMARK    8  A    between atoms: _53  and  _55
REMARK                            x       y       z     vdW  Elec       q    Type
REMARK                         _______ _______ _______ _____ _____    ______ ____
ROOT
ATOM     10  C   UNL     1      -9.238  43.954  29.407  0.00  0.00    +0.038 A 
ATOM     11  C   UNL     1      -8.650  42.683  29.630  0.00  0.00    +0.047 A 
ATOM     12  C   UNL     1      -7.803  42.438  30.788  0.00  0.00    +0.035 A 
ATOM     32  C   UNL     1      -7.578  43.511  31.699  0.00  0.00    +0.024 A 
ATOM     33  C   UNL     1      -8.167  44.810  31.487  0.00  0.00    +0.007 A 
ATOM     34  C   UNL     1      -9.001  45.058  30.346  0.00  0.00    -0.029 A 
ATOM     35  C   UNL     1      -9.601  46.472  30.165  0.00  0.00    +0.045 C 
ENDROOT
BRANCH  10   9
ATOM      4  C   UNL     1     -13.521  44.453  27.300  0.00  0.00    +0.077 A 
ATOM      5  C   UNL     1     -14.217  44.318  28.548  0.00  0.00    +0.048 A 
ATOM      6  C   UNL     1     -13.436  44.114  29.707  0.00  0.00    +0.116 A 
ATOM      7  N   UNL     1     -12.062  44.052  29.614  0.00  0.00    -0.223 NA
ATOM      8  C   UNL     1     -11.423  44.185  28.395  0.00  0.00    +0.220 A 
ATOM      9  N   UNL     1     -10.042  44.134  28.280  0.00  0.00    -0.283 N 
ATOM     36  H   UNL     1      -9.610  44.228  27.361  0.00  0.00    +0.155 HD
ATOM     37  N   UNL     1     -12.147  44.378  27.273  0.00  0.00    -0.214 NA
BRANCH   4   3
ATOM      1  C   UNL     1     -15.496  46.099  24.352  0.00  0.00    +0.020 A 
ATOM      2  C   UNL     1     -14.847  45.936  25.632  0.00  0.00    +0.013 A 
ATOM      3  C   UNL     1     -14.207  44.676  25.988  0.00  0.00    +0.019 A 
ATOM     38  C   UNL     1     -14.240  43.592  25.017  0.00  0.00    +0.120 A 
ATOM     39  N   UNL     1     -14.873  43.778  23.792  0.00  0.00    -0.263 NA
ATOM     40  C   UNL     1     -15.494  44.986  23.439  0.00  0.00    +0.111 A 
ENDBRANCH   4   3
ENDBRANCH  10   9
BRANCH  12  13
ATOM     13  N   UNL     1      -7.173  41.171  31.062  0.00  0.00    -0.281 N 
ATOM     14  C   UNL     1      -7.784  39.957  31.332  0.00  0.00    +0.248 C 
ATOM     30  O   UNL     1      -8.971  39.822  31.589  0.00  0.00    -0.270 OA
ATOM     31  H   UNL     1      -6.153  41.168  31.057  0.00  0.00    +0.155 HD
BRANCH  14  15
ATOM     15  C   UNL     1      -6.953  38.715  31.329  0.00  0.00    +0.037 A 
ATOM     16  C   UNL     1      -7.448  37.471  30.734  0.00  0.00    +0.013 A 
ATOM     17  C   UNL     1      -6.633  36.282  30.759  0.00  0.00    +0.005 A 
ATOM     18  C   UNL     1      -5.312  36.333  31.382  0.00  0.00    -0.033 A 
ATOM     28  C   UNL     1      -4.844  37.581  31.960  0.00  0.00    +0.005 A 
ATOM     29  C   UNL     1      -5.640  38.748  31.938  0.00  0.00    +0.013 A 
BRANCH  18  19
ATOM     19  C   UNL     1      -4.384  35.107  31.474  0.00  0.00    +0.119 C 
BRANCH  19  20
ATOM     20  N   UNL     1      -3.826  34.575  30.195  0.00  0.00    -0.302 NA
ATOM     21  C   UNL     1      -2.823  33.442  30.433  0.00  0.00    +0.066 C 
ATOM     22  C   UNL     1      -2.267  32.882  29.083  0.00  0.00    -0.064 C 
ATOM     23  N   UNL     1      -1.622  34.019  28.289  0.00  0.00    +0.379 N 
ATOM     24  C   UNL     1      -1.046  33.485  27.046  0.00  0.00    -0.096 C 
ATOM     25  H   UNL     1      -0.784  34.426  28.902  0.00  0.00    -0.082 HD
ATOM     26  C   UNL     1      -2.611  35.151  28.050  0.00  0.00    -0.064 C 
ATOM     27  C   UNL     1      -3.180  35.680  29.396  0.00  0.00    +0.066 C 
ENDBRANCH  19  20
ENDBRANCH  18  19
ENDBRANCH  14  15
ENDBRANCH  12  13
TORSDOF 6
ENDMDL
MODEL 5
REMARK VINA RESULT:      -7.8      8.448     14.758
REMARK  Name = C:\Users\Docking\Desktop\test protocol\1iep_ligandH.pdb
REMARK  8 active torsions:
REMARK  status: ('A' for Active; 'I' for Inactive)
REMARK    1  A    between atoms: _5  and  _11
REMARK    2  A    between atoms: _19  and  _21
REMARK    3  A    between atoms: _22  and  _66
REMARK    4  A    between atoms: _27  and  _30
REMARK    5  A    between atoms: _32  and  _33
REMARK    6  A    between atoms: _38  and  _43
REMARK    7  A    between atoms: _43  and  _46
REMARK    8  A    between atoms: _53  and  _55
REMARK                            x       y       z     vdW  Elec       q    Type
REMARK                         _______ _______ _______ _____ _____    ______ ____
ROOT
ATOM     10  C   UNL     1      24.614   0.301  46.010  0.00  0.00    +0.038 A 
ATOM     11  C   UNL     1      23.971   1.415  45.412  0.00  0.00    +0.047 A 
ATOM     12  C   UNL     1      24.711   2.359  44.590  0.00  0.00    +0.035 A 
ATOM     32  C   UNL     1      26.105   2.137  44.395  0.00  0.00    +0.024 A 
ATOM     33  C   UNL     1      26.776   1.011  44.996  0.00  0.00    +0.007 A 
ATOM     34  C   UNL     1      26.051   0.078  45.811  0.00  0.00    -0.029 A 
ATOM     35  C   UNL     1      26.823  -1.108  46.436  0.00  0.00    +0.045 C 
ENDROOT
BRANCH  10   9
ATOM      4  C   UNL     1      22.874  -1.183  50.230  0.00  0.00    +0.077 A 
ATOM      5  C   UNL     1      23.556  -0.142  50.944  0.00  0.00    +0.048 A 
ATOM      6  C   UNL     1      24.350   0.750  50.189  0.00  0.00    +0.116 A 
ATOM      7  N   UNL     1      24.448   0.603  48.823  0.00  0.00    -0.223 NA
ATOM      8  C   UNL     1      23.778  -0.413  48.165  0.00  0.00    +0.220 A 
ATOM      9  N   UNL     1      23.855  -0.574  46.790  0.00  0.00    -0.283 N 
ATOM     36  H   UNL     1      23.352  -1.340  46.344  0.00  0.00    +0.155 HD
ATOM     37  N   UNL     1      23.014  -1.278  48.863  0.00  0.00    -0.214 NA
BRANCH   4   3
ATOM      1  C   UNL     1      20.944  -4.490  51.028  0.00  0.00    +0.020 A 
ATOM      2  C   UNL     1      21.804  -3.545  50.355  0.00  0.00    +0.013 A 
ATOM      3  C   UNL     1      21.994  -2.201  50.887  0.00  0.00    +0.019 A 
ATOM     38  C   UNL     1      21.295  -1.843  52.112  0.00  0.00    +0.120 A 
ATOM     39  N   UNL     1      20.472  -2.775  52.737  0.00  0.00    -0.263 NA
ATOM     40  C   UNL     1      20.280  -4.070  52.234  0.00  0.00    +0.111 A 
ENDBRANCH   4   3
ENDBRANCH  10   9
BRANCH  12  13
ATOM     13  N   UNL     1      24.113   3.512  43.963  0.00  0.00    -0.281 N 
ATOM     14  C   UNL     1      23.561   4.625  44.578  0.00  0.00    +0.248 C 
ATOM     30  O   UNL     1      23.305   4.700  45.770  0.00  0.00    -0.270 OA
ATOM     31  H   UNL     1      24.094   3.508  42.944  0.00  0.00    +0.155 HD
BRANCH  14  15
ATOM     15  C   UNL     1      23.234   5.821  43.744  0.00  0.00    +0.037 A 
ATOM     16  C   UNL     1      23.704   5.936  42.361  0.00  0.00    +0.013 A 
ATOM     17  C   UNL     1      23.388   7.109  41.585  0.00  0.00    +0.005 A 
ATOM     18  C   UNL     1      22.596   8.177  42.191  0.00  0.00    -0.033 A 
ATOM     28  C   UNL     1      22.138   8.034  43.563  0.00  0.00    +0.005 A 
ATOM     29  C   UNL     1      22.446   6.887  44.327  0.00  0.00    +0.013 A 
BRANCH  18  19
ATOM     19  C   UNL     1      22.230   9.473  41.444  0.00  0.00    +0.119 C 
BRANCH  19  20
ATOM     20  N   UNL     1      22.990  10.707  41.803  0.00  0.00    -0.302 NA
ATOM     21  C   UNL     1      24.447  10.400  42.161  0.00  0.00    +0.066 C 
ATOM     22  C   UNL     1      25.234  11.705  42.512  0.00  0.00    -0.064 C 
ATOM     23  N   UNL     1      24.533  12.425  43.665  0.00  0.00    +0.379 N 
ATOM     24  C   UNL     1      25.302  13.622  44.035  0.00  0.00    -0.096 C 
ATOM     25  H   UNL     1      24.532  11.738  44.542  0.00  0.00    -0.082 HD
ATOM     26  C   UNL     1      23.082  12.732  43.318  0.00  0.00    -0.064 C 
ATOM     27  C   UNL     1      22.317  11.432  42.942  0.00  0.00    +0.066 C 
ENDBRANCH  19  20
ENDBRANCH  18  19
ENDBRANCH  14  15
ENDBRANCH  12  13
TORSDOF 6
ENDMDL
