MODEL 1
REMARK VINA RESULT:      -9.0      0.000      0.000
REMARK  Name = C:\Users\Docking\Desktop\test protocol\1iep_ligandH.pdb
REMARK  8 active torsions:
REMARK  status: ('A' for Active; 'I' for Inactive)
REMARK    1  A    between atoms: _5  and  _11
REMARK    2  A    between atoms: _19  and  _21
REMARK    3  A    between atoms: _22  and  _66
REMARK    4  A    between atoms: _27  and  _30
REMARK    5  A    between atoms: _32  and  _33
REMARK    6  A    between atoms: _38  and  _43
REMARK    7  A    between atoms: _43  and  _46
REMARK    8  A    between atoms: _53  and  _55
REMARK                            x       y       z     vdW  Elec       q    Type
REMARK                         _______ _______ _______ _____ _____    ______ ____
ROOT
ATOM     10  C   UNL     1      23.292   7.539  41.613  0.00  0.00    +0.038 A 
ATOM     11  C   UNL     1      23.568   6.425  42.446  0.00  0.00    +0.047 A 
ATOM     12  C   UNL     1      24.099   5.188  41.895  0.00  0.00    +0.035 A 
ATOM     32  C   UNL     1      24.340   5.121  40.492  0.00  0.00    +0.024 A 
ATOM     33  C   UNL     1      24.064   6.244  39.631  0.00  0.00    +0.007 A 
ATOM     34  C   UNL     1      23.538   7.466  40.168  0.00  0.00    -0.029 A 
ATOM     35  C   UNL     1      23.255   8.635  39.196  0.00  0.00    +0.045 C 
ENDROOT
BRANCH  10   9
ATOM      4  C   UNL     1      23.853  11.854  43.639  0.00  0.00    +0.077 A 
ATOM      5  C   UNL     1      25.283  11.772  43.557  0.00  0.00    +0.048 A 
ATOM      6  C   UNL     1      25.834  10.600  42.993  0.00  0.00    +0.116 A 
ATOM      7  N   UNL     1      25.008   9.591  42.547  0.00  0.00    -0.223 NA
ATOM      8  C   UNL     1      23.633   9.701  42.643  0.00  0.00    +0.220 A 
ATOM      9  N   UNL     1      22.782   8.703  42.194  0.00  0.00    -0.283 N 
ATOM     36  H   UNL     1      21.774   8.819  42.290  0.00  0.00    +0.155 HD
ATOM     37  N   UNL     1      23.082  10.810  43.179  0.00  0.00    -0.214 NA
BRANCH   4   3
ATOM      1  C   UNL     1      21.142  14.087  45.361  0.00  0.00    +0.020 A 
ATOM      2  C   UNL     1      21.807  12.920  44.828  0.00  0.00    +0.013 A 
ATOM      3  C   UNL     1      23.120  13.030  44.207  0.00  0.00    +0.019 A 
ATOM     38  C   UNL     1      23.740  14.345  44.141  0.00  0.00    +0.120 A 
ATOM     39  N   UNL     1      23.076  15.451  44.661  0.00  0.00    -0.263 NA
ATOM     40  C   UNL     1      21.810  15.358  45.260  0.00  0.00    +0.111 A 
ENDBRANCH   4   3
ENDBRANCH  10   9
BRANCH  12  13
ATOM     13  N   UNL     1      24.391   4.021  42.691  0.00  0.00    -0.281 N 
ATOM     14  C   UNL     1      25.570   3.713  43.350  0.00  0.00    +0.248 C 
ATOM     30  O   UNL     1      26.630   4.296  43.179  0.00  0.00    -0.270 OA
ATOM     31  H   UNL     1      23.637   3.339  42.778  0.00  0.00    +0.155 HD
BRANCH  14  15
ATOM     15  C   UNL     1      25.575   2.584  44.330  0.00  0.00    +0.037 A 
ATOM     16  C   UNL     1      24.389   2.266  45.129  0.00  0.00    +0.013 A 
ATOM     17  C   UNL     1      24.427   1.183  46.080  0.00  0.00    +0.005 A 
ATOM     18  C   UNL     1      25.656   0.409  46.235  0.00  0.00    -0.033 A 
ATOM     28  C   UNL     1      26.816   0.743  45.426  0.00  0.00    +0.005 A 
ATOM     29  C   UNL     1      26.783   1.804  44.494  0.00  0.00    +0.013 A 
BRANCH  18  19
ATOM     19  C   UNL     1      25.793  -0.750  47.241  0.00  0.00    +0.119 C 
BRANCH  19  20
ATOM     20  N   UNL     1      24.729  -0.882  48.281  0.00  0.00    -0.302 NA
ATOM     21  C   UNL     1      24.929   0.103  49.436  0.00  0.00    +0.066 C 
ATOM     22  C   UNL     1      23.795  -0.033  50.503  0.00  0.00    -0.064 C 
ATOM     23  N   UNL     1      23.756  -1.473  51.020  0.00  0.00    +0.379 N 
ATOM     24  C   UNL     1      22.729  -1.591  52.065  0.00  0.00    -0.096 C 
ATOM     25  H   UNL     1      24.743  -1.690  51.489  0.00  0.00    -0.082 HD
ATOM     26  C   UNL     1      23.560  -2.459  49.877  0.00  0.00    -0.064 C 
ATOM     27  C   UNL     1      24.675  -2.295  48.808  0.00  0.00    +0.066 C 
ENDBRANCH  19  20
ENDBRANCH  18  19
ENDBRANCH  14  15
ENDBRANCH  12  13
TORSDOF 6
ENDMDL
MODEL 2
REMARK VINA RESULT:      -8.3      7.706     12.003
REMARK  Name = C:\Users\Docking\Desktop\test protocol\1iep_ligandH.pdb
REMARK  8 active torsions:
REMARK  status: ('A' for Active; 'I' for Inactive)
REMARK    1  A    between atoms: _5  and  _11
REMARK    2  A    between atoms: _19  and  _21
REMARK    3  A    between atoms: _22  and  _66
REMARK    4  A    between atoms: _27  and  _30
REMARK    5  A    between atoms: _32  and  _33
REMARK    6  A    between atoms: _38  and  _43
REMARK    7  A    between atoms: _43  and  _46
REMARK    8  A    between atoms: _53  and  _55
REMARK                            x       y       z     vdW  Elec       q    Type
REMARK                         _______ _______ _______ _____ _____    ______ ____
ROOT
ATOM     10  C   UNL     1      22.139  17.070  46.965  0.00  0.00    +0.038 A 
ATOM     11  C   UNL     1      22.156  15.873  46.205  0.00  0.00    +0.047 A 
ATOM     12  C   UNL     1      21.453  15.778  44.935  0.00  0.00    +0.035 A 
ATOM     32  C   UNL     1      20.745  16.923  44.467  0.00  0.00    +0.024 A 
ATOM     33  C   UNL     1      20.718  18.148  45.227  0.00  0.00    +0.007 A 
ATOM     34  C   UNL     1      21.407  18.247  46.482  0.00  0.00    -0.029 A 
ATOM     35  C   UNL     1      21.338  19.583  47.258  0.00  0.00    +0.045 C 
ENDROOT
BRANCH  10   9
ATOM      4  C   UNL     1      22.297  16.847  51.757  0.00  0.00    +0.077 A 
ATOM      5  C   UNL     1      20.876  16.671  51.854  0.00  0.00    +0.048 A 
ATOM      6  C   UNL     1      20.141  16.652  50.648  0.00  0.00    +0.116 A 
ATOM      7  N   UNL     1      20.788  16.797  49.440  0.00  0.00    -0.223 NA
ATOM      8  C   UNL     1      22.159  16.965  49.382  0.00  0.00    +0.220 A 
ATOM      9  N   UNL     1      22.832  17.105  48.178  0.00  0.00    -0.283 N 
ATOM     36  H   UNL     1      23.843  17.235  48.177  0.00  0.00    +0.155 HD
ATOM     37  N   UNL     1      22.884  16.989  50.520  0.00  0.00    -0.214 NA
BRANCH   4   3
ATOM      1  C   UNL     1      23.652  16.946  55.425  0.00  0.00    +0.020 A 
ATOM      2  C   UNL     1      22.726  16.909  54.316  0.00  0.00    +0.013 A 
ATOM      3  C   UNL     1      23.211  16.886  52.942  0.00  0.00    +0.019 A 
ATOM     38  C   UNL     1      24.649  16.900  52.722  0.00  0.00    +0.120 A 
ATOM     39  N   UNL     1      25.517  16.937  53.810  0.00  0.00    -0.263 NA
ATOM     40  C   UNL     1      25.062  16.962  55.136  0.00  0.00    +0.111 A 
ENDBRANCH   4   3
ENDBRANCH  10   9
BRANCH  12  13
ATOM     13  N   UNL     1      21.427  14.586  44.124  0.00  0.00    -0.281 N 
ATOM     14  C   UNL     1      22.504  13.851  43.655  0.00  0.00    +0.248 C 
ATOM     30  O   UNL     1      23.665  14.231  43.685  0.00  0.00    -0.270 OA
ATOM     31  H   UNL     1      20.502  14.243  43.863  0.00  0.00    +0.155 HD
BRANCH  14  15
ATOM     15  C   UNL     1      22.253  12.506  43.053  0.00  0.00    +0.037 A 
ATOM     16  C   UNL     1      21.059  12.246  42.245  0.00  0.00    +0.013 A 
ATOM     17  C   UNL     1      20.833  10.935  41.690  0.00  0.00    +0.005 A 
ATOM     18  C   UNL     1      21.805   9.874  41.942  0.00  0.00    -0.033 A 
ATOM     28  C   UNL     1      22.983  10.161  42.743  0.00  0.00    +0.005 A 
ATOM     29  C   UNL     1      23.208  11.444  43.289  0.00  0.00    +0.013 A 
BRANCH  18  19
ATOM     19  C   UNL     1      21.634   8.439  41.407  0.00  0.00    +0.119 C 
BRANCH  19  20
ATOM     20  N   UNL     1      21.953   8.204  39.967  0.00  0.00    -0.302 NA
ATOM     21  C   UNL     1      23.287   8.837  39.563  0.00  0.00    +0.066 C 
ATOM     22  C   UNL     1      23.616   8.562  38.060  0.00  0.00    -0.064 C 
ATOM     23  N   UNL     1      22.477   9.092  37.186  0.00  0.00    +0.379 N 
ATOM     24  C   UNL     1      22.810   8.887  35.769  0.00  0.00    -0.096 C 
ATOM     25  H   UNL     1      22.402  10.191  37.360  0.00  0.00    -0.082 HD
ATOM     26  C   UNL     1      21.147   8.469  37.583  0.00  0.00    -0.064 C 
ATOM     27  C   UNL     1      20.843   8.724  39.086  0.00  0.00    +0.066 C 
ENDBRANCH  19  20
ENDBRANCH  18  19
ENDBRANCH  14  15
ENDBRANCH  12  13
TORSDOF 6
ENDMDL
MODEL 3
REMARK VINA RESULT:      -8.3      6.427     13.479
REMARK  Name = C:\Users\Docking\Desktop\test protocol\1iep_ligandH.pdb
REMARK  8 active torsions:
REMARK  status: ('A' for Active; 'I' for Inactive)
REMARK    1  A    between atoms: _5  and  _11
REMARK    2  A    between atoms: _19  and  _21
REMARK    3  A    between atoms: _22  and  _66
REMARK    4  A    between atoms: _27  and  _30
REMARK    5  A    between atoms: _32  and  _33
REMARK    6  A    between atoms: _38  and  _43
REMARK    7  A    between atoms: _43  and  _46
REMARK    8  A    between atoms: _53  and  _55
REMARK                            x       y       z     vdW  Elec       q    Type
REMARK                         _______ _______ _______ _____ _____    ______ ____
ROOT
ATOM     10  C   UNL     1      21.844  14.797  44.426  0.00  0.00    +0.038 A 
ATOM     11  C   UNL     1      22.112  15.215  45.755  0.00  0.00    +0.047 A 
ATOM     12  C   UNL     1      22.132  16.625  46.111  0.00  0.00    +0.035 A 
ATOM     32  C   UNL     1      21.873  17.584  45.089  0.00  0.00    +0.024 A 
ATOM     33  C   UNL     1      21.600  17.177  43.733  0.00  0.00    +0.007 A 
ATOM     34  C   UNL     1      21.581  15.788  43.375  0.00  0.00    -0.029 A 
ATOM     35  C   UNL     1      21.289  15.409  41.904  0.00  0.00    +0.045 C 
ENDROOT
BRANCH  10   9
ATOM      4  C   UNL     1      24.066  10.706  43.261  0.00  0.00    +0.077 A 
ATOM      5  C   UNL     1      25.345  11.351  43.189  0.00  0.00    +0.048 A 
ATOM      6  C   UNL     1      25.387  12.739  43.452  0.00  0.00    +0.116 A 
ATOM      7  N   UNL     1      24.230  13.420  43.763  0.00  0.00    -0.223 NA
ATOM      8  C   UNL     1      23.012  12.767  43.822  0.00  0.00    +0.220 A 
ATOM      9  N   UNL     1      21.837  13.430  44.140  0.00  0.00    -0.283 N 
ATOM     36  H   UNL     1      20.958  12.914  44.166  0.00  0.00    +0.155 HD
ATOM     37  N   UNL     1      22.946  11.443  43.573  0.00  0.00    -0.214 NA
BRANCH   4   3
ATOM      1  C   UNL     1      24.229   7.126  41.691  0.00  0.00    +0.020 A 
ATOM      2  C   UNL     1      24.460   8.539  41.886  0.00  0.00    +0.013 A 
ATOM      3  C   UNL     1      23.860   9.244  43.012  0.00  0.00    +0.019 A 
ATOM     38  C   UNL     1      23.025   8.483  43.930  0.00  0.00    +0.120 A 
ATOM     39  N   UNL     1      22.820   7.124  43.716  0.00  0.00    -0.263 NA
ATOM     40  C   UNL     1      23.391   6.436  42.635  0.00  0.00    +0.111 A 
ENDBRANCH   4   3
ENDBRANCH  10   9
BRANCH  12  13
ATOM     13  N   UNL     1      22.406  17.109  47.442  0.00  0.00    -0.281 N 
ATOM     14  C   UNL     1      21.603  17.010  48.566  0.00  0.00    +0.248 C 
ATOM     30  O   UNL     1      20.427  16.677  48.548  0.00  0.00    -0.270 OA
ATOM     31  H   UNL     1      23.301  17.582  47.570  0.00  0.00    +0.155 HD
BRANCH  14  15
ATOM     15  C   UNL     1      22.185  17.344  49.901  0.00  0.00    +0.037 A 
ATOM     16  C   UNL     1      23.142  16.450  50.558  0.00  0.00    +0.013 A 
ATOM     17  C   UNL     1      23.676  16.787  51.854  0.00  0.00    +0.005 A 
ATOM     18  C   UNL     1      23.254  18.027  52.501  0.00  0.00    -0.033 A 
ATOM     28  C   UNL     1      22.308  18.899  51.825  0.00  0.00    +0.005 A 
ATOM     29  C   UNL     1      21.782  18.571  50.555  0.00  0.00    +0.013 A 
BRANCH  18  19
ATOM     19  C   UNL     1      23.756  18.457  53.892  0.00  0.00    +0.119 C 
BRANCH  19  20
ATOM     20  N   UNL     1      22.934  18.051  55.071  0.00  0.00    -0.302 NA
ATOM     21  C   UNL     1      23.176  16.591  55.466  0.00  0.00    +0.066 C 
ATOM     22  C   UNL     1      22.325  16.191  56.714  0.00  0.00    -0.064 C 
ATOM     23  N   UNL     1      20.844  16.433  56.417  0.00  0.00    +0.379 N 
ATOM     24  C   UNL     1      20.036  16.002  57.568  0.00  0.00    -0.096 C 
ATOM     25  H   UNL     1      20.564  15.792  55.549  0.00  0.00    -0.082 HD
ATOM     26  C   UNL     1      20.594  17.881  56.021  0.00  0.00    -0.064 C 
ATOM     27  C   UNL     1      21.467  18.278  54.798  0.00  0.00    +0.066 C 
ENDBRANCH  19  20
ENDBRANCH  18  19
ENDBRANCH  14  15
ENDBRANCH  12  13
TORSDOF 6
ENDMDL
MODEL 4
REMARK VINA RESULT:      -8.2      4.980     10.489
REMARK  Name = C:\Users\Docking\Desktop\test protocol\1iep_ligandH.pdb
REMARK  8 active torsions:
REMARK  status: ('A' for Active; 'I' for Inactive)
REMARK    1  A    between atoms: _5  and  _11
REMARK    2  A    between atoms: _19  and  _21
REMARK    3  A    between atoms: _22  and  _66
REMARK    4  A    between atoms: _27  and  _30
REMARK    5  A    between atoms: _32  and  _33
REMARK    6  A    between atoms: _38  and  _43
REMARK    7  A    between atoms: _43  and  _46
REMARK    8  A    between atoms: _53  and  _55
REMARK                            x       y       z     vdW  Elec       q    Type
REMARK                         _______ _______ _______ _____ _____    ______ ____
ROOT
ATOM     10  C   UNL     1      22.309  16.909  46.902  0.00  0.00    +0.038 A 
ATOM     11  C   UNL     1      22.475  15.688  46.199  0.00  0.00    +0.047 A 
ATOM     12  C   UNL     1      21.996  15.536  44.834  0.00  0.00    +0.035 A 
ATOM     32  C   UNL     1      21.354  16.648  44.215  0.00  0.00    +0.024 A 
ATOM     33  C   UNL     1      21.176  17.895  44.916  0.00  0.00    +0.007 A 
ATOM     34  C   UNL     1      21.645  18.051  46.263  0.00  0.00    -0.029 A 
ATOM     35  C   UNL     1      21.421  19.408  46.968  0.00  0.00    +0.045 C 
ENDROOT
BRANCH  10   9
ATOM      4  C   UNL     1      21.666  16.868  51.659  0.00  0.00    +0.077 A 
ATOM      5  C   UNL     1      20.251  16.675  51.525  0.00  0.00    +0.048 A 
ATOM      6  C   UNL     1      19.727  16.599  50.215  0.00  0.00    +0.116 A 
ATOM      7  N   UNL     1      20.566  16.708  49.127  0.00  0.00    -0.223 NA
ATOM      8  C   UNL     1      21.926  16.895  49.291  0.00  0.00    +0.220 A 
ATOM      9  N   UNL     1      22.789  17.000  48.211  0.00  0.00    -0.283 N 
ATOM     36  H   UNL     1      23.785  17.145  48.374  0.00  0.00    +0.155 HD
ATOM     37  N   UNL     1      22.450  16.973  50.532  0.00  0.00    -0.214 NA
BRANCH   4   3
ATOM      1  C   UNL     1      22.401  16.971  55.499  0.00  0.00    +0.020 A 
ATOM      2  C   UNL     1      21.674  16.871  54.254  0.00  0.00    +0.013 A 
ATOM      3  C   UNL     1      22.369  16.965  52.977  0.00  0.00    +0.019 A 
ATOM     38  C   UNL     1      23.811  17.161  52.994  0.00  0.00    +0.120 A 
ATOM     39  N   UNL     1      24.484  17.255  54.208  0.00  0.00    -0.263 NA
ATOM     40  C   UNL     1      23.825  17.168  55.444  0.00  0.00    +0.111 A 
ENDBRANCH   4   3
ENDBRANCH  10   9
BRANCH  12  13
ATOM     13  N   UNL     1      22.129  14.318  44.072  0.00  0.00    -0.281 N 
ATOM     14  C   UNL     1      23.279  13.582  43.837  0.00  0.00    +0.248 C 
ATOM     30  O   UNL     1      24.412  13.977  44.070  0.00  0.00    -0.270 OA
ATOM     31  H   UNL     1      21.272  13.955  43.656  0.00  0.00    +0.155 HD
BRANCH  14  15
ATOM     15  C   UNL     1      23.153  12.216  43.245  0.00  0.00    +0.037 A 
ATOM     16  C   UNL     1      21.868  11.719  42.747  0.00  0.00    +0.013 A 
ATOM     17  C   UNL     1      21.770  10.391  42.195  0.00  0.00    +0.005 A 
ATOM     18  C   UNL     1      22.964   9.550  42.138  0.00  0.00    -0.033 A 
ATOM     28  C   UNL     1      24.227  10.070  42.635  0.00  0.00    +0.005 A 
ATOM     29  C   UNL     1      24.326  11.371  43.177  0.00  0.00    +0.013 A 
BRANCH  18  19
ATOM     19  C   UNL     1      22.948   8.112  41.586  0.00  0.00    +0.119 C 
BRANCH  19  20
ATOM     20  N   UNL     1      23.465   7.031  42.478  0.00  0.00    -0.302 NA
ATOM     21  C   UNL     1      24.783   6.444  41.965  0.00  0.00    +0.066 C 
ATOM     22  C   UNL     1      25.321   5.331  42.921  0.00  0.00    -0.064 C 
ATOM     23  N   UNL     1      24.262   4.237  43.072  0.00  0.00    +0.379 N 
ATOM     24  C   UNL     1      24.788   3.160  43.924  0.00  0.00    -0.096 C 
ATOM     25  H   UNL     1      24.075   3.807  42.061  0.00  0.00    -0.082 HD
ATOM     26  C   UNL     1      22.948   4.812  43.579  0.00  0.00    -0.064 C 
ATOM     27  C   UNL     1      22.437   5.938  42.637  0.00  0.00    +0.066 C 
ENDBRANCH  19  20
ENDBRANCH  18  19
ENDBRANCH  14  15
ENDBRANCH  12  13
TORSDOF 6
ENDMDL
MODEL 5
REMARK VINA RESULT:      -8.2      2.331      5.002
REMARK  Name = C:\Users\Docking\Desktop\test protocol\1iep_ligandH.pdb
REMARK  8 active torsions:
REMARK  status: ('A' for Active; 'I' for Inactive)
REMARK    1  A    between atoms: _5  and  _11
REMARK    2  A    between atoms: _19  and  _21
REMARK    3  A    between atoms: _22  and  _66
REMARK    4  A    between atoms: _27  and  _30
REMARK    5  A    between atoms: _32  and  _33
REMARK    6  A    between atoms: _38  and  _43
REMARK    7  A    between atoms: _43  and  _46
REMARK    8  A    between atoms: _53  and  _55
REMARK                            x       y       z     vdW  Elec       q    Type
REMARK                         _______ _______ _______ _____ _____    ______ ____
ROOT
ATOM     10  C   UNL     1      26.164   3.689  43.455  0.00  0.00    +0.038 A 
ATOM     11  C   UNL     1      25.615   2.999  44.565  0.00  0.00    +0.047 A 
ATOM     12  C   UNL     1      25.528   1.547  44.580  0.00  0.00    +0.035 A 
ATOM     32  C   UNL     1      26.012   0.829  43.448  0.00  0.00    +0.024 A 
ATOM     33  C   UNL     1      26.573   1.515  42.311  0.00  0.00    +0.007 A 
ATOM     34  C   UNL     1      26.659   2.947  42.289  0.00  0.00    -0.029 A 
ATOM     35  C   UNL     1      27.264   3.630  41.040  0.00  0.00    +0.045 C 
ENDROOT
BRANCH  10   9
ATOM      4  C   UNL     1      24.186   8.027  42.899  0.00  0.00    +0.077 A 
ATOM      5  C   UNL     1      22.937   7.468  42.470  0.00  0.00    +0.048 A 
ATOM      6  C   UNL     1      22.847   6.059  42.399  0.00  0.00    +0.116 A 
ATOM      7  N   UNL     1      23.932   5.279  42.735  0.00  0.00    -0.223 NA
ATOM      8  C   UNL     1      25.123   5.850  43.143  0.00  0.00    +0.220 A 
ATOM      9  N   UNL     1      26.224   5.084  43.494  0.00  0.00    -0.283 N 
ATOM     36  H   UNL     1      27.087   5.544  43.783  0.00  0.00    +0.155 HD
ATOM     37  N   UNL     1      25.235   7.193  43.218  0.00  0.00    -0.214 NA
BRANCH   4   3
ATOM      1  C   UNL     1      25.959  11.505  43.147  0.00  0.00    +0.020 A 
ATOM      2  C   UNL     1      25.773  10.078  43.019  0.00  0.00    +0.013 A 
ATOM      3  C   UNL     1      24.436   9.498  43.029  0.00  0.00    +0.019 A 
ATOM     38  C   UNL     1      23.300  10.396  43.170  0.00  0.00    +0.120 A 
ATOM     39  N   UNL     1      23.510  11.766  43.293  0.00  0.00    -0.263 NA
ATOM     40  C   UNL     1      24.792  12.336  43.286  0.00  0.00    +0.111 A 
ENDBRANCH   4   3
ENDBRANCH  10   9
BRANCH  12  13
ATOM     13  N   UNL     1      24.972   0.792  45.676  0.00  0.00    -0.281 N 
ATOM     14  C   UNL     1      25.651   0.159  46.705  0.00  0.00    +0.248 C 
ATOM     30  O   UNL     1      26.857  -0.034  46.720  0.00  0.00    -0.270 OA
ATOM     31  H   UNL     1      23.955   0.714  45.695  0.00  0.00    +0.155 HD
BRANCH  14  15
ATOM     15  C   UNL     1      24.875  -0.344  47.879  0.00  0.00    +0.037 A 
ATOM     16  C   UNL     1      25.146  -1.662  48.460  0.00  0.00    +0.013 A 
ATOM     17  C   UNL     1      24.372  -2.131  49.582  0.00  0.00    +0.005 A 
ATOM     18  C   UNL     1      23.319  -1.279  50.131  0.00  0.00    -0.033 A 
ATOM     28  C   UNL     1      23.075   0.025  49.538  0.00  0.00    +0.005 A 
ATOM     29  C   UNL     1      23.831   0.488  48.438  0.00  0.00    +0.013 A 
BRANCH  18  19
ATOM     19  C   UNL     1      22.429  -1.707  51.313  0.00  0.00    +0.119 C 
BRANCH  19  20
ATOM     20  N   UNL     1      23.028  -1.637  52.680  0.00  0.00    -0.302 NA
ATOM     21  C   UNL     1      21.972  -1.791  53.778  0.00  0.00    +0.066 C 
ATOM     22  C   UNL     1      22.619  -1.739  55.200  0.00  0.00    -0.064 C 
ATOM     23  N   UNL     1      23.382  -0.423  55.363  0.00  0.00    +0.379 N 
ATOM     24  C   UNL     1      23.942  -0.345  56.720  0.00  0.00    -0.096 C 
ATOM     25  H   UNL     1      22.648   0.409  55.252  0.00  0.00    -0.082 HD
ATOM     26  C   UNL     1      24.432  -0.261  54.273  0.00  0.00    -0.064 C 
ATOM     27  C   UNL     1      23.783  -0.344  52.863  0.00  0.00    +0.066 C 
ENDBRANCH  19  20
ENDBRANCH  18  19
ENDBRANCH  14  15
ENDBRANCH  12  13
TORSDOF 6
ENDMDL
