MODEL 1
REMARK VINA RESULT:      -9.1      0.000      0.000
REMARK  Name = C:\Users\Docking\Desktop\test protocol\1iep_ligandH.pdb
REMARK  8 active torsions:
REMARK  status: ('A' for Active; 'I' for Inactive)
REMARK    1  A    between atoms: _5  and  _11
REMARK    2  A    between atoms: _19  and  _21
REMARK    3  A    between atoms: _22  and  _66
REMARK    4  A    between atoms: _27  and  _30
REMARK    5  A    between atoms: _32  and  _33
REMARK    6  A    between atoms: _38  and  _43
REMARK    7  A    between atoms: _43  and  _46
REMARK    8  A    between atoms: _53  and  _55
REMARK                            x       y       z     vdW  Elec       q    Type
REMARK                         _______ _______ _______ _____ _____    ______ ____
ROOT
ATOM     10  C   UNL     1      21.432  65.383  29.303  0.00  0.00    +0.038 A 
ATOM     11  C   UNL     1      20.602  64.616  28.447  0.00  0.00    +0.047 A 
ATOM     12  C   UNL     1      20.045  63.344  28.881  0.00  0.00    +0.035 A 
ATOM     32  C   UNL     1      20.353  62.885  30.195  0.00  0.00    +0.024 A 
ATOM     33  C   UNL     1      21.196  63.652  31.078  0.00  0.00    +0.007 A 
ATOM     34  C   UNL     1      21.750  64.906  30.654  0.00  0.00    -0.029 A 
ATOM     35  C   UNL     1      22.652  65.683  31.641  0.00  0.00    +0.045 C 
ENDROOT
BRANCH  10   9
ATOM      4  C   UNL     1      20.863  69.854  27.652  0.00  0.00    +0.077 A 
ATOM      5  C   UNL     1      19.433  69.753  27.700  0.00  0.00    +0.048 A 
ATOM      6  C   UNL     1      18.884  68.531  28.149  0.00  0.00    +0.116 A 
ATOM      7  N   UNL     1      19.712  67.494  28.520  0.00  0.00    -0.223 NA
ATOM      8  C   UNL     1      21.088  67.624  28.459  0.00  0.00    +0.220 A 
ATOM      9  N   UNL     1      21.940  66.597  28.835  0.00  0.00    -0.283 N 
ATOM     36  H   UNL     1      22.949  66.730  28.769  0.00  0.00    +0.155 HD
ATOM     37  N   UNL     1      21.637  68.780  28.033  0.00  0.00    -0.214 NA
BRANCH   4   3
ATOM      1  C   UNL     1      22.588  73.364  27.605  0.00  0.00    +0.020 A 
ATOM      2  C   UNL     1      21.879  72.202  28.089  0.00  0.00    +0.013 A 
ATOM      3  C   UNL     1      21.594  71.081  27.203  0.00  0.00    +0.019 A 
ATOM     38  C   UNL     1      22.044  71.168  25.822  0.00  0.00    +0.120 A 
ATOM     39  N   UNL     1      22.724  72.300  25.384  0.00  0.00    -0.263 NA
ATOM     40  C   UNL     1      23.002  73.386  26.227  0.00  0.00    +0.111 A 
ENDBRANCH   4   3
ENDBRANCH  10   9
BRANCH  12  13
ATOM     13  N   UNL     1      19.203  62.517  28.052  0.00  0.00    -0.281 N 
ATOM     14  C   UNL     1      17.866  62.206  28.240  0.00  0.00    +0.248 C 
ATOM     30  O   UNL     1      17.245  62.421  29.270  0.00  0.00    -0.270 OA
ATOM     31  H   UNL     1      19.646  62.111  27.228  0.00  0.00    +0.155 HD
BRANCH  14  15
ATOM     15  C   UNL     1      17.115  61.549  27.128  0.00  0.00    +0.037 A 
ATOM     16  C   UNL     1      17.693  60.432  26.376  0.00  0.00    +0.013 A 
ATOM     17  C   UNL     1      16.953  59.827  25.296  0.00  0.00    +0.005 A 
ATOM     18  C   UNL     1      15.626  60.338  24.963  0.00  0.00    -0.033 A 
ATOM     28  C   UNL     1      15.074  61.444  25.729  0.00  0.00    +0.005 A 
ATOM     29  C   UNL     1      15.796  62.040  26.787  0.00  0.00    +0.013 A 
BRANCH  18  19
ATOM     19  C   UNL     1      14.774  59.768  23.813  0.00  0.00    +0.119 C 
BRANCH  19  20
ATOM     20  N   UNL     1      14.500  58.300  23.829  0.00  0.00    -0.302 NA
ATOM     21  C   UNL     1      13.940  57.806  22.492  0.00  0.00    +0.066 C 
ATOM     22  C   UNL     1      13.680  56.265  22.518  0.00  0.00    -0.064 C 
ATOM     23  N   UNL     1      12.722  55.931  23.664  0.00  0.00    +0.379 N 
ATOM     24  C   UNL     1      12.430  54.490  23.655  0.00  0.00    -0.096 C 
ATOM     25  H   UNL     1      11.766  56.471  23.473  0.00  0.00    -0.082 HD
ATOM     26  C   UNL     1      13.271  56.421  24.996  0.00  0.00    -0.064 C 
ATOM     27  C   UNL     1      13.553  57.949  24.950  0.00  0.00    +0.066 C 
ENDBRANCH  19  20
ENDBRANCH  18  19
ENDBRANCH  14  15
ENDBRANCH  12  13
TORSDOF 6
ENDMDL
MODEL 2
REMARK VINA RESULT:      -8.7      3.824      6.723
REMARK  Name = C:\Users\Docking\Desktop\test protocol\1iep_ligandH.pdb
REMARK  8 active torsions:
REMARK  status: ('A' for Active; 'I' for Inactive)
REMARK    1  A    between atoms: _5  and  _11
REMARK    2  A    between atoms: _19  and  _21
REMARK    3  A    between atoms: _22  and  _66
REMARK    4  A    between atoms: _27  and  _30
REMARK    5  A    between atoms: _32  and  _33
REMARK    6  A    between atoms: _38  and  _43
REMARK    7  A    between atoms: _43  and  _46
REMARK    8  A    between atoms: _53  and  _55
REMARK                            x       y       z     vdW  Elec       q    Type
REMARK                         _______ _______ _______ _____ _____    ______ ____
ROOT
ATOM     10  C   UNL     1      15.561  63.359  26.824  0.00  0.00    +0.038 A 
ATOM     11  C   UNL     1      15.313  62.010  26.461  0.00  0.00    +0.047 A 
ATOM     12  C   UNL     1      14.332  61.674  25.442  0.00  0.00    +0.035 A 
ATOM     32  C   UNL     1      13.623  62.736  24.809  0.00  0.00    +0.024 A 
ATOM     33  C   UNL     1      13.862  64.113  25.167  0.00  0.00    +0.007 A 
ATOM     34  C   UNL     1      14.827  64.451  26.174  0.00  0.00    -0.029 A 
ATOM     35  C   UNL     1      15.037  65.943  26.521  0.00  0.00    +0.045 C 
ENDROOT
BRANCH  10   9
ATOM      4  C   UNL     1      20.009  64.515  28.208  0.00  0.00    +0.077 A 
ATOM      5  C   UNL     1      20.480  64.568  26.854  0.00  0.00    +0.048 A 
ATOM      6  C   UNL     1      19.548  64.284  25.831  0.00  0.00    +0.116 A 
ATOM      7  N   UNL     1      18.244  63.972  26.150  0.00  0.00    -0.223 NA
ATOM      8  C   UNL     1      17.823  63.928  27.466  0.00  0.00    +0.220 A 
ATOM      9  N   UNL     1      16.515  63.625  27.810  0.00  0.00    -0.283 N 
ATOM     36  H   UNL     1      16.245  63.595  28.793  0.00  0.00    +0.155 HD
ATOM     37  N   UNL     1      18.694  64.194  28.462  0.00  0.00    -0.214 NA
BRANCH   4   3
ATOM      1  C   UNL     1      22.544  66.191  30.671  0.00  0.00    +0.020 A 
ATOM      2  C   UNL     1      21.730  65.969  29.499  0.00  0.00    +0.013 A 
ATOM      3  C   UNL     1      20.873  64.793  29.399  0.00  0.00    +0.019 A 
ATOM     38  C   UNL     1      20.864  63.856  30.511  0.00  0.00    +0.120 A 
ATOM     39  N   UNL     1      21.660  64.095  31.627  0.00  0.00    -0.263 NA
ATOM     40  C   UNL     1      22.490  65.222  31.734  0.00  0.00    +0.111 A 
ENDBRANCH   4   3
ENDBRANCH  10   9
BRANCH  12  13
ATOM     13  N   UNL     1      14.031  60.323  25.038  0.00  0.00    -0.281 N 
ATOM     14  C   UNL     1      14.919  59.332  24.652  0.00  0.00    +0.248 C 
ATOM     30  O   UNL     1      16.097  59.524  24.389  0.00  0.00    -0.270 OA
ATOM     31  H   UNL     1      13.044  60.065  25.036  0.00  0.00    +0.155 HD
BRANCH  14  15
ATOM     15  C   UNL     1      14.424  57.927  24.525  0.00  0.00    +0.037 A 
ATOM     16  C   UNL     1      13.370  57.412  25.402  0.00  0.00    +0.013 A 
ATOM     17  C   UNL     1      12.922  56.048  25.270  0.00  0.00    +0.005 A 
ATOM     18  C   UNL     1      13.528  55.190  24.254  0.00  0.00    -0.033 A 
ATOM     28  C   UNL     1      14.568  55.729  23.394  0.00  0.00    +0.005 A 
ATOM     29  C   UNL     1      15.010  57.065  23.521  0.00  0.00    +0.013 A 
BRANCH  18  19
ATOM     19  C   UNL     1      13.127  53.716  24.057  0.00  0.00    +0.119 C 
BRANCH  19  20
ATOM     20  N   UNL     1      14.179  52.684  24.295  0.00  0.00    -0.302 NA
ATOM     21  C   UNL     1      13.643  51.262  24.106  0.00  0.00    +0.066 C 
ATOM     22  C   UNL     1      14.762  50.195  24.337  0.00  0.00    -0.064 C 
ATOM     23  N   UNL     1      15.348  50.371  25.739  0.00  0.00    +0.379 N 
ATOM     24  C   UNL     1      16.361  49.333  25.980  0.00  0.00    -0.096 C 
ATOM     25  H   UNL     1      14.523  50.216  26.472  0.00  0.00    -0.082 HD
ATOM     26  C   UNL     1      15.882  51.782  25.936  0.00  0.00    -0.064 C 
ATOM     27  C   UNL     1      14.769  52.836  25.676  0.00  0.00    +0.066 C 
ENDBRANCH  19  20
ENDBRANCH  18  19
ENDBRANCH  14  15
ENDBRANCH  12  13
TORSDOF 6
ENDMDL
MODEL 3
REMARK VINA RESULT:      -8.7     10.868     13.619
REMARK  Name = C:\Users\Docking\Desktop\test protocol\1iep_ligandH.pdb
REMARK  8 active torsions:
REMARK  status: ('A' for Active; 'I' for Inactive)
REMARK    1  A    between atoms: _5  and  _11
REMARK    2  A    between atoms: _19  and  _21
REMARK    3  A    between atoms: _22  and  _66
REMARK    4  A    between atoms: _27  and  _30
REMARK    5  A    between atoms: _32  and  _33
REMARK    6  A    between atoms: _38  and  _43
REMARK    7  A    between atoms: _43  and  _46
REMARK    8  A    between atoms: _53  and  _55
REMARK                            x       y       z     vdW  Elec       q    Type
REMARK                         _______ _______ _______ _____ _____    ______ ____
ROOT
ATOM     10  C   UNL     1      22.253  54.022  32.772  0.00  0.00    +0.038 A 
ATOM     11  C   UNL     1      21.108  53.285  33.169  0.00  0.00    +0.047 A 
ATOM     12  C   UNL     1      21.219  51.906  33.617  0.00  0.00    +0.035 A 
ATOM     32  C   UNL     1      22.513  51.309  33.650  0.00  0.00    +0.024 A 
ATOM     33  C   UNL     1      23.688  52.043  33.249  0.00  0.00    +0.007 A 
ATOM     34  C   UNL     1      23.583  53.403  32.804  0.00  0.00    -0.029 A 
ATOM     35  C   UNL     1      24.875  54.140  32.380  0.00  0.00    +0.045 C 
ENDROOT
BRANCH  10   9
ATOM      4  C   UNL     1      21.111  58.613  33.585  0.00  0.00    +0.077 A 
ATOM      5  C   UNL     1      20.790  58.351  34.959  0.00  0.00    +0.048 A 
ATOM      6  C   UNL     1      20.925  57.020  35.415  0.00  0.00    +0.116 A 
ATOM      7  N   UNL     1      21.351  56.033  34.553  0.00  0.00    -0.223 NA
ATOM      8  C   UNL     1      21.651  56.319  33.233  0.00  0.00    +0.220 A 
ATOM      9  N   UNL     1      22.088  55.344  32.351  0.00  0.00    -0.283 N 
ATOM     36  H   UNL     1      22.292  55.594  31.383  0.00  0.00    +0.155 HD
ATOM     37  N   UNL     1      21.528  57.582  32.773  0.00  0.00    -0.214 NA
BRANCH   4   3
ATOM      1  C   UNL     1      22.021  62.169  32.234  0.00  0.00    +0.020 A 
ATOM      2  C   UNL     1      22.161  60.870  32.852  0.00  0.00    +0.013 A 
ATOM      3  C   UNL     1      21.021  59.968  32.956  0.00  0.00    +0.019 A 
ATOM     38  C   UNL     1      19.744  60.414  32.420  0.00  0.00    +0.120 A 
ATOM     39  N   UNL     1      19.639  61.670  31.832  0.00  0.00    -0.263 NA
ATOM     40  C   UNL     1      20.728  62.548  31.728  0.00  0.00    +0.111 A 
ENDBRANCH   4   3
ENDBRANCH  10   9
BRANCH  12  13
ATOM     13  N   UNL     1      20.092  51.105  34.024  0.00  0.00    -0.281 N 
ATOM     14  C   UNL     1      18.758  51.280  33.692  0.00  0.00    +0.248 C 
ATOM     30  O   UNL     1      18.304  52.284  33.164  0.00  0.00    -0.270 OA
ATOM     31  H   UNL     1      20.302  50.312  34.631  0.00  0.00    +0.155 HD
BRANCH  14  15
ATOM     15  C   UNL     1      17.787  50.189  34.005  0.00  0.00    +0.037 A 
ATOM     16  C   UNL     1      17.806  48.921  33.271  0.00  0.00    +0.013 A 
ATOM     17  C   UNL     1      16.847  47.891  33.581  0.00  0.00    +0.005 A 
ATOM     18  C   UNL     1      15.859  48.125  34.633  0.00  0.00    -0.033 A 
ATOM     28  C   UNL     1      15.866  49.390  35.348  0.00  0.00    +0.005 A 
ATOM     29  C   UNL     1      16.804  50.402  35.046  0.00  0.00    +0.013 A 
BRANCH  18  19
ATOM     19  C   UNL     1      14.785  47.090  35.016  0.00  0.00    +0.119 C 
BRANCH  19  20
ATOM     20  N   UNL     1      13.586  47.591  35.752  0.00  0.00    -0.302 NA
ATOM     21  C   UNL     1      13.228  46.696  36.942  0.00  0.00    +0.066 C 
ATOM     22  C   UNL     1      11.985  47.247  37.715  0.00  0.00    -0.064 C 
ATOM     23  N   UNL     1      10.802  47.367  36.753  0.00  0.00    +0.379 N 
ATOM     24  C   UNL     1       9.616  47.829  37.488  0.00  0.00    -0.096 C 
ATOM     25  H   UNL     1      10.581  46.347  36.360  0.00  0.00    -0.082 HD
ATOM     26  C   UNL     1      11.150  48.253  35.565  0.00  0.00    -0.064 C 
ATOM     27  C   UNL     1      12.404  47.713  34.822  0.00  0.00    +0.066 C 
ENDBRANCH  19  20
ENDBRANCH  18  19
ENDBRANCH  14  15
ENDBRANCH  12  13
TORSDOF 6
ENDMDL
MODEL 4
REMARK VINA RESULT:      -8.6     16.840     22.758
REMARK  Name = C:\Users\Docking\Desktop\test protocol\1iep_ligandH.pdb
REMARK  8 active torsions:
REMARK  status: ('A' for Active; 'I' for Inactive)
REMARK    1  A    between atoms: _5  and  _11
REMARK    2  A    between atoms: _19  and  _21
REMARK    3  A    between atoms: _22  and  _66
REMARK    4  A    between atoms: _27  and  _30
REMARK    5  A    between atoms: _32  and  _33
REMARK    6  A    between atoms: _38  and  _43
REMARK    7  A    between atoms: _43  and  _46
REMARK    8  A    between atoms: _53  and  _55
REMARK                            x       y       z     vdW  Elec       q    Type
REMARK                         _______ _______ _______ _____ _____    ______ ____
ROOT
ATOM     10  C   UNL     1      31.147  59.918  45.562  0.00  0.00    +0.038 A 
ATOM     11  C   UNL     1      31.154  61.025  44.675  0.00  0.00    +0.047 A 
ATOM     12  C   UNL     1      31.203  60.835  43.234  0.00  0.00    +0.035 A 
ATOM     32  C   UNL     1      31.242  59.502  42.729  0.00  0.00    +0.024 A 
ATOM     33  C   UNL     1      31.237  58.365  43.616  0.00  0.00    +0.007 A 
ATOM     34  C   UNL     1      31.191  58.547  45.039  0.00  0.00    -0.029 A 
ATOM     35  C   UNL     1      31.195  57.292  45.943  0.00  0.00    +0.045 C 
ENDROOT
BRANCH  10   9
ATOM      4  C   UNL     1      28.817  61.213  49.553  0.00  0.00    +0.077 A 
ATOM      5  C   UNL     1      27.599  61.455  48.834  0.00  0.00    +0.048 A 
ATOM      6  C   UNL     1      27.617  61.242  47.438  0.00  0.00    +0.116 A 
ATOM      7  N   UNL     1      28.771  60.817  46.817  0.00  0.00    -0.223 NA
ATOM      8  C   UNL     1      29.929  60.594  47.539  0.00  0.00    +0.220 A 
ATOM      9  N   UNL     1      31.099  60.160  46.937  0.00  0.00    -0.283 N 
ATOM     36  H   UNL     1      31.934  60.014  47.503  0.00  0.00    +0.155 HD
ATOM     37  N   UNL     1      29.938  60.792  48.874  0.00  0.00    -0.214 NA
BRANCH   4   3
ATOM      1  C   UNL     1      29.502  60.542  53.345  0.00  0.00    +0.020 A 
ATOM      2  C   UNL     1      29.383  60.318  51.923  0.00  0.00    +0.013 A 
ATOM      3  C   UNL     1      28.956  61.391  51.033  0.00  0.00    +0.019 A 
ATOM     38  C   UNL     1      28.655  62.688  51.619  0.00  0.00    +0.120 A 
ATOM     39  N   UNL     1      28.777  62.874  52.992  0.00  0.00    -0.263 NA
ATOM     40  C   UNL     1      29.186  61.849  53.859  0.00  0.00    +0.111 A 
ENDBRANCH   4   3
ENDBRANCH  10   9
BRANCH  12  13
ATOM     13  N   UNL     1      31.220  61.920  42.285  0.00  0.00    -0.281 N 
ATOM     14  C   UNL     1      32.316  62.472  41.642  0.00  0.00    +0.248 C 
ATOM     30  O   UNL     1      33.479  62.255  41.948  0.00  0.00    -0.270 OA
ATOM     31  H   UNL     1      30.314  62.332  42.060  0.00  0.00    +0.155 HD
BRANCH  14  15
ATOM     15  C   UNL     1      32.087  63.412  40.503  0.00  0.00    +0.037 A 
ATOM     16  C   UNL     1      31.443  64.713  40.708  0.00  0.00    +0.013 A 
ATOM     17  C   UNL     1      31.219  65.593  39.589  0.00  0.00    +0.005 A 
ATOM     18  C   UNL     1      31.640  65.176  38.254  0.00  0.00    -0.033 A 
ATOM     28  C   UNL     1      32.280  63.883  38.079  0.00  0.00    +0.005 A 
ATOM     29  C   UNL     1      32.501  63.017  39.173  0.00  0.00    +0.013 A 
BRANCH  18  19
ATOM     19  C   UNL     1      31.421  66.042  36.999  0.00  0.00    +0.119 C 
BRANCH  19  20
ATOM     20  N   UNL     1      32.095  65.605  35.740  0.00  0.00    -0.302 NA
ATOM     21  C   UNL     1      33.139  66.619  35.265  0.00  0.00    +0.066 C 
ATOM     22  C   UNL     1      33.850  66.135  33.960  0.00  0.00    -0.064 C 
ATOM     23  N   UNL     1      32.802  65.888  32.873  0.00  0.00    +0.379 N 
ATOM     24  C   UNL     1      33.472  65.488  31.627  0.00  0.00    -0.096 C 
ATOM     25  H   UNL     1      32.280  66.853  32.682  0.00  0.00    -0.082 HD
ATOM     26  C   UNL     1      31.758  64.882  33.338  0.00  0.00    -0.064 C 
ATOM     27  C   UNL     1      31.079  65.359  34.652  0.00  0.00    +0.066 C 
ENDBRANCH  19  20
ENDBRANCH  18  19
ENDBRANCH  14  15
ENDBRANCH  12  13
TORSDOF 6
ENDMDL
MODEL 5
REMARK VINA RESULT:      -8.6     11.208     13.840
REMARK  Name = C:\Users\Docking\Desktop\test protocol\1iep_ligandH.pdb
REMARK  8 active torsions:
REMARK  status: ('A' for Active; 'I' for Inactive)
REMARK    1  A    between atoms: _5  and  _11
REMARK    2  A    between atoms: _19  and  _21
REMARK    3  A    between atoms: _22  and  _66
REMARK    4  A    between atoms: _27  and  _30
REMARK    5  A    between atoms: _32  and  _33
REMARK    6  A    between atoms: _38  and  _43
REMARK    7  A    between atoms: _43  and  _46
REMARK    8  A    between atoms: _53  and  _55
REMARK                            x       y       z     vdW  Elec       q    Type
REMARK                         _______ _______ _______ _____ _____    ______ ____
ROOT
ATOM     10  C   UNL     1      23.140  54.082  32.556  0.00  0.00    +0.038 A 
ATOM     11  C   UNL     1      22.028  53.208  32.664  0.00  0.00    +0.047 A 
ATOM     12  C   UNL     1      22.203  51.806  33.008  0.00  0.00    +0.035 A 
ATOM     32  C   UNL     1      23.525  51.327  33.238  0.00  0.00    +0.024 A 
ATOM     33  C   UNL     1      24.667  52.200  33.131  0.00  0.00    +0.007 A 
ATOM     34  C   UNL     1      24.501  53.584  32.790  0.00  0.00    -0.029 A 
ATOM     35  C   UNL     1      25.762  54.473  32.683  0.00  0.00    +0.045 C 
ENDROOT
BRANCH  10   9
ATOM      4  C   UNL     1      21.408  58.451  33.528  0.00  0.00    +0.077 A 
ATOM      5  C   UNL     1      20.885  58.027  34.795  0.00  0.00    +0.048 A 
ATOM      6  C   UNL     1      21.077  56.674  35.156  0.00  0.00    +0.116 A 
ATOM      7  N   UNL     1      21.744  55.819  34.306  0.00  0.00    -0.223 NA
ATOM      8  C   UNL     1      22.234  56.260  33.090  0.00  0.00    +0.220 A 
ATOM      9  N   UNL     1      22.914  55.419  32.223  0.00  0.00    -0.283 N 
ATOM     36  H   UNL     1      23.253  55.781  31.332  0.00  0.00    +0.155 HD
ATOM     37  N   UNL     1      22.062  57.547  32.722  0.00  0.00    -0.214 NA
BRANCH   4   3
ATOM      1  C   UNL     1      22.262  62.079  32.342  0.00  0.00    +0.020 A 
ATOM      2  C   UNL     1      22.433  60.738  32.850  0.00  0.00    +0.013 A 
ATOM      3  C   UNL     1      21.288  59.850  33.008  0.00  0.00    +0.019 A 
ATOM     38  C   UNL     1      19.974  60.354  32.639  0.00  0.00    +0.120 A 
ATOM     39  N   UNL     1      19.840  61.651  32.154  0.00  0.00    -0.263 NA
ATOM     40  C   UNL     1      20.934  62.515  31.999  0.00  0.00    +0.111 A 
ENDBRANCH   4   3
ENDBRANCH  10   9
BRANCH  12  13
ATOM     13  N   UNL     1      21.112  50.870  33.124  0.00  0.00    -0.281 N 
ATOM     14  C   UNL     1      20.187  50.763  34.149  0.00  0.00    +0.248 C 
ATOM     30  O   UNL     1      20.287  51.322  35.231  0.00  0.00    -0.270 OA
ATOM     31  H   UNL     1      21.009  50.205  32.357  0.00  0.00    +0.155 HD
BRANCH  14  15
ATOM     15  C   UNL     1      18.983  49.900  33.949  0.00  0.00    +0.037 A 
ATOM     16  C   UNL     1      19.051  48.677  33.145  0.00  0.00    +0.013 A 
ATOM     17  C   UNL     1      17.871  47.871  32.954  0.00  0.00    +0.005 A 
ATOM     18  C   UNL     1      16.613  48.286  33.570  0.00  0.00    -0.033 A 
ATOM     28  C   UNL     1      16.575  49.501  34.367  0.00  0.00    +0.005 A 
ATOM     29  C   UNL     1      17.730  50.294  34.556  0.00  0.00    +0.013 A 
BRANCH  18  19
ATOM     19  C   UNL     1      15.300  47.499  33.402  0.00  0.00    +0.119 C 
BRANCH  19  20
ATOM     20  N   UNL     1      14.969  46.489  34.451  0.00  0.00    -0.302 NA
ATOM     21  C   UNL     1      14.197  47.106  35.620  0.00  0.00    +0.066 C 
ATOM     22  C   UNL     1      13.839  46.031  36.697  0.00  0.00    -0.064 C 
ATOM     23  N   UNL     1      15.123  45.360  37.190  0.00  0.00    +0.379 N 
ATOM     24  C   UNL     1      14.796  44.389  38.244  0.00  0.00    -0.096 C 
ATOM     25  H   UNL     1      15.764  46.150  37.644  0.00  0.00    -0.082 HD
ATOM     26  C   UNL     1      15.898  44.746  36.033  0.00  0.00    -0.064 C 
ATOM     27  C   UNL     1      16.223  45.817  34.954  0.00  0.00    +0.066 C 
ENDBRANCH  19  20
ENDBRANCH  18  19
ENDBRANCH  14  15
ENDBRANCH  12  13
TORSDOF 6
ENDMDL
